# generated using pymatgen
data_In2Te3
_symmetry_space_group_name_H-M   'P 1'
_cell_length_a   18.80753641
_cell_length_b   18.80171818
_cell_length_c   18.80291649
_cell_angle_alpha   90.00068059
_cell_angle_beta   90.04188323
_cell_angle_gamma   89.95028964
_symmetry_Int_Tables_number   1
_chemical_formula_structural   In2Te3
_chemical_formula_sum   'In72 Te108'
_cell_volume   6648.97021756
_cell_formula_units_Z   36
loop_
 _symmetry_equiv_pos_site_id
 _symmetry_equiv_pos_as_xyz
  1  'x, y, z'
loop_
 _atom_site_type_symbol
 _atom_site_label
 _atom_site_symmetry_multiplicity
 _atom_site_fract_x
 _atom_site_fract_y
 _atom_site_fract_z
 _atom_site_occupancy
  In  In0  1  0.63754666  -0.01049313  0.02018554  1
  In  In1  1  0.65314826  0.31850341  0.67042520  1
  In  In2  1  0.65678934  0.33635904  0.33536838  1
  In  In3  1  0.32727234  0.83004017  0.83183411  1
  In  In4  1  0.84603590  0.81306912  0.00541195  1
  In  In5  1  0.34356784  0.68130285  0.66554363  1
  In  In6  1  0.17892210  0.17226474  0.67319491  1
  In  In7  1  0.50441977  0.31907120  0.49837648  1
  In  In8  1  0.63667269  0.02114683  0.62954738  1
  In  In9  1  0.00222993  0.64253807  0.01157807  1
  In  In10  1  0.66064785  0.48390929  0.48924369  1
  In  In11  1  0.17763002  0.64259204  0.14098133  1
  In  In12  1  0.84732328  -0.00080176  0.16999184  1
  In  In13  1  0.63605294  0.83721123  0.84980905  1
  In  In14  1  0.83420134  0.17210603  0.63705253  1
  In  In15  1  0.64562802  0.01929074  0.31015645  1
  In  In16  1  0.67432660  0.18770919  0.81465683  1
  In  In17  1  0.83688535  -0.01575147  0.82441842  1
  In  In18  1  0.84069730  0.81775081  0.67504034  1
  In  In19  1  0.02558130  0.82870118  0.18691866  1
  In  In20  1  0.45653401  0.85993069  0.32117189  1
  In  In21  1  0.03264924  0.35237980  0.01847654  1
  In  In22  1  0.01265613  0.66684143  0.68829119  1
  In  In23  1  -0.00444556  0.34810522  0.65898739  1
  In  In24  1  0.64751739  0.63878028  0.32772036  1
  In  In25  1  0.50714396  0.34575673  0.81969818  1
  In  In26  1  0.64238632  0.66502441  0.66477383  1
  In  In27  1  0.66263413  0.50662393  0.83712849  1
  In  In28  1  0.48054872  0.67762725  0.16673859  1
  In  In29  1  0.66827842  0.82385084  0.14759618  1
  In  In30  1  0.17440121  0.69524877  0.85050832  1
  In  In31  1  0.31744338  0.48702849  0.85873665  1
  In  In32  1  0.31684112  0.18328440  0.14620278  1
  In  In33  1  0.84178793  0.34806779  0.85638813  1
  In  In34  1  0.82973379  0.47050761  0.32163420  1
  In  In35  1  0.34031499  0.15631535  0.83971259  1
  In  In36  1  0.84686320  0.16101154  0.34994626  1
  In  In37  1  0.83891913  0.17258114  -0.01541138  1
  In  In38  1  0.17515278  0.45732519  0.29144939  1
  In  In39  1  0.86552412  0.80524355  0.31337728  1
  In  In40  1  0.18882780  -0.00259764  0.83803067  1
  In  In41  1  -0.01873980  0.66814756  0.31854860  1
  In  In42  1  0.82109408  0.64959221  0.49213157  1
  In  In43  1  0.66764286  0.49361845  0.16844308  1
  In  In44  1  0.83284925  0.33669798  0.16158154  1
  In  In45  1  0.32852399  0.50709496  0.50223560  1
  In  In46  1  0.35379670  0.87197294  0.50430205  1
  In  In47  1  0.63478852  0.15818437  0.17257750  1
  In  In48  1  0.32099024  -0.00764586  0.01515182  1
  In  In49  1  0.01355839  0.85670551  0.50059031  1
  In  In50  1  0.82753093  0.01671863  0.51005841  1
  In  In51  1  0.17949706  0.31165856  0.47482861  1
  In  In52  1  0.14675001  0.49548552  0.68564670  1
  In  In53  1  0.02376287  -0.00280135  0.33022152  1
  In  In54  1  0.50005349  0.19507833  -0.00085546  1
  In  In55  1  0.50242952  0.01164600  0.80801679  1
  In  In56  1  0.17326535  0.02195530  0.50185405  1
  In  In57  1  0.33821327  0.67019300  0.33662426  1
  In  In58  1  0.16936712  0.84066926  0.33134121  1
  In  In59  1  0.46041947  0.48197653  0.02012474  1
  In  In60  1  0.18603043  0.16660504  0.31479600  1
  In  In61  1  0.33890305  0.32828146  0.67290762  1
  In  In62  1  0.01285295  0.17958075  0.84425129  1
  In  In63  1  0.83346296  0.63707013  0.83246354  1
  In  In64  1  0.64558977  0.82092948  0.50250775  1
  In  In65  1  0.49438186  0.82313788  0.00786881  1
  In  In66  1  0.01255007  0.30884335  0.32100874  1
  In  In67  1  0.18395756  0.65758719  0.52143805  1
  In  In68  1  0.04920174  0.02930701  0.02889607  1
  In  In69  1  -0.00250199  0.50159291  0.83294987  1
  In  In70  1  0.49850281  0.49237354  0.33150097  1
  In  In71  1  0.01433143  0.86140119  0.84017595  1
  Te  Te72  1  0.11017521  0.11849243  0.12807814  1
  Te  Te73  1  0.07908939  0.10631975  0.41642658  1
  Te  Te74  1  0.08830290  0.08071489  0.75613696  1
  Te  Te75  1  0.12369349  0.45150583  0.08775055  1
  Te  Te76  1  0.08661442  0.41332653  0.41061564  1
  Te  Te77  1  0.08441637  0.38934212  0.77607925  1
  Te  Te78  1  0.09284116  0.75089176  0.07233055  1
  Te  Te79  1  0.08064282  0.74725095  0.41596434  1
  Te  Te80  1  0.10201372  0.77726488  0.74377925  1
  Te  Te81  1  0.42306040  0.09133685  0.07682180  1
  Te  Te82  1  0.45219125  0.02886756  0.45195923  1
  Te  Te83  1  0.39069264  0.07061592  0.72738939  1
  Te  Te84  1  0.38277799  0.38120389  0.10760658  1
  Te  Te85  1  0.40517794  0.40771368  0.41650814  1
  Te  Te86  1  0.41225464  0.43985320  0.74567989  1
  Te  Te87  1  0.38472638  0.74746911  0.07614663  1
  Te  Te88  1  0.42237156  0.75474919  0.42798058  1
  Te  Te89  1  0.43113124  0.75231923  0.76165586  1
  Te  Te90  1  0.75102826  0.08230508  0.08162273  1
  Te  Te91  1  0.73016032  0.08971029  0.41821612  1
  Te  Te92  1  0.74382408  0.07060166  0.73927465  1
  Te  Te93  1  0.75286345  0.42203254  0.07145921  1
  Te  Te94  1  0.76411153  0.38749466  0.43185862  1
  Te  Te95  1  0.74546799  0.40781161  0.75379262  1
  Te  Te96  1  0.73384298  0.72900540  0.05483115  1
  Te  Te97  1  0.74511137  0.75054784  0.40518402  1
  Te  Te98  1  0.74464327  0.74717144  0.76921034  1
  Te  Te99  1  0.10572495  0.24931643  0.21594202  1
  Te  Te100  1  0.08379451  0.25255980  0.58205900  1
  Te  Te101  1  0.09800142  0.23679567  0.94946017  1
  Te  Te102  1  0.09049067  0.58285125  0.25165714  1
  Te  Te103  1  0.07017983  0.57473968  0.57817902  1
  Te  Te104  1  0.10028934  0.57915082  0.91539314  1
  Te  Te105  1  0.12004152  0.94734745  0.22335845  1
  Te  Te106  1  0.10757361  0.92236233  0.59056879  1
  Te  Te107  1  0.11118465  0.91704315  0.94349871  1
  Te  Te108  1  0.41015925  0.27365161  0.22642128  1
  Te  Te109  1  0.39501856  0.24012569  0.56669649  1
  Te  Te110  1  0.40600935  0.27502437  0.91121712  1
  Te  Te111  1  0.40095679  0.56902122  0.24180983  1
  Te  Te112  1  0.42168621  0.58418970  0.58531219  1
  Te  Te113  1  0.40005398  0.58472921  0.93146236  1
  Te  Te114  1  0.36442181  0.92730705  0.22599604  1
  Te  Te115  1  0.44457858  0.96067618  0.58502592  1
  Te  Te116  1  0.42680212  0.93174150  0.91468583  1
  Te  Te117  1  0.75149893  0.23976884  0.24949977  1
  Te  Te118  1  0.72931361  0.24602325  0.56680360  1
  Te  Te119  1  0.73233890  0.26776080  0.93051874  1
  Te  Te120  1  0.76200240  0.58633323  0.24593070  1
  Te  Te121  1  0.73764155  0.57056266  0.59048206  1
  Te  Te122  1  0.75675168  0.56762768  0.93617508  1
  Te  Te123  1  0.74933379  0.91142504  0.24695261  1
  Te  Te124  1  0.75067229  0.90564024  0.58566553  1
  Te  Te125  1  0.74900372  0.91656810  0.93116601  1
  Te  Te126  1  0.26755585  0.29439009  0.05216494  1
  Te  Te127  1  0.28285743  0.22549580  0.41334425  1
  Te  Te128  1  0.24724114  0.26297482  0.77517343  1
  Te  Te129  1  0.25539860  0.53541018  0.07190309  1
  Te  Te130  1  0.23369612  0.57473020  0.40082526  1
  Te  Te131  1  0.24298167  0.59336715  0.75165154  1
  Te  Te132  1  0.25126946  0.91500616  0.11888645  1
  Te  Te133  1  0.25831888  0.93934930  0.40487227  1
  Te  Te134  1  0.27930658  0.93634010  0.73775101  1
  Te  Te135  1  0.58984778  0.27050203  0.08837737  1
  Te  Te136  1  0.56330202  0.23480894  0.38986360  1
  Te  Te137  1  0.54984236  0.22546126  0.73517861  1
  Te  Te138  1  0.56603543  0.57755300  0.09033447  1
  Te  Te139  1  0.55927775  0.58787995  0.43803604  1
  Te  Te140  1  0.56432212  0.58771777  0.76229954  1
  Te  Te141  1  0.55010237  0.91841507  0.11873904  1
  Te  Te142  1  0.57557428  0.91893315  0.40793875  1
  Te  Te143  1  0.58473307  0.91062195  0.72805331  1
  Te  Te144  1  0.92800452  0.24933075  0.07875168  1
  Te  Te145  1  0.92426034  0.25841320  0.42830464  1
  Te  Te146  1  0.90082998  0.24327709  0.75980291  1
  Te  Te147  1  0.92150645  0.58439699  0.11729588  1
  Te  Te148  1  0.91600059  0.56362867  0.41008730  1
  Te  Te149  1  0.90391749  0.55550342  0.72093385  1
  Te  Te150  1  0.93648506  0.91409653  0.08055997  1
  Te  Te151  1  0.90559897  0.92444084  0.40523556  1
  Te  Te152  1  0.93582991  0.92644531  0.72381589  1
  Te  Te153  1  0.29906145  0.08301824  0.25918649  1
  Te  Te154  1  0.27058432  0.11210328  0.57153873  1
  Te  Te155  1  0.24109752  0.09912910  0.93989554  1
  Te  Te156  1  0.28478401  0.36679081  0.24265239  1
  Te  Te157  1  0.23452783  0.41536011  0.58725251  1
  Te  Te158  1  0.22688201  0.41748355  0.95874203  1
  Te  Te159  1  0.24404563  0.74231561  0.24214836  1
  Te  Te160  1  0.25546521  0.77451566  0.58012074  1
  Te  Te161  1  0.26889072  0.75541864  0.94820113  1
  Te  Te162  1  0.53197574  0.10402012  0.26520804  1
  Te  Te163  1  0.55008927  0.10530712  0.54697844  1
  Te  Te164  1  0.59591876  0.08793594  0.91131679  1
  Te  Te165  1  0.56543513  0.39927206  0.23023965  1
  Te  Te166  1  0.56811529  0.41990274  0.59281679  1
  Te  Te167  1  0.57386814  0.42197406  0.93125535  1
  Te  Te168  1  0.57510472  0.75506966  0.26088795  1
  Te  Te169  1  0.55038228  0.75738864  0.59420098  1
  Te  Te170  1  0.58283610  0.72964524  0.93375675  1
  Te  Te171  1  0.93742067  0.09398399  0.24549327  1
  Te  Te172  1  0.93704617  0.08392218  0.58089668  1
  Te  Te173  1  0.92802967  0.06378971  0.92068610  1
  Te  Te174  1  0.94179076  0.41531560  0.23472338  1
  Te  Te175  1  0.90257682  0.44354864  0.60429369  1
  Te  Te176  1  0.92319284  0.43644330  0.94953721  1
  Te  Te177  1  0.90639059  0.72287481  0.18812794  1
  Te  Te178  1  0.92145717  0.74021150  0.57092097  1
  Te  Te179  1  0.93317049  0.74272788  0.89403180  1
