# generated using pymatgen
data_In2Te3
_symmetry_space_group_name_H-M   'P 1'
_cell_length_a   18.88992379
_cell_length_b   18.88385258
_cell_length_c   18.88987320
_cell_angle_alpha   90.05072078
_cell_angle_beta   89.97572845
_cell_angle_gamma   89.92054274
_symmetry_Int_Tables_number   1
_chemical_formula_structural   In2Te3
_chemical_formula_sum   'In72 Te108'
_cell_volume   6738.28262636
_cell_formula_units_Z   36
loop_
 _symmetry_equiv_pos_site_id
 _symmetry_equiv_pos_as_xyz
  1  'x, y, z'
loop_
 _atom_site_type_symbol
 _atom_site_label
 _atom_site_symmetry_multiplicity
 _atom_site_fract_x
 _atom_site_fract_y
 _atom_site_fract_z
 _atom_site_occupancy
  In  In0  1  0.84912461  0.66665590  0.17339393  1
  In  In1  1  0.31633090  0.65235108  0.66613425  1
  In  In2  1  0.83309520  0.16291069  -0.00358361  1
  In  In3  1  0.00798392  0.81850616  0.15945223  1
  In  In4  1  0.32537524  0.83253586  0.18731660  1
  In  In5  1  0.34224426  0.17077246  0.16141884  1
  In  In6  1  0.84033972  0.85138132  0.03085765  1
  In  In7  1  0.68825759  -0.03248759  0.31284212  1
  In  In8  1  0.17972018  0.16199729  0.32971840  1
  In  In9  1  0.52314727  0.83852169  0.66643116  1
  In  In10  1  0.82949909  -0.00323512  0.48551246  1
  In  In11  1  0.35197909  0.32288269  0.66823347  1
  In  In12  1  0.14434980  -0.00476967  0.85559407  1
  In  In13  1  0.51127075  0.00573907  0.47906991  1
  In  In14  1  0.69015865  0.49809054  0.14015647  1
  In  In15  1  0.35661695  0.18394404  0.81774019  1
  In  In16  1  0.32503975  0.32407341  0.31922941  1
  In  In17  1  0.30420491  -0.01610620  0.67721243  1
  In  In18  1  0.68168029  0.68376880  0.64755782  1
  In  In19  1  0.49591400  0.51476825  -0.00523515  1
  In  In20  1  0.64621511  0.50316128  0.85036843  1
  In  In21  1  0.83646927  0.65566071  0.81460597  1
  In  In22  1  0.28852926  0.51114361  0.47696047  1
  In  In23  1  0.46745459  0.67804833  0.86441622  1
  In  In24  1  0.84599242  0.67668119  0.47501127  1
  In  In25  1  -0.00370385  0.34303012  0.00313440  1
  In  In26  1  0.67114033  0.16452357  0.18092102  1
  In  In27  1  0.81123620  0.35412486  0.90906734  1
  In  In28  1  0.50755539  -0.02165077  0.83883569  1
  In  In29  1  0.15652521  0.52741828  0.34445383  1
  In  In30  1  -0.00110354  0.65962840  0.01753095  1
  In  In31  1  0.16046285  -0.03772100  0.49069192  1
  In  In32  1  0.66482605  0.70444712  0.32271191  1
  In  In33  1  0.17675284  0.16045710  0.67352299  1
  In  In34  1  0.52304731  0.15380375  0.64424899  1
  In  In35  1  0.85120306  0.51704849  0.68507735  1
  In  In36  1  0.32017860  0.01189698  0.01442120  1
  In  In37  1  -0.01433251  -0.01737688  0.32685283  1
  In  In38  1  0.52541572  0.51531379  0.65319476  1
  In  In39  1  0.14599840  0.84181684  0.66796096  1
  In  In40  1  0.49188968  0.69035374  0.49651450  1
  In  In41  1  0.68720733  0.30653658  0.68136916  1
  In  In42  1  0.48929737  0.83105937  0.03150328  1
  In  In43  1  0.66547110  0.67997905  -0.00183857  1
  In  In44  1  0.65107980  -0.00131696  0.01029426  1
  In  In45  1  0.66181177  0.32654015  0.33024860  1
  In  In46  1  0.14543860  0.69541108  0.47321903  1
  In  In47  1  -0.01163481  0.17066011  0.50070513  1
  In  In48  1  0.83769069  0.32614153  0.48689390  1
  In  In49  1  0.82477330  0.00065790  0.83631283  1
  In  In50  1  0.83845597  0.83572298  0.63645503  1
  In  In51  1  0.17099010  0.49872854  0.68337733  1
  In  In52  1  0.16795711  0.17513140  0.01278246  1
  In  In53  1  0.49969059  0.34644359  0.85853760  1
  In  In54  1  -0.01437340  0.15539072  0.18115385  1
  In  In55  1  0.82829993  0.14290415  0.66701897  1
  In  In56  1  0.51046754  0.52277219  0.31505522  1
  In  In57  1  0.01630439  0.51191550  0.18505241  1
  In  In58  1  0.49707395  0.16730700  0.01665148  1
  In  In59  1  0.00577280  0.34247073  0.31585673  1
  In  In60  1  0.01459497  0.33580889  0.67707761  1
  In  In61  1  -0.00840515  0.83252778  0.84300571  1
  In  In62  1  0.35003622  0.83314968  0.47768047  1
  In  In63  1  0.32250298  0.51592507  0.15742242  1
  In  In64  1  0.16776503  0.51054786  0.00797180  1
  In  In65  1  0.17245193  -0.00309818  0.16552811  1
  In  In66  1  0.48276475  0.15804283  0.33389527  1
  In  In67  1  0.66389018  0.47206542  0.49515722  1
  In  In68  1  0.32863006  0.51201453  0.84617702  1
  In  In69  1  0.48445045  0.32162436  0.46955359  1
  In  In70  1  0.00433464  0.51670939  0.48654171  1
  In  In71  1  -0.01293425  0.15977653  0.82003396  1
  Te  Te72  1  0.07508652  0.07835492  0.08269239  1
  Te  Te73  1  0.07916971  0.07919231  0.41203624  1
  Te  Te74  1  0.07715159  0.06612106  0.73855650  1
  Te  Te75  1  0.09164212  0.41205351  0.09833738  1
  Te  Te76  1  0.09138616  0.40997549  0.42169957  1
  Te  Te77  1  0.08487061  0.42010443  0.77391682  1
  Te  Te78  1  0.10911049  0.73463407  0.08600696  1
  Te  Te79  1  0.03513718  0.72334706  0.37656215  1
  Te  Te80  1  0.08026073  0.74797671  0.75953024  1
  Te  Te81  1  0.43236027  0.06031956  0.10314285  1
  Te  Te82  1  0.39658515  0.07184772  0.41588646  1
  Te  Te83  1  0.41794944  0.07126964  0.73596467  1
  Te  Te84  1  0.41167628  0.42777063  0.07718255  1
  Te  Te85  1  0.41187761  0.43926610  0.40731926  1
  Te  Te86  1  0.42823411  0.43625277  0.75084149  1
  Te  Te87  1  0.40748956  0.73394473  0.10888557  1
  Te  Te88  1  0.43936449  0.76289389  0.37483189  1
  Te  Te89  1  0.42195761  0.74221249  0.72936625  1
  Te  Te90  1  0.75597952  0.07309432  0.09073866  1
  Te  Te91  1  0.76480189  0.07846026  0.37912258  1
  Te  Te92  1  0.73235759  0.09504926  0.76835226  1
  Te  Te93  1  0.76005023  0.41273759  0.03974430  1
  Te  Te94  1  0.76540652  0.42368054  0.39579115  1
  Te  Te95  1  0.73948412  0.43024642  0.75051275  1
  Te  Te96  1  0.73827207  0.75706533  0.10934159  1
  Te  Te97  1  0.75778546  0.77650039  0.41172981  1
  Te  Te98  1  0.75492434  0.76557179  0.75076812  1
  Te  Te99  1  0.09502092  0.24607726  0.23603750  1
  Te  Te100  1  0.09205032  0.24864594  0.58011992  1
  Te  Te101  1  0.07410805  0.24311901  0.91432058  1
  Te  Te102  1  0.07758911  0.62728522  0.26207708  1
  Te  Te103  1  0.10431144  0.58889342  0.57428253  1
  Te  Te104  1  0.07667234  0.58414169  0.91785577  1
  Te  Te105  1  0.09470874  0.90433409  0.25562989  1
  Te  Te106  1  0.05723022  0.88232638  0.55697315  1
  Te  Te107  1  0.07562394  0.90099448  0.94328682  1
  Te  Te108  1  0.43667700  0.26606945  0.23659604  1
  Te  Te109  1  0.41312869  0.22706199  0.56723747  1
  Te  Te110  1  0.40326691  0.26154366  0.93888818  1
  Te  Te111  1  0.41996702  0.60340584  0.23036619  1
  Te  Te112  1  0.41130966  0.57698766  0.56968625  1
  Te  Te113  1  0.36723778  0.60418043  0.96780485  1
  Te  Te114  1  0.44578850  0.88536120  0.26079520  1
  Te  Te115  1  0.41295856  0.91661427  0.59015245  1
  Te  Te116  1  0.40447497  0.91534655  0.92720618  1
  Te  Te117  1  0.75934087  0.26884039  0.23746778  1
  Te  Te118  1  0.74972059  0.23080633  0.56581297  1
  Te  Te119  1  0.74442179  0.22425359  0.89415513  1
  Te  Te120  1  0.74045737  0.59313651  0.25227426  1
  Te  Te121  1  0.75345314  0.56985073  0.57643482  1
  Te  Te122  1  0.75393887  0.58280739  0.92169644  1
  Te  Te123  1  0.74226380  0.88531519  0.20115369  1
  Te  Te124  1  0.73964592  0.93617697  0.58814695  1
  Te  Te125  1  0.74440745  0.90922213  0.92833594  1
  Te  Te126  1  0.24897440  0.26291125  0.09616439  1
  Te  Te127  1  0.25249815  0.25078357  0.42180333  1
  Te  Te128  1  0.24310418  0.26735347  0.75991686  1
  Te  Te129  1  0.21020258  0.60821755  0.11529947  1
  Te  Te130  1  0.26562421  0.63387666  0.38738359  1
  Te  Te131  1  0.22835339  0.60546558  0.77929396  1
  Te  Te132  1  0.24019649  0.89814665  0.07141717  1
  Te  Te133  1  0.24401126  0.89098612  0.38704894  1
  Te  Te134  1  0.23796450  0.89781390  0.78036909  1
  Te  Te135  1  0.59183495  0.25072772  0.08998193  1
  Te  Te136  1  0.59119525  0.22682154  0.42088301  1
  Te  Te137  1  0.56494507  0.25310688  0.75413537  1
  Te  Te138  1  0.58111890  0.59573975  0.09110663  1
  Te  Te139  1  0.59334741  0.58965071  0.42806310  1
  Te  Te140  1  0.59268501  0.60911938  0.75243478  1
  Te  Te141  1  0.59626902  0.90155037  0.11031509  1
  Te  Te142  1  0.58400638  0.90464844  0.39932807  1
  Te  Te143  1  0.60973310  0.91737037  0.75415147  1
  Te  Te144  1  0.90952354  0.25336793  0.09189998  1
  Te  Te145  1  0.91549171  0.24081882  0.38857535  1
  Te  Te146  1  0.90164091  0.25703026  0.74082653  1
  Te  Te147  1  0.90771231  0.55899344  0.08508127  1
  Te  Te148  1  0.90897969  0.57336062  0.39069942  1
  Te  Te149  1  0.95591823  0.59974508  0.74713534  1
  Te  Te150  1  0.92216293  0.93348954  0.11976503  1
  Te  Te151  1  0.91298789  0.89289473  0.41921769  1
  Te  Te152  1  0.91383792  0.91827175  0.74554140  1
  Te  Te153  1  0.27334464  0.06950632  0.25262239  1
  Te  Te154  1  0.23990527  0.06825199  0.56894103  1
  Te  Te155  1  0.25708463  0.09554662  0.90211757  1
  Te  Te156  1  0.24050821  0.43229849  0.25743396  1
  Te  Te157  1  0.25505278  0.41198715  0.58939446  1
  Te  Te158  1  0.25738121  0.41801562  0.93206813  1
  Te  Te159  1  0.24157786  0.76338510  0.28997438  1
  Te  Te160  1  0.25135498  0.75683973  0.57597361  1
  Te  Te161  1  0.34074609  0.74016813  0.91017629  1
  Te  Te162  1  0.58225795  0.07143989  0.26030722  1
  Te  Te163  1  0.61172065  0.05647088  0.57721369  1
  Te  Te164  1  0.57755654  0.09107813  0.91218951  1
  Te  Te165  1  0.59146558  0.42348730  0.23455305  1
  Te  Te166  1  0.57647871  0.38590779  0.58537868  1
  Te  Te167  1  0.60148698  0.40151572  0.95486992  1
  Te  Te168  1  0.55287881  0.77257849  0.25198092  1
  Te  Te169  1  0.60453550  0.77521478  0.55395333  1
  Te  Te170  1  0.57725523  0.76980267  0.91522448  1
  Te  Te171  1  0.88812374  0.07461342  0.26070246  1
  Te  Te172  1  0.92964252  0.06408294  0.58775036  1
  Te  Te173  1  0.92888039  0.06731075  0.92546143  1
  Te  Te174  1  0.91097606  0.42420535  0.23953928  1
  Te  Te175  1  0.91787865  0.41739944  0.58018489  1
  Te  Te176  1  0.93729113  0.42668260  0.89575358  1
  Te  Te177  1  0.91911959  0.75992486  0.26706274  1
  Te  Te178  1  0.92255883  0.72390108  0.59095268  1
  Te  Te179  1  0.89519890  0.74305533  0.93647795  1
