# generated using pymatgen
data_In2Te3
_symmetry_space_group_name_H-M   'P 1'
_cell_length_a   18.86353474
_cell_length_b   18.84369221
_cell_length_c   18.85454859
_cell_angle_alpha   90.07792889
_cell_angle_beta   90.05677813
_cell_angle_gamma   90.11385317
_symmetry_Int_Tables_number   1
_chemical_formula_structural   In2Te3
_chemical_formula_sum   'In72 Te108'
_cell_volume   6701.98950901
_cell_formula_units_Z   36
loop_
 _symmetry_equiv_pos_site_id
 _symmetry_equiv_pos_as_xyz
  1  'x, y, z'
loop_
 _atom_site_type_symbol
 _atom_site_label
 _atom_site_symmetry_multiplicity
 _atom_site_fract_x
 _atom_site_fract_y
 _atom_site_fract_z
 _atom_site_occupancy
  In  In0  1  0.48713408  0.49068791  -0.00683509  1
  In  In1  1  0.83667340  0.65772983  0.51570804  1
  In  In2  1  0.66714447  0.67570717  -0.00839703  1
  In  In3  1  0.00188308  0.64551322  0.01008855  1
  In  In4  1  0.81952442  0.46700533  0.66597753  1
  In  In5  1  0.82812476  0.50952946  0.32389162  1
  In  In6  1  0.84213164  0.50870392  -0.00456876  1
  In  In7  1  0.32554251  0.14109873  0.50720546  1
  In  In8  1  0.52541571  0.53212982  0.69264248  1
  In  In9  1  0.01428041  0.63258038  0.31681222  1
  In  In10  1  0.14743559  -0.01225353  0.16501460  1
  In  In11  1  0.34066479  0.83321823  0.84756402  1
  In  In12  1  0.48646998  -0.01082044  0.50089307  1
  In  In13  1  0.15581169  0.35448550  0.50175750  1
  In  In14  1  0.67997088  0.15970005  0.18506305  1
  In  In15  1  0.01265932  0.81867487  0.49415630  1
  In  In16  1  0.82841015  0.82266180  -0.01314136  1
  In  In17  1  0.48032772  0.15612606  -0.01270547  1
  In  In18  1  0.85231153  0.19868421  0.68152991  1
  In  In19  1  0.67395909  0.51540226  0.16675699  1
  In  In20  1  0.32606649  -0.03318224  0.34138786  1
  In  In21  1  0.33786777  0.18116508  0.15528460  1
  In  In22  1  0.31048340  0.33317777  0.66320711  1
  In  In23  1  0.64278490  0.53147279  0.48520916  1
  In  In24  1  0.66088677  0.33762327  -0.02068188  1
  In  In25  1  -0.00214405  0.00363198  -0.01334694  1
  In  In26  1  -0.01100872  0.17884844  0.15353077  1
  In  In27  1  0.01913527  0.39061117  0.31262922  1
  In  In28  1  0.15818080  0.49096324  0.66507824  1
  In  In29  1  0.50612370  0.73779990  0.31393164  1
  In  In30  1  0.81348433  0.03218073  0.50972155  1
  In  In31  1  0.66671908  -0.01669101  0.67407698  1
  In  In32  1  0.00347222  0.81191060  0.17762622  1
  In  In33  1  0.33277553  0.00537754  0.64502416  1
  In  In34  1  0.02333976  0.19250957  0.84955028  1
  In  In35  1  0.16676210  0.01912769  0.83924498  1
  In  In36  1  0.51310110  0.31597635  0.82383393  1
  In  In37  1  -0.01060426  0.19030552  0.50018562  1
  In  In38  1  0.32583151  0.19019857  0.83234651  1
  In  In39  1  0.32296554  0.64555237  0.36059674  1
  In  In40  1  0.16630377  0.81286050  0.66465361  1
  In  In41  1  0.80697688  -0.01657952  0.16303525  1
  In  In42  1  0.85762347  0.18783781  0.01046191  1
  In  In43  1  0.14571874  0.84294840  -0.01538498  1
  In  In44  1  0.68106170  0.18853973  0.53119427  1
  In  In45  1  0.00424400  -0.01886709  0.31582429  1
  In  In46  1  0.16515010  -0.00924568  0.51887593  1
  In  In47  1  0.81599827  0.84469022  0.33615084  1
  In  In48  1  0.81861217  0.69898103  0.82346629  1
  In  In49  1  0.68998108  -0.02195663  0.30948853  1
  In  In50  1  0.00162155  0.49804239  0.84039124  1
  In  In51  1  0.17896061  0.16850745  0.34586412  1
  In  In52  1  0.47647423  0.35646388  0.50232633  1
  In  In53  1  0.66705139  0.17291053  0.83005803  1
  In  In54  1  0.68498039  0.32834716  0.33048598  1
  In  In55  1  0.14060375  0.37533235  0.17353685  1
  In  In56  1  0.48949850  -0.03251533  0.83397238  1
  In  In57  1  0.33639650  -0.00975940  -0.02471001  1
  In  In58  1  0.34182301  0.79141783  0.19546890  1
  In  In59  1  0.01189428  0.65764731  0.68155332  1
  In  In60  1  0.31727168  0.37679734  0.32149377  1
  In  In61  1  0.32261971  0.48581802  0.84129457  1
  In  In62  1  0.52175867  0.18367643  0.69971358  1
  In  In63  1  0.64628604  0.81712857  0.51255069  1
  In  In64  1  0.53830280  0.16403116  0.30989127  1
  In  In65  1  0.32323875  0.65475152  0.02292850  1
  In  In66  1  0.50989555  0.34256714  0.15585308  1
  In  In67  1  0.85364470  0.18975073  0.34867768  1
  In  In68  1  0.67027203  -0.04936678  -0.00466070  1
  In  In69  1  0.50267886  0.83000181  0.67038606  1
  In  In70  1  0.28860370  0.39306090  0.02258902  1
  In  In71  1  0.32533484  0.65540145  0.64856356  1
  Te  Te72  1  0.08678624  0.09287248  0.07317380  1
  Te  Te73  1  0.07809407  0.07838004  0.41651402  1
  Te  Te74  1  0.07290635  0.09060033  0.75302659  1
  Te  Te75  1  0.08617041  0.47744747  0.07357051  1
  Te  Te76  1  0.11262447  0.46424736  0.40884088  1
  Te  Te77  1  0.05203684  0.40736157  0.73005209  1
  Te  Te78  1  0.09926142  0.73833469  0.08685079  1
  Te  Te79  1  0.08615987  0.72686090  0.40651927  1
  Te  Te80  1  0.09460429  0.74179524  0.77109807  1
  Te  Te81  1  0.41300171  0.06712496  0.08957969  1
  Te  Te82  1  0.42127274  0.08656832  0.40058094  1
  Te  Te83  1  0.41441915  0.08031895  0.75884949  1
  Te  Te84  1  0.40595622  0.44262047  0.11358726  1
  Te  Te85  1  0.42896477  0.44260504  0.39277779  1
  Te  Te86  1  0.41861486  0.41107068  0.74198629  1
  Te  Te87  1  0.42819850  0.73130120  0.09240566  1
  Te  Te88  1  0.41097616  0.74600288  0.42659100  1
  Te  Te89  1  0.40812293  0.74048914  0.75027862  1
  Te  Te90  1  0.74933298  0.08762680  0.06571035  1
  Te  Te91  1  0.73408795  0.10047459  0.39894892  1
  Te  Te92  1  0.75539970  0.08901779  0.73788376  1
  Te  Te93  1  0.74626143  0.41420844  0.07815908  1
  Te  Te94  1  0.74321896  0.43128736  0.42497556  1
  Te  Te95  1  0.73723002  0.39945792  0.76637105  1
  Te  Te96  1  0.78197150  0.71669265  0.08087840  1
  Te  Te97  1  0.74561449  0.74185405  0.42520342  1
  Te  Te98  1  0.74148961  0.76424465  0.71377411  1
  Te  Te99  1  0.08092509  0.24768798  0.26128256  1
  Te  Te100  1  0.08969235  0.25497963  0.58596615  1
  Te  Te101  1  0.11770710  0.27324248  0.92830505  1
  Te  Te102  1  0.08677488  0.55180357  0.21186877  1
  Te  Te103  1  0.08775482  0.58638728  0.57545688  1
  Te  Te104  1  0.10106429  0.57184149  0.92490605  1
  Te  Te105  1  0.10860885  0.88297646  0.26837548  1
  Te  Te106  1  0.06727813  0.91340684  0.60550351  1
  Te  Te107  1  0.05986913  0.91445160  0.88040378  1
  Te  Te108  1  0.42206238  0.25876260  0.25654879  1
  Te  Te109  1  0.41740268  0.23804138  0.59361256  1
  Te  Te110  1  0.40865722  0.27818256  0.93316460  1
  Te  Te111  1  0.44484911  0.60082139  0.27764672  1
  Te  Te112  1  0.44402357  0.59239038  0.58315084  1
  Te  Te113  1  0.40951208  0.59073965  0.91009682  1
  Te  Te114  1  0.42853018  0.89082623  0.26679616  1
  Te  Te115  1  0.39769001  0.88851612  0.57238189  1
  Te  Te116  1  0.44218948  0.88240801  0.95084625  1
  Te  Te117  1  0.78212414  0.26230490  0.23300683  1
  Te  Te118  1  0.79589357  0.28062882  0.56521937  1
  Te  Te119  1  0.76776421  0.25933865  0.90585021  1
  Te  Te120  1  0.72854493  0.61103916  0.27045850  1
  Te  Te121  1  0.73588448  0.58010284  0.59743141  1
  Te  Te122  1  0.74963231  0.58230489  0.90135634  1
  Te  Te123  1  0.71698113  0.85971947  0.20722989  1
  Te  Te124  1  0.75647585  0.90845767  0.57677304  1
  Te  Te125  1  0.77961162  0.93397849  0.89790871  1
  Te  Te126  1  0.23136163  0.27074466  0.09975732  1
  Te  Te127  1  0.26837602  0.26462075  0.42400661  1
  Te  Te128  1  0.22044599  0.26524594  0.75966753  1
  Te  Te129  1  0.23430155  0.53519807  0.05019036  1
  Te  Te130  1  0.24396086  0.54538208  0.44126835  1
  Te  Te131  1  0.24182252  0.58122540  0.75508329  1
  Te  Te132  1  0.24694583  0.91349565  0.07665134  1
  Te  Te133  1  0.24061043  0.89591264  0.43633649  1
  Te  Te134  1  0.25776363  0.92263953  0.75383770  1
  Te  Te135  1  0.58622599  0.23466424  0.07892772  1
  Te  Te136  1  0.58245057  0.25878523  0.42830264  1
  Te  Te137  1  0.63556286  0.28930763  0.72408007  1
  Te  Te138  1  0.57423632  0.58577603  0.07599816  1
  Te  Te139  1  0.55528007  0.60865975  0.39007668  1
  Te  Te140  1  0.59382502  0.62455728  0.78636807  1
  Te  Te141  1  0.58887445  0.90960591  0.10567999  1
  Te  Te142  1  0.59039941  0.92032471  0.41469097  1
  Te  Te143  1  0.60501565  0.88594173  0.77429713  1
  Te  Te144  1  0.95416142  0.29007602  0.06088076  1
  Te  Te145  1  0.93412020  0.30183295  0.41120078  1
  Te  Te146  1  0.94425767  0.28689970  0.75904989  1
  Te  Te147  1  0.89374093  0.59987703  0.10334141  1
  Te  Te148  1  0.92247037  0.57008303  0.42787370  1
  Te  Te149  1  0.90224889  0.57605608  0.75188741  1
  Te  Te150  1  0.92699774  0.91277223  0.08979975  1
  Te  Te151  1  0.90959478  0.92973567  0.42476752  1
  Te  Te152  1  0.84811652  0.84471134  0.77481490  1
  Te  Te153  1  0.24978727  0.07695386  0.24690559  1
  Te  Te154  1  0.22074297  0.10276338  0.60888868  1
  Te  Te155  1  0.24821042  0.10680886  0.93467893  1
  Te  Te156  1  0.23456130  0.47213871  0.24327438  1
  Te  Te157  1  0.27446225  0.44390025  0.56362612  1
  Te  Te158  1  0.21134869  0.39142544  0.88904533  1
  Te  Te159  1  0.23736534  0.71164463  0.25787185  1
  Te  Te160  1  0.21611440  0.71421015  0.56580587  1
  Te  Te161  1  0.24440820  0.74435760  0.92282169  1
  Te  Te162  1  0.58072930  0.04709011  0.21927113  1
  Te  Te163  1  0.57595866  0.07908792  0.58820749  1
  Te  Te164  1  0.58152880  0.07260281  0.90974019  1
  Te  Te165  1  0.59030587  0.42229491  0.25710715  1
  Te  Te166  1  0.57958003  0.43094927  0.58367925  1
  Te  Te167  1  0.58603223  0.43496293  0.89135067  1
  Te  Te168  1  0.63141490  0.72996658  0.23395100  1
  Te  Te169  1  0.56351940  0.72022729  0.58889775  1
  Te  Te170  1  0.59261445  0.74359965  0.88424182  1
  Te  Te171  1  0.90693610  0.07864764  0.24673920  1
  Te  Te172  1  0.92353637  0.08921226  0.59523844  1
  Te  Te173  1  0.91144811  0.09401020  0.90321527  1
  Te  Te174  1  0.90707858  0.43104896  0.22691103  1
  Te  Te175  1  0.90591732  0.39175628  0.57405144  1
  Te  Te176  1  0.92829414  0.40545225  0.93236922  1
  Te  Te177  1  0.91025910  0.74263139  0.27390770  1
  Te  Te178  1  0.92303891  0.75241962  0.59738653  1
  Te  Te179  1  0.93837814  0.74515391  0.91506729  1
