# generated using pymatgen
data_In2Te3
_symmetry_space_group_name_H-M   'P 1'
_cell_length_a   18.99497651
_cell_length_b   18.97857894
_cell_length_c   18.99944275
_cell_angle_alpha   90.04080308
_cell_angle_beta   90.00596318
_cell_angle_gamma   90.09710509
_symmetry_Int_Tables_number   1
_chemical_formula_structural   In2Te3
_chemical_formula_sum   'In72 Te108'
_cell_volume   6849.24306467
_cell_formula_units_Z   36
loop_
 _symmetry_equiv_pos_site_id
 _symmetry_equiv_pos_as_xyz
  1  'x, y, z'
loop_
 _atom_site_type_symbol
 _atom_site_label
 _atom_site_symmetry_multiplicity
 _atom_site_fract_x
 _atom_site_fract_y
 _atom_site_fract_z
 _atom_site_occupancy
  In  In0  1  0.13685819  0.83731697  0.33705957  1
  In  In1  1  0.69071329  0.51614079  0.83693749  1
  In  In2  1  0.85288443  0.31325283  0.83651174  1
  In  In3  1  0.15735104  0.16647621  0.00450307  1
  In  In4  1  -0.05401565  0.87064689  0.24101409  1
  In  In5  1  0.50654829  0.34182459  0.81752681  1
  In  In6  1  0.02066417  0.13320874  0.16462057  1
  In  In7  1  0.18072947  0.16025159  0.34597288  1
  In  In8  1  0.66443808  0.31520159  0.66218784  1
  In  In9  1  0.35045075  0.67438810  0.00764870  1
  In  In10  1  0.00730286  0.31692423  -0.00699658  1
  In  In11  1  0.17785556  0.51450281  -0.01577723  1
  In  In12  1  0.49056364  0.14145462  0.67672449  1
  In  In13  1  0.33923742  0.83168645  0.13824051  1
  In  In14  1  0.49945442  0.69195135  0.50801431  1
  In  In15  1  0.34185301  0.35859927  -0.00412572  1
  In  In16  1  0.16187778  0.51637432  0.66546703  1
  In  In17  1  0.49546864  0.47297178  0.64187454  1
  In  In18  1  0.32336783  0.83680002  0.52335565  1
  In  In19  1  0.67278167  0.16304772  0.16145184  1
  In  In20  1  0.34799483  0.51832138  0.47352302  1
  In  In21  1  0.16933078  0.02427976  0.51582878  1
  In  In22  1  0.84080274  0.66777866  0.85902247  1
  In  In23  1  0.16727744  0.85185174  -0.02202019  1
  In  In24  1  0.65603530  0.86406498  0.85926519  1
  In  In25  1  0.83086607  0.16356902  -0.00085152  1
  In  In26  1  -0.00995014  0.53643504  0.47743918  1
  In  In27  1  0.81580890  0.32043334  0.17834133  1
  In  In28  1  0.80546695  0.83545700  0.65715016  1
  In  In29  1  0.82704960  0.13215250  0.67663255  1
  In  In30  1  0.31604090  0.00217010  0.68040633  1
  In  In31  1  0.82624357  0.50560802  0.64290009  1
  In  In32  1  0.82593664  -0.01305910  0.86868957  1
  In  In33  1  -0.01653276  0.48750325  0.84120045  1
  In  In34  1  -0.02423520  0.31932421  0.66662919  1
  In  In35  1  0.29605816  0.68691022  0.66834337  1
  In  In36  1  0.18461401  0.34170358  0.16888967  1
  In  In37  1  0.67000518  0.82797701  0.48531047  1
  In  In38  1  0.36297591  0.19842903  0.47756115  1
  In  In39  1  0.67664391  0.82489445  0.17857447  1
  In  In40  1  0.52737970  0.19429293  0.32263359  1
  In  In41  1  0.32724384  0.65753257  0.34622493  1
  In  In42  1  0.53468324  0.51905873  0.01718093  1
  In  In43  1  0.51291933  0.01070792  0.16234417  1
  In  In44  1  0.14785938  0.68632750  0.18614209  1
  In  In45  1  0.85646702  0.67310095  0.49766134  1
  In  In46  1  0.01615814  0.52284687  0.17603892  1
  In  In47  1  -0.02577238  0.14125986  0.48337414  1
  In  In48  1  0.14643393  0.34311403  0.53321765  1
  In  In49  1  0.69150888  0.14435028  0.47412432  1
  In  In50  1  0.35378421  0.49973637  0.15844546  1
  In  In51  1  0.53651620  0.49007637  0.31056622  1
  In  In52  1  0.34670939  -0.00055553  0.00436078  1
  In  In53  1  0.47228743  0.67018127  0.82919249  1
  In  In54  1  0.62783757  0.68217371  0.67828171  1
  In  In55  1  0.31080183  0.84921586  0.83529772  1
  In  In56  1  0.67249726  0.67526758  0.32777014  1
  In  In57  1  0.15314505  0.12752766  0.68602531  1
  In  In58  1  0.67862777  0.31222273  0.01215987  1
  In  In59  1  0.52533672  0.80926093  0.00977425  1
  In  In60  1  0.00958632  -0.03098285  0.68559351  1
  In  In61  1  0.70895139  0.51035923  0.46915890  1
  In  In62  1  -0.00064521  0.34610058  0.33531032  1
  In  In63  1  -0.00189108  0.67599182  0.01289987  1
  In  In64  1  0.31483451  0.00354790  0.30713195  1
  In  In65  1  0.33827017  0.31731342  0.66646579  1
  In  In66  1  0.35613834  0.35096659  0.32343362  1
  In  In67  1  0.52054165  0.00629303  0.48584198  1
  In  In68  1  0.31363726  0.17898563  0.84039754  1
  In  In69  1  0.80703949  0.34802336  0.46952690  1
  In  In70  1  -0.00281965  0.71424941  0.68311589  1
  In  In71  1  0.82883345  0.01213246  0.15028402  1
  Te  Te72  1  0.06001128  0.05943289  0.04418800  1
  Te  Te73  1  0.07619853  0.06534901  0.40170660  1
  Te  Te74  1  0.08944484  0.04272293  0.78761809  1
  Te  Te75  1  0.08958115  0.42101871  0.07910223  1
  Te  Te76  1  0.08920184  0.42981167  0.42393085  1
  Te  Te77  1  0.06812784  0.41482502  0.73854313  1
  Te  Te78  1  0.08591056  0.77689924  0.08565548  1
  Te  Te79  1  0.04114408  0.73560215  0.38737953  1
  Te  Te80  1  0.10204152  0.78388894  0.76074129  1
  Te  Te81  1  0.44046993  0.09387900  0.06528637  1
  Te  Te82  1  0.41645798  0.08351268  0.39786605  1
  Te  Te83  1  0.40537431  0.07185169  0.78098440  1
  Te  Te84  1  0.45357158  0.41227235  0.08994219  1
  Te  Te85  1  0.44824972  0.41837907  0.41990910  1
  Te  Te86  1  0.39984614  0.42632804  0.75189535  1
  Te  Te87  1  0.44608973  0.72756940  0.11086781  1
  Te  Te88  1  0.40684731  0.76746625  0.41694252  1
  Te  Te89  1  0.40271271  0.76841396  0.74033802  1
  Te  Te90  1  0.72634516  0.07013510  0.05329074  1
  Te  Te91  1  0.77483103  0.03102736  0.43600766  1
  Te  Te92  1  0.73788853  0.05857818  0.76954572  1
  Te  Te93  1  0.72530704  0.41605181  0.10793191  1
  Te  Te94  1  0.72672853  0.41016417  0.35913923  1
  Te  Te95  1  0.76355139  0.40643567  0.74661526  1
  Te  Te96  1  0.70993885  0.70657235  0.09361692  1
  Te  Te97  1  0.77583457  0.75976558  0.40154713  1
  Te  Te98  1  0.74785868  0.73335008  0.75387087  1
  Te  Te99  1  0.08768676  0.25488008  0.24994173  1
  Te  Te100  1  0.06782760  0.22254523  0.58222488  1
  Te  Te101  1  0.09113914  0.24571958  0.89944896  1
  Te  Te102  1  0.08093500  0.59961169  0.28734387  1
  Te  Te103  1  0.05917337  0.60311768  0.59523298  1
  Te  Te104  1  0.07194861  0.59046378  0.90811064  1
  Te  Te105  1  0.08081379  0.93206908  0.24345348  1
  Te  Te106  1  0.10585205  0.91246401  0.58721149  1
  Te  Te107  1  0.07444194  0.88889341  0.86970326  1
  Te  Te108  1  0.41996884  0.25034728  0.24202369  1
  Te  Te109  1  0.45097763  0.25852577  0.58515506  1
  Te  Te110  1  0.42125753  0.25882575  0.91113512  1
  Te  Te111  1  0.42921937  0.58395050  0.25908891  1
  Te  Te112  1  0.41613948  0.59527043  0.59374419  1
  Te  Te113  1  0.41956565  0.56644844  0.92810782  1
  Te  Te114  1  0.41674943  0.91837498  0.23565795  1
  Te  Te115  1  0.41376726  0.94377543  0.58086259  1
  Te  Te116  1  0.42090260  0.89099548  0.93075369  1
  Te  Te117  1  0.76788229  0.21092839  0.26326019  1
  Te  Te118  1  0.77643509  0.24588895  0.58604355  1
  Te  Te119  1  0.74146617  0.23280102  0.89774537  1
  Te  Te120  1  0.73073883  0.60294526  0.21275334  1
  Te  Te121  1  0.73579166  0.61673863  0.58422915  1
  Te  Te122  1  0.76339716  0.57861649  0.94631427  1
  Te  Te123  1  0.75276464  0.92978011  0.25472222  1
  Te  Te124  1  0.73781157  0.93269358  0.56787747  1
  Te  Te125  1  0.77554144  0.87126269  0.94713287  1
  Te  Te126  1  0.26303875  0.25489763  0.07607150  1
  Te  Te127  1  0.24168731  0.27481839  0.42561483  1
  Te  Te128  1  0.22494506  0.25225806  0.74153638  1
  Te  Te129  1  0.24517361  0.59521057  0.09710543  1
  Te  Te130  1  0.23083850  0.60281887  0.44397914  1
  Te  Te131  1  0.24078181  0.59089153  0.76265654  1
  Te  Te132  1  0.23947856  0.93084643  0.08724132  1
  Te  Te133  1  0.24578666  0.92709112  0.41897257  1
  Te  Te134  1  0.22171112  0.89360433  0.72151288  1
  Te  Te135  1  0.57547501  0.22797768  0.07196865  1
  Te  Te136  1  0.60334558  0.25194946  0.43251384  1
  Te  Te137  1  0.58712736  0.22802049  0.75904782  1
  Te  Te138  1  0.60115491  0.59874753  0.12338530  1
  Te  Te139  1  0.57968200  0.59110163  0.42862124  1
  Te  Te140  1  0.57059786  0.56093898  0.74990898  1
  Te  Te141  1  0.60103631  0.91772206  0.08081916  1
  Te  Te142  1  0.57694884  0.90295602  0.39683677  1
  Te  Te143  1  0.56308015  0.91970742  0.76153144  1
  Te  Te144  1  0.92510349  0.24127961  0.09586606  1
  Te  Te145  1  0.90446791  0.24983532  0.40431077  1
  Te  Te146  1  0.93098850  0.20901678  0.75989428  1
  Te  Te147  1  0.91409671  0.59710507  0.10356437  1
  Te  Te148  1  0.86627364  0.56057542  0.40110993  1
  Te  Te149  1  0.91081397  0.58173402  0.74308032  1
  Te  Te150  1  0.89029004  0.88712619  0.10398093  1
  Te  Te151  1  0.88198852  0.95537169  0.35126884  1
  Te  Te152  1  0.89434545  0.90352201  0.75789172  1
  Te  Te153  1  0.24598992  0.10476503  0.22817495  1
  Te  Te154  1  0.27425386  0.11621461  0.57917553  1
  Te  Te155  1  0.24431500  0.06997232  0.91808248  1
  Te  Te156  1  0.25332507  0.44153960  0.25994240  1
  Te  Te157  1  0.26582516  0.42581409  0.58027768  1
  Te  Te158  1  0.23666392  0.40664122  0.90684453  1
  Te  Te159  1  0.25836910  0.76638596  0.25612963  1
  Te  Te160  1  0.21879043  0.73622986  0.55265312  1
  Te  Te161  1  0.24799099  0.73659536  0.91775636  1
  Te  Te162  1  0.60113848  0.07591206  0.26641626  1
  Te  Te163  1  0.59926987  0.08738140  0.58654502  1
  Te  Te164  1  0.60854403  0.01013176  0.86629507  1
  Te  Te165  1  0.62351278  0.39807023  0.23883261  1
  Te  Te166  1  0.61992651  0.42752978  0.57116954  1
  Te  Te167  1  0.59990203  0.41605408  0.91359272  1
  Te  Te168  1  0.57688948  0.77618229  0.27820014  1
  Te  Te169  1  0.56661304  0.79244832  0.59890361  1
  Te  Te170  1  0.58954099  0.72452753  0.90381019  1
  Te  Te171  1  0.90997508  0.08985003  0.25260115  1
  Te  Te172  1  0.91997369  0.05000368  0.58900757  1
  Te  Te173  1  0.92780416  0.07249312  0.93619237  1
  Te  Te174  1  0.91593973  0.42133771  0.23642537  1
  Te  Te175  1  0.91923424  0.41564100  0.56113210  1
  Te  Te176  1  0.89904203  0.41199562  0.94234240  1
  Te  Te177  1  0.95675390  0.72339782  0.26674796  1
  Te  Te178  1  0.92507483  0.78677103  0.57138330  1
  Te  Te179  1  0.92227213  0.77024901  0.92564342  1
