# generated using pymatgen
data_In2Te3
_symmetry_space_group_name_H-M   'P 1'
_cell_length_a   18.78562484
_cell_length_b   18.78171581
_cell_length_c   18.78059702
_cell_angle_alpha   90.06049865
_cell_angle_beta   90.12152110
_cell_angle_gamma   89.94640554
_symmetry_Int_Tables_number   1
_chemical_formula_structural   In2Te3
_chemical_formula_sum   'In72 Te108'
_cell_volume   6626.26645607
_cell_formula_units_Z   36
loop_
 _symmetry_equiv_pos_site_id
 _symmetry_equiv_pos_as_xyz
  1  'x, y, z'
loop_
 _atom_site_type_symbol
 _atom_site_label
 _atom_site_symmetry_multiplicity
 _atom_site_fract_x
 _atom_site_fract_y
 _atom_site_fract_z
 _atom_site_occupancy
  In  In0  1  0.83257663  0.16839743  -0.00982831  1
  In  In1  1  0.32782484  0.47969802  0.15523457  1
  In  In2  1  0.66997562  0.66447143  -0.02679397  1
  In  In3  1  0.34779693  0.49303875  0.49763201  1
  In  In4  1  0.00015181  0.82942024  0.82480831  1
  In  In5  1  0.51382192  0.00805266  0.84814139  1
  In  In6  1  0.16505687  0.32847945  0.84502941  1
  In  In7  1  0.49079317  0.66425178  0.15045137  1
  In  In8  1  0.65765095  0.84751096  0.83568548  1
  In  In9  1  0.00649735  0.00135332  0.34296519  1
  In  In10  1  0.85343901  0.49185999  0.33046008  1
  In  In11  1  0.86404720  0.66145836  0.15984952  1
  In  In12  1  0.49936829  0.02345930  0.51985714  1
  In  In13  1  0.19373909  0.48525728  -0.00107772  1
  In  In14  1  0.33034231  0.18074144  0.50736645  1
  In  In15  1  0.04658618  0.81044416  0.49908363  1
  In  In16  1  0.15029052  0.17193406  0.69152724  1
  In  In17  1  0.16746481  0.66228889  0.84273373  1
  In  In18  1  0.50528409  0.18514131  0.66696181  1
  In  In19  1  0.82952452  0.66903046  0.47713169  1
  In  In20  1  0.83082748  0.32115399  0.50552432  1
  In  In21  1  0.00472645  0.64296236  0.67300614  1
  In  In22  1  0.16065524  0.01044378  0.17524605  1
  In  In23  1  0.46981480  0.47439396  0.68713957  1
  In  In24  1  0.65498213  0.84824607  0.15665467  1
  In  In25  1  0.84759159  0.16117540  0.35642339  1
  In  In26  1  0.34457268  0.20051651  0.17627126  1
  In  In27  1  0.30807971  0.65554134  0.33322754  1
  In  In28  1  0.65855044  0.32265179  -0.00381591  1
  In  In29  1  0.83936701  0.47485373  0.69631397  1
  In  In30  1  0.50682395  0.47324158  0.34037854  1
  In  In31  1  0.49202715  0.84702923  0.33665246  1
  In  In32  1  0.47326109  0.80830798  0.69811554  1
  In  In33  1  0.67065768  0.18641512  0.15536675  1
  In  In34  1  0.01075427  0.18279250  0.16181071  1
  In  In35  1  0.47368840  0.50138198  -0.00135913  1
  In  In36  1  0.33764488  0.81489201  0.16670962  1
  In  In37  1  0.15791989  -0.01506792  0.49700471  1
  In  In38  1  0.65974511  0.16594895  0.82495641  1
  In  In39  1  0.17921959  0.00187949  0.81562305  1
  In  In40  1  0.63511431  0.33472868  0.35128256  1
  In  In41  1  0.82198957  0.01230231  0.50405223  1
  In  In42  1  0.17258119  0.33556115  0.49382304  1
  In  In43  1  0.29142927  0.81565754  0.51388459  1
  In  In44  1  0.32578957  0.01440240  0.36341863  1
  In  In45  1  0.33898701  0.19329194  0.85073579  1
  In  In46  1  -0.00301090  0.16919585  0.49928828  1
  In  In47  1  0.01872437  0.65297576  0.00598078  1
  In  In48  1  0.33394620  0.00922371  -0.02705758  1
  In  In49  1  0.83848477  0.18906908  0.68483331  1
  In  In50  1  0.49599271  0.65071084  0.50839090  1
  In  In51  1  0.83193157  -0.00486031  0.13669397  1
  In  In52  1  0.67476869  0.49135258  0.81141480  1
  In  In53  1  0.03822651  0.51901718  0.17317302  1
  In  In54  1  0.65323522  0.66203501  0.65556335  1
  In  In55  1  0.64706677  0.49341720  0.52885063  1
  In  In56  1  0.67344009  0.01944083  0.33072170  1
  In  In57  1  -0.01319557  0.01493217  0.00533416  1
  In  In58  1  0.84316368  0.80870652  0.34560909  1
  In  In59  1  0.33189930  0.66016338  0.00236657  1
  In  In60  1  0.50626411  0.00382711  0.13866304  1
  In  In61  1  0.17557313  0.32875462  0.17713805  1
  In  In62  1  0.33745145  -0.01285460  0.67053222  1
  In  In63  1  0.83957943  0.33570760  0.17040134  1
  In  In64  1  0.01109785  0.50243705  0.50350763  1
  In  In65  1  0.70582057  0.68312008  0.34031840  1
  In  In66  1  0.82482158  0.85547649  -0.00593128  1
  In  In67  1  0.66032736  0.46010749  0.17991875  1
  In  In68  1  0.17030426  0.49859777  0.68588578  1
  In  In69  1  0.82811934  0.66364999  0.82183342  1
  In  In70  1  0.16223716  0.81894369  0.00995944  1
  In  In71  1  0.85205659  0.85964683  0.65646599  1
  Te  Te72  1  0.09773672  0.09992067  0.06797196  1
  Te  Te73  1  0.10081995  0.09896035  0.41184597  1
  Te  Te74  1  0.06336824  0.07485250  0.75892660  1
  Te  Te75  1  0.08805409  0.40943386  0.07709460  1
  Te  Te76  1  0.09340931  0.42759811  0.40612608  1
  Te  Te77  1  0.07166291  0.40532586  0.74960221  1
  Te  Te78  1  0.08743823  0.73667865  0.10605200  1
  Te  Te79  1  0.08387616  0.72019338  0.39132199  1
  Te  Te80  1  0.09538300  0.75051505  0.73728592  1
  Te  Te81  1  0.40575469  0.09801596  0.07333449  1
  Te  Te82  1  0.43816452  0.10689453  0.40647190  1
  Te  Te83  1  0.40940081  0.09060731  0.75558773  1
  Te  Te84  1  0.39372641  0.38682400  0.05593894  1
  Te  Te85  1  0.41841013  0.38426350  0.42091008  1
  Te  Te86  1  0.40637159  0.39487285  0.79806457  1
  Te  Te87  1  0.43391100  0.76983787  0.05916354  1
  Te  Te88  1  0.41149546  0.74230177  0.41551448  1
  Te  Te89  1  0.39785087  0.70595145  0.76962754  1
  Te  Te90  1  0.73035263  0.07784734  0.06291693  1
  Te  Te91  1  0.72774211  0.11580431  0.43669348  1
  Te  Te92  1  0.75708000  0.08291474  0.74984658  1
  Te  Te93  1  0.75752350  0.41663309  0.07073645  1
  Te  Te94  1  0.74559206  0.42880070  0.41973063  1
  Te  Te95  1  0.72929162  0.37976121  0.72828188  1
  Te  Te96  1  0.74937126  0.74636764  0.08676327  1
  Te  Te97  1  0.73179394  0.78474597  0.45116370  1
  Te  Te98  1  0.74664338  0.75651546  0.73477860  1
  Te  Te99  1  0.09173256  0.24367900  0.26723203  1
  Te  Te100  1  0.07754341  0.26020343  0.59043856  1
  Te  Te101  1  0.04992116  0.24441233  0.89708282  1
  Te  Te102  1  0.08332564  0.60333228  0.28524197  1
  Te  Te103  1  0.11395570  0.59847845  0.57210137  1
  Te  Te104  1  0.08597478  0.55472807  0.91214687  1
  Te  Te105  1  0.08329527  0.91316478  0.25389298  1
  Te  Te106  1  0.07061178  0.91873238  0.59469499  1
  Te  Te107  1  0.08460290  0.91675818  0.92218918  1
  Te  Te108  1  0.43529841  0.27153403  0.27253119  1
  Te  Te109  1  0.41648862  0.27355637  0.58548947  1
  Te  Te110  1  0.42204020  0.29519320  0.91971682  1
  Te  Te111  1  0.42148068  0.57482412  0.25199158  1
  Te  Te112  1  0.40019814  0.58860606  0.60566678  1
  Te  Te113  1  0.42231744  0.60070995  0.89794818  1
  Te  Te114  1  0.40732757  0.93621398  0.24572163  1
  Te  Te115  1  0.40718259  0.90425708  0.56255348  1
  Te  Te116  1  0.40601663  0.91470020  0.88632541  1
  Te  Te117  1  0.75142463  0.25781556  0.26778033  1
  Te  Te118  1  0.73637859  0.25030996  0.59249314  1
  Te  Te119  1  0.76056722  0.26638772  0.89915060  1
  Te  Te120  1  0.75345894  0.57519847  0.23949162  1
  Te  Te121  1  0.76812439  0.57679865  0.59023626  1
  Te  Te122  1  0.76583596  0.56047360  0.91551996  1
  Te  Te123  1  0.75982254  0.91576225  0.25398762  1
  Te  Te124  1  0.73806485  0.93085456  0.59470786  1
  Te  Te125  1  0.74885647  0.94250889  0.90318615  1
  Te  Te126  1  0.25511922  0.25831436  0.07223402  1
  Te  Te127  1  0.25237488  0.24928774  0.40243373  1
  Te  Te128  1  0.26167674  0.26236879  0.73789273  1
  Te  Te129  1  0.23912751  0.59231762  0.10022681  1
  Te  Te130  1  0.23937902  0.55470933  0.41594720  1
  Te  Te131  1  0.26711182  0.58816647  0.75806174  1
  Te  Te132  1  0.25598813  0.92477520  0.08211135  1
  Te  Te133  1  0.23537046  0.89725311  0.39726831  1
  Te  Te134  1  0.25069853  0.89411016  0.74411790  1
  Te  Te135  1  0.56120581  0.23272292  0.06437014  1
  Te  Te136  1  0.53703686  0.24132712  0.40606122  1
  Te  Te137  1  0.57660144  0.27333542  0.76339692  1
  Te  Te138  1  0.59295261  0.57314382  0.08333559  1
  Te  Te139  1  0.59518233  0.58736064  0.40915459  1
  Te  Te140  1  0.56818315  0.57978196  0.74790433  1
  Te  Te141  1  0.58339740  0.91651999  0.04811910  1
  Te  Te142  1  0.58410082  0.93350675  0.42009950  1
  Te  Te143  1  0.57026099  0.92118865  0.73346788  1
  Te  Te144  1  0.92540188  0.26510126  0.06601370  1
  Te  Te145  1  0.93568125  0.27430668  0.40439138  1
  Te  Te146  1  0.94477612  0.26833377  0.76388017  1
  Te  Te147  1  0.92217209  0.55337742  0.07140679  1
  Te  Te148  1  0.94037863  0.59828573  0.39806149  1
  Te  Te149  1  0.93422463  0.56157599  0.78064574  1
  Te  Te150  1  0.93755775  0.89624478  0.09006623  1
  Te  Te151  1  0.92080350  0.91399496  0.43371777  1
  Te  Te152  1  0.90564636  0.93097708  0.77434154  1
  Te  Te153  1  0.25720231  0.09759275  0.25515968  1
  Te  Te154  1  0.24466647  0.08028819  0.58850110  1
  Te  Te155  1  0.23141323  0.10690038  0.91544385  1
  Te  Te156  1  0.24948097  0.42403823  0.26544543  1
  Te  Te157  1  0.25831056  0.41282616  0.59598461  1
  Te  Te158  1  0.27242698  0.43124314  0.88196905  1
  Te  Te159  1  0.23362467  0.75144654  0.24766208  1
  Te  Te160  1  0.21011305  0.72302920  0.58953755  1
  Te  Te161  1  0.26152808  0.76295953  0.91113896  1
  Te  Te162  1  0.57841454  0.09500630  0.23919357  1
  Te  Te163  1  0.60028757  0.08962552  0.60327956  1
  Te  Te164  1  0.56886320  0.11575434  0.93423433  1
  Te  Te165  1  0.53894010  0.37840022  0.21878984  1
  Te  Te166  1  0.55506620  0.39756208  0.59039914  1
  Te  Te167  1  0.58234940  0.42840041  0.91640135  1
  Te  Te168  1  0.57979366  0.75144828  0.25123128  1
  Te  Te169  1  0.56899386  0.76308762  0.58046968  1
  Te  Te170  1  0.57221880  0.74815276  0.90371555  1
  Te  Te171  1  0.90996027  0.08381240  0.23890595  1
  Te  Te172  1  0.91986443  0.08483493  0.59608584  1
  Te  Te173  1  0.91287431  0.08300622  0.89792195  1
  Te  Te174  1  0.94811014  0.41137502  0.24518741  1
  Te  Te175  1  0.92528141  0.40840469  0.58875142  1
  Te  Te176  1  0.96250647  0.36747626  0.87601729  1
  Te  Te177  1  0.93821067  0.75521047  0.24629460  1
  Te  Te178  1  0.92214104  0.73889789  0.58534443  1
  Te  Te179  1  0.91351716  0.74141394  0.92474773  1
