# generated using pymatgen
data_In2Te3
_symmetry_space_group_name_H-M   'P 1'
_cell_length_a   18.81726886
_cell_length_b   18.82430654
_cell_length_c   18.81008316
_cell_angle_alpha   89.97096067
_cell_angle_beta   90.02361384
_cell_angle_gamma   89.96670084
_symmetry_Int_Tables_number   1
_chemical_formula_structural   In2Te3
_chemical_formula_sum   'In72 Te108'
_cell_volume   6662.94342856
_cell_formula_units_Z   36
loop_
 _symmetry_equiv_pos_site_id
 _symmetry_equiv_pos_as_xyz
  1  'x, y, z'
loop_
 _atom_site_type_symbol
 _atom_site_label
 _atom_site_symmetry_multiplicity
 _atom_site_fract_x
 _atom_site_fract_y
 _atom_site_fract_z
 _atom_site_occupancy
  In  In0  1  0.65985935  0.51746566  0.49903284  1
  In  In1  1  0.14953081  0.84093886  -0.01147647  1
  In  In2  1  0.18011585  0.32335155  0.14435073  1
  In  In3  1  0.18735786  0.66645470  0.15503258  1
  In  In4  1  0.32385029  0.33007798  -0.00610666  1
  In  In5  1  0.83522237  -0.00948380  0.52667439  1
  In  In6  1  0.65261794  0.66363589  0.68636006  1
  In  In7  1  0.66435115  0.67594443  0.34533133  1
  In  In8  1  0.63734937  0.51906091  0.15628168  1
  In  In9  1  0.81137335  0.00285670  0.15359081  1
  In  In10  1  0.66530872  0.17771163  0.13790166  1
  In  In11  1  0.49171668  0.67060162  0.49637947  1
  In  In12  1  0.54859469  0.34553392  0.84043460  1
  In  In13  1  0.00520484  -0.01868721  0.67278235  1
  In  In14  1  0.83330348  0.68063029  0.50693662  1
  In  In15  1  0.65557796  0.00182377  0.66822089  1
  In  In16  1  -0.01281061  0.32761606  0.68218629  1
  In  In17  1  0.32197016  0.15996489  0.83049117  1
  In  In18  1  0.66593576  0.65400863  -0.01011041  1
  In  In19  1  0.33693280  0.50359867  0.50313621  1
  In  In20  1  0.50687039  0.83344579  0.66350555  1
  In  In21  1  0.00484896  0.46674685  0.16450773  1
  In  In22  1  0.49972724  0.63146541  0.16795477  1
  In  In23  1  0.50470945  0.84489961  0.33297928  1
  In  In24  1  0.84288325  0.65438972  0.17797199  1
  In  In25  1  0.35529608  0.81316215  0.17480296  1
  In  In26  1  0.00246415  0.84356111  0.17317941  1
  In  In27  1  0.14008048  0.14267755  0.31570536  1
  In  In28  1  0.49016276  0.17527960  0.33270695  1
  In  In29  1  0.18326426  0.66018641  0.82786289  1
  In  In30  1  0.32784177  -0.02508699  0.66576777  1
  In  In31  1  0.35810929  0.36987400  0.67533423  1
  In  In32  1  0.17143071  0.34521445  0.83611183  1
  In  In33  1  0.51155028  0.17331798  -0.00305065  1
  In  In34  1  -0.00083658  0.15929402  0.46057004  1
  In  In35  1  0.29767304  0.82647099  0.50757595  1
  In  In36  1  0.32887526  0.82058614  0.81803486  1
  In  In37  1  -0.00457740  0.82690052  0.82857877  1
  In  In38  1  0.83702303  0.33553113  0.17917846  1
  In  In39  1  0.82643157  0.50162667  0.00658958  1
  In  In40  1  0.52281291  0.34980457  0.50323609  1
  In  In41  1  0.17174277  0.00686820  0.18312024  1
  In  In42  1  0.02477774  0.83147357  0.51788516  1
  In  In43  1  0.85138162  0.15630403  0.35260893  1
  In  In44  1  0.68371856  0.85936879  0.17700585  1
  In  In45  1  0.47792466  -0.00738329  0.17186259  1
  In  In46  1  0.34355376  0.49592412  0.16167681  1
  In  In47  1  -0.00606828  0.50790586  0.53281579  1
  In  In48  1  0.34345013  0.14647786  0.49052414  1
  In  In49  1  0.14273150  0.15528922  0.68570919  1
  In  In50  1  0.32520600  -0.00631794  -0.01034168  1
  In  In51  1  0.18024471  0.34088355  0.50911698  1
  In  In52  1  0.84363209  0.83185628  -0.00962144  1
  In  In53  1  0.82696907  0.67353422  0.82392978  1
  In  In54  1  0.50489934  0.50320328  0.67952662  1
  In  In55  1  0.66481955  -0.02024406  -0.02627960  1
  In  In56  1  0.49547949  0.80061839  -0.02048283  1
  In  In57  1  0.79736355  0.34213755  0.81471700  1
  In  In58  1  0.49531160  0.16079033  0.66131115  1
  In  In59  1  0.01095386  0.66619210  0.68515039  1
  In  In60  1  0.65911172  -0.00067521  0.34785039  1
  In  In61  1  0.33736894  0.31916191  0.32695426  1
  In  In62  1  0.00564298  0.67599731  0.35064189  1
  In  In63  1  0.17475491  0.52274210  0.35270877  1
  In  In64  1  0.00981945  -0.00818885  0.32579708  1
  In  In65  1  0.67405752  0.16246568  0.83600696  1
  In  In66  1  0.65778223  0.35452275  0.33002236  1
  In  In67  1  0.01552406  0.32511975  0.00143345  1
  In  In68  1  -0.02201302  0.32177266  0.34609556  1
  In  In69  1  0.81910109  0.18578569  0.66352380  1
  In  In70  1  0.00465292  0.16566447  0.12341554  1
  In  In71  1  0.01031187  0.51040190  0.84296288  1
  Te  Te72  1  0.10514482  0.06583717  0.06234884  1
  Te  Te73  1  0.11116149  0.04709920  0.43726696  1
  Te  Te74  1  0.05613737  0.07798525  0.77468560  1
  Te  Te75  1  0.10841459  0.42931642  0.05987686  1
  Te  Te76  1  0.07784183  0.41713658  0.42172991  1
  Te  Te77  1  0.08704404  0.42891785  0.73868614  1
  Te  Te78  1  0.07524340  0.74590111  0.08340263  1
  Te  Te79  1  0.10554386  0.76446371  0.41169582  1
  Te  Te80  1  0.10876564  0.76565544  0.74534866  1
  Te  Te81  1  0.40977536  0.08924313  0.07612860  1
  Te  Te82  1  0.43559047  0.06373367  0.41246109  1
  Te  Te83  1  0.41550363  0.06799851  0.75052218  1
  Te  Te84  1  0.42196902  0.39906010  0.08163948  1
  Te  Te85  1  0.42072147  0.41681643  0.41020566  1
  Te  Te86  1  0.42509970  0.43088504  0.79405869  1
  Te  Te87  1  0.41228893  0.71551603  0.07238540  1
  Te  Te88  1  0.40493856  0.76057571  0.41173216  1
  Te  Te89  1  0.42489555  0.73284763  0.74244469  1
  Te  Te90  1  0.74839845  0.08823257  0.04440952  1
  Te  Te91  1  0.74903329  0.08360419  0.43935314  1
  Te  Te92  1  0.76702967  0.07591692  0.75416878  1
  Te  Te93  1  0.73870282  0.41723755  0.09668522  1
  Te  Te94  1  0.74687527  0.42494262  0.42357983  1
  Te  Te95  1  0.73900313  0.42006807  0.70631256  1
  Te  Te96  1  0.75144184  0.74614764  0.08799890  1
  Te  Te97  1  0.75175793  0.76747904  0.41867468  1
  Te  Te98  1  0.74594889  0.76593055  0.74205578  1
  Te  Te99  1  0.06394314  0.25943909  0.23733216  1
  Te  Te100  1  0.07643019  0.24891916  0.57443857  1
  Te  Te101  1  0.08821186  0.24185689  0.90360518  1
  Te  Te102  1  0.07887520  0.58027723  0.24681721  1
  Te  Te103  1  0.09845948  0.60478756  0.57921985  1
  Te  Te104  1  0.08952149  0.60177648  0.92568474  1
  Te  Te105  1  0.11168469  0.89418148  0.26643970  1
  Te  Te106  1  0.11777993  0.91568149  0.59890584  1
  Te  Te107  1  0.06157404  0.93058579  0.91251755  1
  Te  Te108  1  0.41754826  0.24712311  0.22718056  1
  Te  Te109  1  0.40906094  0.26659206  0.56854876  1
  Te  Te110  1  0.42990102  0.25077067  0.88994710  1
  Te  Te111  1  0.39420035  0.59198512  0.26345620  1
  Te  Te112  1  0.41124643  0.59595966  0.60137344  1
  Te  Te113  1  0.36123200  0.63883887  0.85983252  1
  Te  Te114  1  0.38789730  0.92722171  0.27435376  1
  Te  Te115  1  0.41734433  0.90911346  0.56388468  1
  Te  Te116  1  0.42032338  0.90984785  0.90505680  1
  Te  Te117  1  0.75239085  0.23378010  0.25736834  1
  Te  Te118  1  0.75851032  0.25293911  0.54949525  1
  Te  Te119  1  0.72653073  0.27031430  0.92266481  1
  Te  Te120  1  0.74035424  0.57673060  0.25690225  1
  Te  Te121  1  0.75285795  0.58757096  0.59654950  1
  Te  Te122  1  0.74538028  0.56120789  0.89200716  1
  Te  Te123  1  0.77511604  0.92295191  0.27879026  1
  Te  Te124  1  0.74946372  0.90227037  0.60746013  1
  Te  Te125  1  0.76228197  0.90518223  0.89199031  1
  Te  Te126  1  0.24233265  0.22415722  0.05703954  1
  Te  Te127  1  0.23591433  0.23733999  0.41092896  1
  Te  Te128  1  0.25633432  0.25985340  0.72988279  1
  Te  Te129  1  0.25839346  0.57193682  0.06741591  1
  Te  Te130  1  0.24875867  0.61411738  0.44617871  1
  Te  Te131  1  0.27986832  0.57676994  0.75291070  1
  Te  Te132  1  0.25659963  0.89991044  0.09303633  1
  Te  Te133  1  0.22027647  0.93397191  0.44351587  1
  Te  Te134  1  0.22959170  0.91379688  0.75800170  1
  Te  Te135  1  0.57767477  0.27908087  0.07678679  1
  Te  Te136  1  0.59353693  0.24413396  0.42021487  1
  Te  Te137  1  0.59756411  0.24748562  0.73339794  1
  Te  Te138  1  0.54989081  0.55860629  0.02863403  1
  Te  Te139  1  0.56145910  0.57652406  0.39832456  1
  Te  Te140  1  0.57673039  0.58076511  0.78507170  1
  Te  Te141  1  0.57216008  0.91123920  0.07939608  1
  Te  Te142  1  0.59449086  0.90044057  0.43547839  1
  Te  Te143  1  0.57014138  0.92351974  0.76126567  1
  Te  Te144  1  0.89108415  0.25685788  0.06124051  1
  Te  Te145  1  0.88024523  0.27265333  0.45640536  1
  Te  Te146  1  0.90788165  0.24044816  0.77706245  1
  Te  Te147  1  0.93384365  0.57720515  0.08368562  1
  Te  Te148  1  0.91295209  0.57972204  0.42365833  1
  Te  Te149  1  0.90935138  0.57077909  0.74507212  1
  Te  Te150  1  0.92210364  0.93029785  0.07672366  1
  Te  Te151  1  0.92874482  0.91639887  0.42863159  1
  Te  Te152  1  0.90006786  0.90852993  0.74857108  1
  Te  Te153  1  0.26438550  0.09997477  0.25061736  1
  Te  Te154  1  0.25171639  0.09009754  0.59778236  1
  Te  Te155  1  0.23280168  0.06425810  0.89799798  1
  Te  Te156  1  0.23225377  0.41177722  0.26021338  1
  Te  Te157  1  0.24015154  0.44171578  0.60483309  1
  Te  Te158  1  0.25326731  0.43611295  0.91759249  1
  Te  Te159  1  0.26594518  0.73187236  0.26148994  1
  Te  Te160  1  0.23149202  0.71012070  0.57154206  1
  Te  Te161  1  0.26114919  0.75135938  0.93806910  1
  Te  Te162  1  0.59191690  0.07669249  0.23221038  1
  Te  Te163  1  0.58014280  0.08435111  0.56976462  1
  Te  Te164  1  0.56867942  0.07150591  0.89865349  1
  Te  Te165  1  0.56221522  0.42259323  0.24149440  1
  Te  Te166  1  0.61165940  0.41219205  0.61339154  1
  Te  Te167  1  0.60414670  0.45792227  0.91933711  1
  Te  Te168  1  0.58225188  0.75291524  0.22931655  1
  Te  Te169  1  0.59679965  0.74900679  0.56998209  1
  Te  Te170  1  0.59968921  0.74447340  0.89285674  1
  Te  Te171  1  0.92354699  0.08580837  0.23559303  1
  Te  Te172  1  0.93218895  0.09587228  0.58317007  1
  Te  Te173  1  0.97549167  0.12305216  0.98225501  1
  Te  Te174  1  0.90275490  0.43423875  0.27349910  1
  Te  Te175  1  0.89838615  0.42177301  0.60756434  1
  Te  Te176  1  0.91538061  0.41417304  0.91498365  1
  Te  Te177  1  0.91082899  0.76030149  0.26325452  1
  Te  Te178  1  0.92071948  0.75933098  0.60357177  1
  Te  Te179  1  0.92877813  0.72474194  0.92457018  1
