# generated using pymatgen
data_In2Te3
_symmetry_space_group_name_H-M   'P 1'
_cell_length_a   19.05693980
_cell_length_b   19.03342947
_cell_length_c   19.02957637
_cell_angle_alpha   90.08050026
_cell_angle_beta   90.13576917
_cell_angle_gamma   89.99045547
_symmetry_Int_Tables_number   1
_chemical_formula_structural   In2Te3
_chemical_formula_sum   'In72 Te108'
_cell_volume   6902.36109990
_cell_formula_units_Z   36
loop_
 _symmetry_equiv_pos_site_id
 _symmetry_equiv_pos_as_xyz
  1  'x, y, z'
loop_
 _atom_site_type_symbol
 _atom_site_label
 _atom_site_symmetry_multiplicity
 _atom_site_fract_x
 _atom_site_fract_y
 _atom_site_fract_z
 _atom_site_occupancy
  In  In0  1  0.17427676  0.15025537  0.01644819  1
  In  In1  1  0.20620920  0.69051249  0.84956695  1
  In  In2  1  0.70618879  0.20994630  0.52466377  1
  In  In3  1  0.32522984  -0.00002614  0.01728853  1
  In  In4  1  0.81516411  -0.00421976  0.81296578  1
  In  In5  1  0.01050661  0.00267907  0.00340522  1
  In  In6  1  0.65939407  0.84099167  0.13554598  1
  In  In7  1  0.69764024  0.36781460  0.65624673  1
  In  In8  1  0.00428342  0.65253268  0.31664069  1
  In  In9  1  -0.00160096  0.16766300  0.83378572  1
  In  In10  1  0.84373213  0.85147619  0.34938357  1
  In  In11  1  0.51771294  0.33642679  0.83466490  1
  In  In12  1  0.85307329  0.63981547  0.15403802  1
  In  In13  1  0.66436095  0.00601327  0.33954863  1
  In  In14  1  0.16486990  0.32076033  0.80191683  1
  In  In15  1  -0.00997102  0.03468929  0.32381851  1
  In  In16  1  0.63931139  0.00546265  0.67502296  1
  In  In17  1  0.80785583  0.32207771  0.83351268  1
  In  In18  1  0.30835781  0.66612188  0.34422568  1
  In  In19  1  0.51820146  0.30613188  0.16105683  1
  In  In20  1  0.62704242  0.52998261  0.87182022  1
  In  In21  1  0.66927595  0.78665235  0.85683560  1
  In  In22  1  0.51563875  0.16344139  0.34641403  1
  In  In23  1  0.00190728  0.48701595  0.83134560  1
  In  In24  1  0.52768599  0.80619429  0.67338069  1
  In  In25  1  0.15304177  0.16044629  0.66598177  1
  In  In26  1  0.81675794  0.03404345  0.49959725  1
  In  In27  1  0.32029180  0.83094900  0.52442589  1
  In  In28  1  0.81757340  0.64128012  0.83263121  1
  In  In29  1  0.01556288  -0.00743473  0.65941528  1
  In  In30  1  -0.00304122  0.66867551  0.68312120  1
  In  In31  1  0.52905186  0.83212635  0.31648100  1
  In  In32  1  0.86047057  0.82267403  0.00887617  1
  In  In33  1  -0.00489841  0.31249705  0.33186353  1
  In  In34  1  0.47041262  0.03485721  0.52683068  1
  In  In35  1  0.33399144  0.66071610  0.67171314  1
  In  In36  1  0.34240649  0.32084488  -0.01328977  1
  In  In37  1  0.32482860  0.01646141  0.67531469  1
  In  In38  1  0.48482333  0.64785133  0.46334150  1
  In  In39  1  0.16513681  0.16491707  0.32707856  1
  In  In40  1  0.69289060  0.18187433  0.16856032  1
  In  In41  1  0.16160969  0.50869170  0.66444782  1
  In  In42  1  0.17831540  0.50118548  -0.00629799  1
  In  In43  1  0.82293391  0.18029950  0.01048536  1
  In  In44  1  0.61825079  0.07876007  0.00122823  1
  In  In45  1  0.85149759  0.48833256  0.35433010  1
  In  In46  1  0.66827765  0.83337409  0.49554731  1
  In  In47  1  0.32697038  0.17239238  0.49305839  1
  In  In48  1  0.20461280  -0.02666501  0.84880134  1
  In  In49  1  0.69852627  0.61317237  0.65964481  1
  In  In50  1  0.82435139  0.36804554  0.14875682  1
  In  In51  1  0.31479352  0.84198779  0.15829568  1
  In  In52  1  0.00397257  0.81617851  0.51525123  1
  In  In53  1  0.50064135  0.33201749  0.50215789  1
  In  In54  1  0.30568177  0.50580710  0.16722915  1
  In  In55  1  0.49835197  0.49335408  0.68363586  1
  In  In56  1  0.13835133  0.49541602  0.32635632  1
  In  In57  1  0.18483407  0.83625706  0.34019794  1
  In  In58  1  0.49533137  0.51809638  0.04627374  1
  In  In59  1  0.49434459  -0.01114417  0.13753254  1
  In  In60  1  0.15389456  0.32006491  0.50881698  1
  In  In61  1  0.49506095  0.16544820  0.69645886  1
  In  In62  1  0.80042246  0.19153334  0.64374359  1
  In  In63  1  0.02044406  0.82693076  0.16814414  1
  In  In64  1  0.51726037  0.50157474  0.27084174  1
  In  In65  1  0.01567276  0.35240566  0.01973822  1
  In  In66  1  0.32662826  0.47533307  0.47191306  1
  In  In67  1  0.00155034  0.66305595  0.00547617  1
  In  In68  1  0.46791868  0.67850124  0.87446780  1
  In  In69  1  0.02373916  0.84180593  0.82719185  1
  In  In70  1  0.31832890  0.17429444  0.17984015  1
  In  In71  1  0.67393816  0.68398914  0.30748519  1
  Te  Te72  1  0.06338774  0.10130724  0.09674468  1
  Te  Te73  1  0.08074257  0.09138615  0.42727634  1
  Te  Te74  1  0.09259780  0.06337195  0.77793811  1
  Te  Te75  1  0.09337607  0.44811500  0.10141055  1
  Te  Te76  1  0.06345119  0.41023290  0.42824081  1
  Te  Te77  1  0.06550862  0.40244616  0.72409797  1
  Te  Te78  1  0.09689784  0.75079736  0.07044502  1
  Te  Te79  1  0.08360535  0.74581685  0.40780150  1
  Te  Te80  1  0.11295754  0.75298258  0.74715055  1
  Te  Te81  1  0.41242917  0.10373134  0.08410505  1
  Te  Te82  1  0.40227997  0.07734905  0.40040415  1
  Te  Te83  1  0.43543353  0.05089054  0.76937322  1
  Te  Te84  1  0.40901129  0.39879013  0.10056634  1
  Te  Te85  1  0.44388652  0.42305432  0.39671899  1
  Te  Te86  1  0.41251745  0.40930729  0.76277588  1
  Te  Te87  1  0.39995908  0.79048399  0.04748824  1
  Te  Te88  1  0.41483164  0.76564907  0.39972885  1
  Te  Te89  1  0.41222409  0.75702980  0.75826751  1
  Te  Te90  1  0.74835390  0.06955339  0.08066418  1
  Te  Te91  1  0.77352097  0.10559693  0.37111591  1
  Te  Te92  1  0.72945949  0.10112262  0.75000501  1
  Te  Te93  1  0.77113168  0.46554816  0.05296649  1
  Te  Te94  1  0.75347362  0.43316035  0.45269465  1
  Te  Te95  1  0.71882191  0.43508413  0.78990704  1
  Te  Te96  1  0.75998461  0.73895520  0.08355878  1
  Te  Te97  1  0.76109866  0.74356313  0.41778945  1
  Te  Te98  1  0.74830682  0.73383919  0.73379511  1
  Te  Te99  1  0.08530446  0.24801667  0.23719759  1
  Te  Te100  1  0.05846425  0.24465893  0.59235697  1
  Te  Te101  1  0.08681342  0.25263721  0.92212738  1
  Te  Te102  1  0.08212767  0.57828929  0.21661229  1
  Te  Te103  1  0.05624623  0.57400344  0.58798143  1
  Te  Te104  1  0.09067124  0.59176629  0.89484082  1
  Te  Te105  1  0.07618945  0.92030434  0.27221935  1
  Te  Te106  1  0.09929504  0.90867996  0.57675730  1
  Te  Te107  1  0.10372326  0.90308267  0.93933408  1
  Te  Te108  1  0.42316037  0.24920644  0.26317881  1
  Te  Te109  1  0.41548963  0.24517745  0.59138861  1
  Te  Te110  1  0.43462697  0.23575971  0.90779435  1
  Te  Te111  1  0.39777820  0.59763701  0.24581745  1
  Te  Te112  1  0.40981147  0.57077135  0.56980257  1
  Te  Te113  1  0.39872302  0.57021977  0.94488892  1
  Te  Te114  1  0.42250685  0.91208312  0.24430332  1
  Te  Te115  1  0.43871753  0.90586655  0.59480152  1
  Te  Te116  1  0.39764948  0.89861768  0.93666757  1
  Te  Te117  1  0.74613189  0.29210113  0.25108572  1
  Te  Te118  1  0.84510978  0.26962352  0.49564928  1
  Te  Te119  1  0.72420738  0.25363973  0.93219949  1
  Te  Te120  1  0.76663191  0.57551454  0.25764988  1
  Te  Te121  1  0.77315218  0.55387183  0.54974890  1
  Te  Te122  1  0.74553859  0.58031281  0.94888865  1
  Te  Te123  1  0.73357088  0.90096349  0.25575388  1
  Te  Te124  1  0.73853355  0.93187120  0.58532240  1
  Te  Te125  1  0.76586840  0.89327975  0.91243696  1
  Te  Te126  1  0.24167939  0.26619298  0.08663523  1
  Te  Te127  1  0.25051823  0.26568667  0.40524192  1
  Te  Te128  1  0.25785094  0.22641193  0.74251495  1
  Te  Te129  1  0.27414489  0.59646626  0.05418234  1
  Te  Te130  1  0.22345381  0.57542229  0.42727721  1
  Te  Te131  1  0.25705866  0.57158979  0.76488339  1
  Te  Te132  1  0.22680613  0.95412699  0.11763020  1
  Te  Te133  1  0.25648651  0.92357336  0.43294880  1
  Te  Te134  1  0.26207760  0.90126984  0.73649717  1
  Te  Te135  1  0.59273357  0.22169998  0.06221481  1
  Te  Te136  1  0.60531563  0.26009886  0.41881416  1
  Te  Te137  1  0.59677191  0.27022746  0.72417815  1
  Te  Te138  1  0.58439783  0.56518751  0.15127218  1
  Te  Te139  1  0.59205788  0.58190773  0.38330669  1
  Te  Te140  1  0.57292944  0.60536153  0.75181649  1
  Te  Te141  1  0.58781145  0.92920910  0.03647991  1
  Te  Te142  1  0.56924207  0.93007490  0.43018901  1
  Te  Te143  1  0.59759965  0.89655961  0.77183035  1
  Te  Te144  1  0.91772467  0.26081945  0.09350676  1
  Te  Te145  1  0.97078474  0.20580379  0.43588857  1
  Te  Te146  1  0.90372549  0.24522627  0.74695901  1
  Te  Te147  1  0.91656241  0.55221882  0.05304046  1
  Te  Te148  1  0.93821491  0.58332117  0.42674374  1
  Te  Te149  1  0.90259063  0.55749385  0.74237329  1
  Te  Te150  1  0.92273143  0.92469939  0.09990922  1
  Te  Te151  1  0.92119707  0.93769246  0.44362118  1
  Te  Te152  1  0.91738995  0.90925118  0.74317301  1
  Te  Te153  1  0.23950208  0.06713091  0.24259814  1
  Te  Te154  1  0.23797670  0.07797703  0.56971763  1
  Te  Te155  1  0.26644837  0.09597639  0.91110890  1
  Te  Te156  1  0.25312265  0.42181049  0.27337972  1
  Te  Te157  1  0.25068770  0.41005432  0.58393971  1
  Te  Te158  1  0.24647612  0.40270740  0.90244337  1
  Te  Te159  1  0.23315858  0.73869268  0.23467154  1
  Te  Te160  1  0.24317145  0.71923380  0.57382428  1
  Te  Te161  1  0.29077978  0.78077303  0.93443320  1
  Te  Te162  1  0.58136957  0.07961468  0.23550308  1
  Te  Te163  1  0.59318578  0.10888838  0.56990355  1
  Te  Te164  1  0.53463021  0.10470326  0.88389037  1
  Te  Te165  1  0.61517544  0.39457141  0.22934735  1
  Te  Te166  1  0.58504835  0.43398743  0.57665071  1
  Te  Te167  1  0.56665950  0.42101233  0.95426261  1
  Te  Te168  1  0.56755989  0.74157484  0.20464867  1
  Te  Te169  1  0.58197329  0.72438879  0.55788090  1
  Te  Te170  1  0.57645028  0.73210878  0.95521582  1
  Te  Te171  1  0.87439570  0.08977462  0.25923918  1
  Te  Te172  1  0.90733559  0.08490908  0.61101542  1
  Te  Te173  1  0.90444991  0.07794165  0.91308212  1
  Te  Te174  1  0.92921149  0.42068223  0.24518875  1
  Te  Te175  1  0.82904594  0.39876388  0.58897142  1
  Te  Te176  1  0.91619973  0.39577613  0.91415327  1
  Te  Te177  1  0.90719023  0.75735879  0.24569719  1
  Te  Te178  1  0.90720719  0.75044261  0.60057177  1
  Te  Te179  1  0.92095134  0.74074414  0.89249552  1
