# generated using pymatgen
data_In2Te3
_symmetry_space_group_name_H-M   'P 1'
_cell_length_a   18.89273281
_cell_length_b   18.89855202
_cell_length_c   18.86716579
_cell_angle_alpha   89.98062044
_cell_angle_beta   89.97769672
_cell_angle_gamma   90.16713760
_symmetry_Int_Tables_number   1
_chemical_formula_structural   In2Te3
_chemical_formula_sum   'In72 Te108'
_cell_volume   6736.40319025
_cell_formula_units_Z   36
loop_
 _symmetry_equiv_pos_site_id
 _symmetry_equiv_pos_as_xyz
  1  'x, y, z'
loop_
 _atom_site_type_symbol
 _atom_site_label
 _atom_site_symmetry_multiplicity
 _atom_site_fract_x
 _atom_site_fract_y
 _atom_site_fract_z
 _atom_site_occupancy
  In  In0  1  0.00051535  0.01173975  0.65076388  1
  In  In1  1  0.83661586  0.62718883  0.13231100  1
  In  In2  1  -0.01462334  0.36555927  0.33634411  1
  In  In3  1  0.14278409  0.64722912  0.18667051  1
  In  In4  1  0.85933816  0.81384486  -0.00616576  1
  In  In5  1  0.65372675  0.31913753  0.32166169  1
  In  In6  1  0.64863464  0.83972829  0.15949777  1
  In  In7  1  0.84207623  0.82957487  0.34740296  1
  In  In8  1  -0.01671318  0.66076295  0.01161912  1
  In  In9  1  0.34103639  0.16911473  0.49860925  1
  In  In10  1  -0.01071196  0.17847348  0.82546455  1
  In  In11  1  0.17200440  0.66843491  0.83470618  1
  In  In12  1  0.16486041  0.82770850  0.32079192  1
  In  In13  1  0.68364670  0.00758773  0.02605929  1
  In  In14  1  0.72025460  0.46449156  0.79728323  1
  In  In15  1  0.68064783  0.66180072  0.31947893  1
  In  In16  1  0.84344552  0.00630319  0.49647466  1
  In  In17  1  0.16458081  0.32374709  0.82612231  1
  In  In18  1  0.31226023  0.67656676  0.02310473  1
  In  In19  1  -0.02952409  0.63893255  0.35672644  1
  In  In20  1  0.17256976  -0.01693743  0.81006341  1
  In  In21  1  0.14865858  0.34481802  0.15175111  1
  In  In22  1  0.65612137  0.01589539  0.35903400  1
  In  In23  1  -0.02715314  0.50344401  0.83691585  1
  In  In24  1  0.33606899  0.16935404  0.82526217  1
  In  In25  1  0.33176313  0.67272176  0.67012286  1
  In  In26  1  0.32959329  0.50729696  0.82655578  1
  In  In27  1  0.18928280  0.63791735  0.46215717  1
  In  In28  1  -0.00687932  0.34524161  0.65244548  1
  In  In29  1  0.50826141  0.68037636  0.48968504  1
  In  In30  1  0.34930173  0.82669644  0.51772547  1
  In  In31  1  0.34522522  0.01628908  0.33657647  1
  In  In32  1  0.66862669  0.17737405  0.81943030  1
  In  In33  1  0.00898011  0.82078362  0.18156152  1
  In  In34  1  0.48457322  0.51817658  0.66820998  1
  In  In35  1  0.48940097  0.50986982  0.02326925  1
  In  In36  1  0.18004636  0.15365664  0.32723050  1
  In  In37  1  0.82105821  0.32208703  0.51673132  1
  In  In38  1  0.64505624  0.03404984  0.63009092  1
  In  In39  1  0.16885269  -0.00593486  0.51017310  1
  In  In40  1  0.67279879  0.47707174  0.17771370  1
  In  In41  1  0.47881955  0.66004987  0.19751159  1
  In  In42  1  0.33987895  -0.00706913  0.02287781  1
  In  In43  1  0.51674422  0.30263620  0.18806050  1
  In  In44  1  0.33890936  0.33477056  0.32054871  1
  In  In45  1  0.00434635  0.64193158  0.64358612  1
  In  In46  1  0.83799265  0.00817183  0.16799248  1
  In  In47  1  0.49618875  0.02786939  0.17549779  1
  In  In48  1  0.00657721  0.82302929  0.83728568  1
  In  In49  1  0.65955329  0.65823961  -0.02604117  1
  In  In50  1  0.66031633  0.83221264  0.50900545  1
  In  In51  1  0.66471292  0.35473459  0.01763988  1
  In  In52  1  0.83721457  0.18505793  0.00888752  1
  In  In53  1  0.68770671  0.49243768  0.51002032  1
  In  In54  1  0.32787105  0.50487446  0.18762695  1
  In  In55  1  0.32988227  0.83961596  0.17197192  1
  In  In56  1  0.79173991  -0.00375177  0.81546334  1
  In  In57  1  0.32772611  0.32477934  -0.01343935  1
  In  In58  1  0.01263447  0.20044865  0.48531873  1
  In  In59  1  0.85221541  0.81198306  0.66244109  1
  In  In60  1  0.17172512  0.17297845  0.01303592  1
  In  In61  1  0.65512539  0.82983493  0.81075153  1
  In  In62  1  0.67172379  0.65237858  0.65018906  1
  In  In63  1  -0.02509905  0.17052816  0.18792732  1
  In  In64  1  0.48796461  0.00363678  0.84982957  1
  In  In65  1  0.35068849  -0.00250924  0.65733643  1
  In  In66  1  0.49030629  0.68667102  0.80926849  1
  In  In67  1  0.01485539  0.02658990  -0.01447238  1
  In  In68  1  0.52057982  0.34488276  0.82142236  1
  In  In69  1  0.49419326  0.32943168  0.48845944  1
  In  In70  1  0.83264785  0.49198850  0.01824949  1
  In  In71  1  0.18822837  0.37224571  0.52534920  1
  Te  Te72  1  0.08261802  0.08900170  0.10338573  1
  Te  Te73  1  0.08291552  0.08168180  0.41944889  1
  Te  Te74  1  0.08652086  0.09381814  0.74678099  1
  Te  Te75  1  0.06681391  0.42676011  0.06486703  1
  Te  Te76  1  0.07886489  0.43142546  0.43918844  1
  Te  Te77  1  0.07472714  0.42348276  0.75387530  1
  Te  Te78  1  0.09098720  0.74510279  0.07878184  1
  Te  Te79  1  0.08212228  0.73468398  0.40708380  1
  Te  Te80  1  0.08470595  0.74442279  0.73685751  1
  Te  Te81  1  0.41758961  0.10432671  0.07692172  1
  Te  Te82  1  0.44195670  0.07983302  0.43293148  1
  Te  Te83  1  0.43689813  0.09538628  0.73916835  1
  Te  Te84  1  0.40701592  0.40817645  0.09732530  1
  Te  Te85  1  0.38916352  0.42413164  0.43184913  1
  Te  Te86  1  0.40635189  0.40806609  0.74094652  1
  Te  Te87  1  0.42756814  0.75003215  0.08840762  1
  Te  Te88  1  0.41270567  0.75424279  0.40657805  1
  Te  Te89  1  0.40927761  0.78200858  0.73324122  1
  Te  Te90  1  0.74502088  0.11844292  0.11268660  1
  Te  Te91  1  0.75117835  0.10129046  0.43290481  1
  Te  Te92  1  0.75513711  0.10081291  0.71454678  1
  Te  Te93  1  0.78072316  0.37090538  0.13417051  1
  Te  Te94  1  0.75018764  0.40350427  0.40653274  1
  Te  Te95  1  0.78252318  0.37619449  0.68991656  1
  Te  Te96  1  0.74475715  0.74386515  0.07877155  1
  Te  Te97  1  0.75236426  0.73875466  0.43070800  1
  Te  Te98  1  0.75583293  0.73457010  0.75154950  1
  Te  Te99  1  0.08123183  0.25821382  0.26661764  1
  Te  Te100  1  0.10315820  0.26041831  0.59085370  1
  Te  Te101  1  0.07329304  0.25381137  0.92786928  1
  Te  Te102  1  0.07113411  0.56027888  0.28234604  1
  Te  Te103  1  0.09646803  0.56311364  0.55377048  1
  Te  Te104  1  0.07885363  0.58347583  0.91675953  1
  Te  Te105  1  0.07433678  0.92531575  0.26005397  1
  Te  Te106  1  0.08136436  0.90670645  0.59060441  1
  Te  Te107  1  0.09388851  0.91235772  0.92380142  1
  Te  Te108  1  0.43414348  0.22848484  0.28460583  1
  Te  Te109  1  0.41191642  0.26086401  0.58960727  1
  Te  Te110  1  0.43550214  0.25214678  0.90885739  1
  Te  Te111  1  0.40304363  0.57772588  0.29545552  1
  Te  Te112  1  0.40622358  0.59239064  0.56439803  1
  Te  Te113  1  0.41779831  0.59358236  0.91709610  1
  Te  Te114  1  0.42920319  0.91680796  0.25685075  1
  Te  Te115  1  0.44275768  0.93276580  0.56053477  1
  Te  Te116  1  0.39252987  0.91154670  0.91170272  1
  Te  Te117  1  0.74902055  0.25439740  0.23065162  1
  Te  Te118  1  0.70996384  0.27539281  0.60537859  1
  Te  Te119  1  0.74368596  0.26590746  0.91953673  1
  Te  Te120  1  0.77629860  0.55956392  0.25873801  1
  Te  Te121  1  0.78523711  0.57681017  0.58812350  1
  Te  Te122  1  0.76035483  0.56945651  0.90776420  1
  Te  Te123  1  0.74918407  0.91000330  0.25058873  1
  Te  Te124  1  0.75493747  0.91655642  0.59405788  1
  Te  Te125  1  0.74596403  0.89964028  0.92545592  1
  Te  Te126  1  0.26256209  0.25319285  0.10486886  1
  Te  Te127  1  0.24032095  0.25986336  0.41999582  1
  Te  Te128  1  0.25471505  0.25225856  0.73600680  1
  Te  Te129  1  0.23274754  0.56658097  0.08622275  1
  Te  Te130  1  0.27905765  0.53495129  0.40264211  1
  Te  Te131  1  0.22951353  0.56512496  0.72568710  1
  Te  Te132  1  0.23497565  0.91664333  0.09251905  1
  Te  Te133  1  0.25824244  0.91274801  0.41534873  1
  Te  Te134  1  0.25755054  0.90205796  0.72333475  1
  Te  Te135  1  0.57054669  0.25159465  0.06205127  1
  Te  Te136  1  0.60211261  0.23594113  0.43754553  1
  Te  Te137  1  0.58890392  0.25784890  0.72218745  1
  Te  Te138  1  0.59635806  0.58986997  0.10063346  1
  Te  Te139  1  0.59850951  0.58018653  0.41871465  1
  Te  Te140  1  0.59209255  0.57852942  0.75924750  1
  Te  Te141  1  0.56405034  0.92763396  0.07320421  1
  Te  Te142  1  0.57256406  0.91212305  0.42252010  1
  Te  Te143  1  0.58633289  0.94387654  0.74320878  1
  Te  Te144  1  0.94825307  0.25844428  0.07252901  1
  Te  Te145  1  0.90011618  0.25513197  0.40096720  1
  Te  Te146  1  0.90243138  0.26639149  0.74425832  1
  Te  Te147  1  0.96227063  0.53598416  0.10187350  1
  Te  Te148  1  0.90106818  0.56019513  0.46145972  1
  Te  Te149  1  0.90131472  0.56626417  0.72175516  1
  Te  Te150  1  0.92898729  0.91954496  0.07800194  1
  Te  Te151  1  0.93191903  0.90831877  0.43156643  1
  Te  Te152  1  0.91449474  0.92282423  0.76195844  1
  Te  Te153  1  0.26392041  0.08047842  0.23247669  1
  Te  Te154  1  0.24824038  0.09130961  0.59327539  1
  Te  Te155  1  0.24010352  0.08442207  0.90957447  1
  Te  Te156  1  0.22462384  0.42050754  0.26153130  1
  Te  Te157  1  0.26058155  0.44793871  0.62689117  1
  Te  Te158  1  0.23964549  0.42514001  0.91765048  1
  Te  Te159  1  0.25482310  0.72915548  0.24935893  1
  Te  Te160  1  0.23667712  0.73833825  0.57124065  1
  Te  Te161  1  0.26406291  0.75517962  0.90955162  1
  Te  Te162  1  0.58949799  0.10415981  0.26070430  1
  Te  Te163  1  0.56682720  0.11815482  0.53568490  1
  Te  Te164  1  0.60314422  0.08093348  0.91869653  1
  Te  Te165  1  0.55853042  0.42726238  0.26398850  1
  Te  Te166  1  0.57177830  0.42738386  0.58265934  1
  Te  Te167  1  0.58446288  0.44213055  0.92127133  1
  Te  Te168  1  0.57582169  0.75710868  0.26504604  1
  Te  Te169  1  0.57094580  0.75615130  0.60758608  1
  Te  Te170  1  0.56758356  0.76423438  0.91725044  1
  Te  Te171  1  0.90977305  0.07400828  0.27710730  1
  Te  Te172  1  0.92195283  0.11605901  0.57728672  1
  Te  Te173  1  0.88999104  0.07745027  0.91152448  1
  Te  Te174  1  0.88339554  0.41887763  0.24528297  1
  Te  Te175  1  0.93571947  0.42622839  0.53546943  1
  Te  Te176  1  0.88748275  0.40690102  0.91099075  1
  Te  Te177  1  0.90158200  0.72944699  0.23608056  1
  Te  Te178  1  0.93755799  0.74844637  0.56302347  1
  Te  Te179  1  0.91021093  0.71695627  0.88974761  1
