# generated using pymatgen
data_In2Te3
_symmetry_space_group_name_H-M   'P 1'
_cell_length_a   18.78262456
_cell_length_b   18.78238624
_cell_length_c   18.78169279
_cell_angle_alpha   89.88933027
_cell_angle_beta   89.90880783
_cell_angle_gamma   90.01348369
_symmetry_Int_Tables_number   1
_chemical_formula_structural   In2Te3
_chemical_formula_sum   'In72 Te108'
_cell_volume   6625.83176604
_cell_formula_units_Z   36
loop_
 _symmetry_equiv_pos_site_id
 _symmetry_equiv_pos_as_xyz
  1  'x, y, z'
loop_
 _atom_site_type_symbol
 _atom_site_label
 _atom_site_symmetry_multiplicity
 _atom_site_fract_x
 _atom_site_fract_y
 _atom_site_fract_z
 _atom_site_occupancy
  In  In0  1  0.00449548  0.82983462  0.16368063  1
  In  In1  1  0.82140704  0.35307846  0.51690009  1
  In  In2  1  0.68595146  0.30919052  -0.01323269  1
  In  In3  1  0.83311060  0.67467792  0.14915698  1
  In  In4  1  0.18655573  0.85792141  0.68500996  1
  In  In5  1  0.34299083  0.84203044  0.52300558  1
  In  In6  1  0.17005389  0.66285726  0.17691144  1
  In  In7  1  0.34954962  0.48796982  0.16359057  1
  In  In8  1  0.16680629  0.51118190  0.69012249  1
  In  In9  1  0.48914194  0.85294903  0.33138254  1
  In  In10  1  0.32914245  0.16811196  0.14079418  1
  In  In11  1  0.01761811  0.32046258  0.31443726  1
  In  In12  1  0.82810969  -0.00158163  0.49166857  1
  In  In13  1  -0.02096767  0.49163970  0.48988620  1
  In  In14  1  0.48998310  0.16462535  0.69210480  1
  In  In15  1  0.32838158  0.15424755  0.84038469  1
  In  In16  1  -0.00668510  0.33647351  0.66512158  1
  In  In17  1  0.66887224  0.50055597  0.84278146  1
  In  In18  1  0.82569559  0.83375585  0.69102026  1
  In  In19  1  0.31082892  0.33654177  0.32327087  1
  In  In20  1  0.82602821  0.30645294  0.12823528  1
  In  In21  1  0.49902535  0.48074403  0.33410310  1
  In  In22  1  0.18585338  -0.00891801  0.13788385  1
  In  In23  1  0.82688476  0.01131382  0.82843337  1
  In  In24  1  0.84376638  0.50982165  0.33125914  1
  In  In25  1  0.32483569  0.17853885  0.50538550  1
  In  In26  1  0.66819175  0.82890436  0.84471106  1
  In  In27  1  0.01441738  0.65769066  0.01690880  1
  In  In28  1  0.01864063  0.84275311  0.82098329  1
  In  In29  1  0.67889089  0.52458008  0.54013266  1
  In  In30  1  0.32288417  0.31661414  0.68823829  1
  In  In31  1  0.66505112  -0.01701660  0.69434944  1
  In  In32  1  0.16936936  0.67428572  0.50107119  1
  In  In33  1  -0.00850148  0.84460071  0.49533090  1
  In  In34  1  0.49992801  0.69326448  0.82052122  1
  In  In35  1  0.17683572  0.00618206  0.83406819  1
  In  In36  1  0.48969787  0.33177223  0.15786823  1
  In  In37  1  0.84590637  0.15282996  0.32750966  1
  In  In38  1  0.32467857  0.48688879  0.83873552  1
  In  In39  1  0.83252581  0.82454335  -0.00274714  1
  In  In40  1  -0.01206147  0.68200295  0.67627175  1
  In  In41  1  -0.00801137  0.51366964  0.17333871  1
  In  In42  1  0.63364490  0.86702199  0.13717998  1
  In  In43  1  0.16890801  0.33409736  0.51081397  1
  In  In44  1  0.66513156  0.16749029  0.48761290  1
  In  In45  1  0.67342053  0.67087433  0.32881657  1
  In  In46  1  0.32734822  0.69994014  -0.03034912  1
  In  In47  1  0.35308833  0.52467768  0.49806757  1
  In  In48  1  0.31565062  0.68925418  0.33254040  1
  In  In49  1  0.16768762  0.83137277  0.31497708  1
  In  In50  1  0.16783615  0.01875306  0.50316084  1
  In  In51  1  0.50466151  0.49098251  0.00852363  1
  In  In52  1  0.84766377  0.15611143  0.68912105  1
  In  In53  1  0.49283440  0.66866073  0.13540737  1
  In  In54  1  0.34719846  -0.01420013  0.67164414  1
  In  In55  1  0.17234495  0.31406591  0.16038604  1
  In  In56  1  0.52733651  0.67360179  0.53793119  1
  In  In57  1  0.49095673  0.14028754  -0.01227816  1
  In  In58  1  0.33816808  -0.00210905  0.31202488  1
  In  In59  1  0.83196587  0.82790341  0.33982553  1
  In  In60  1  0.49696930  0.48337767  0.65527513  1
  In  In61  1  0.65246014  0.33810831  0.69393027  1
  In  In62  1  -0.00227217  0.16845143  0.84332802  1
  In  In63  1  0.50274646  -0.01282496  0.50024186  1
  In  In64  1  0.52798636  0.12796050  0.29712870  1
  In  In65  1  0.00495821  0.02368813  -0.01485994  1
  In  In66  1  0.81410705  0.66654867  0.83206671  1
  In  In67  1  -0.00615988  0.47601289  0.86567145  1
  In  In68  1  0.65740229  0.32721817  0.32216207  1
  In  In69  1  0.79839627  0.02555918  0.15189537  1
  In  In70  1  0.17733752  0.48882482  -0.00561004  1
  In  In71  1  0.00824896  0.17034527  0.49471183  1
  Te  Te72  1  0.09375755  0.09433821  0.08020181  1
  Te  Te73  1  0.08090523  0.08155218  0.40252962  1
  Te  Te74  1  0.07338264  0.07659859  0.75508345  1
  Te  Te75  1  0.08269409  0.42158721  0.09304668  1
  Te  Te76  1  0.08653970  0.41696467  0.41129303  1
  Te  Te77  1  0.08742144  0.40516131  0.76479620  1
  Te  Te78  1  0.10921094  0.76133088  0.07630055  1
  Te  Te79  1  0.07627481  0.75146368  0.40781662  1
  Te  Te80  1  0.10591017  0.74025749  0.75019340  1
  Te  Te81  1  0.42861622  0.06243344  0.10213679  1
  Te  Te82  1  0.41068654  0.08140379  0.41980386  1
  Te  Te83  1  0.43070658  0.05377703  0.77910405  1
  Te  Te84  1  0.39426617  0.39275679  0.05577063  1
  Te  Te85  1  0.40687559  0.40095964  0.42554153  1
  Te  Te86  1  0.42655322  0.40033023  0.76186296  1
  Te  Te87  1  0.42052924  0.77516536  0.06003851  1
  Te  Te88  1  0.42265173  0.74329051  0.42858940  1
  Te  Te89  1  0.41136859  0.78835599  0.75288827  1
  Te  Te90  1  0.69257077  0.09624430  0.07345294  1
  Te  Te91  1  0.73460555  0.06966811  0.39380270  1
  Te  Te92  1  0.72347874  0.10601568  0.76452991  1
  Te  Te93  1  0.74120482  0.41458912  0.07620039  1
  Te  Te94  1  0.73654775  0.42534557  0.41228567  1
  Te  Te95  1  0.75810987  0.41787845  0.75645405  1
  Te  Te96  1  0.72450016  0.75453747  0.07791081  1
  Te  Te97  1  0.73930967  0.75579244  0.42866017  1
  Te  Te98  1  0.71593259  0.72300879  0.71749975  1
  Te  Te99  1  0.07089046  0.22107833  0.21998886  1
  Te  Te100  1  0.09276130  0.23820146  0.60230769  1
  Te  Te101  1  0.05075467  0.27158444  0.93792762  1
  Te  Te102  1  0.07388437  0.59441899  0.26508736  1
  Te  Te103  1  0.07647675  0.58154325  0.58413828  1
  Te  Te104  1  0.09435603  0.58546788  0.90916158  1
  Te  Te105  1  0.08444404  0.93427239  0.24114371  1
  Te  Te106  1  0.08545510  0.92051904  0.58822651  1
  Te  Te107  1  0.09506024  0.91180584  0.93141687  1
  Te  Te108  1  0.41291335  0.24334526  0.25707834  1
  Te  Te109  1  0.42528108  0.25720535  0.58884017  1
  Te  Te110  1  0.42614478  0.24515572  0.90552110  1
  Te  Te111  1  0.41700972  0.58931820  0.25940032  1
  Te  Te112  1  0.41247682  0.60526109  0.61222080  1
  Te  Te113  1  0.42197961  0.58391082  0.91637262  1
  Te  Te114  1  0.43340889  0.93361766  0.21775356  1
  Te  Te115  1  0.45694326  0.89058893  0.61088117  1
  Te  Te116  1  0.41557480  0.92680837  0.96330830  1
  Te  Te117  1  0.74716157  0.23645946  0.24188330  1
  Te  Te118  1  0.75395381  0.23772469  0.59094185  1
  Te  Te119  1  0.78348674  0.22622342  0.91412907  1
  Te  Te120  1  0.74805628  0.57796759  0.23376761  1
  Te  Te121  1  0.76569250  0.61330308  0.61388150  1
  Te  Te122  1  0.75381255  0.58084507  0.93552296  1
  Te  Te123  1  0.75163187  0.90209218  0.22844823  1
  Te  Te124  1  0.74299321  0.91137166  0.58363716  1
  Te  Te125  1  0.74650965  0.93069554  0.93082635  1
  Te  Te126  1  0.24996934  0.25344759  0.04887748  1
  Te  Te127  1  0.22606095  0.23840789  0.40503765  1
  Te  Te128  1  0.22800963  0.23481252  0.76459399  1
  Te  Te129  1  0.26525918  0.59117247  0.07792951  1
  Te  Te130  1  0.24210714  0.57706308  0.40722882  1
  Te  Te131  1  0.26352277  0.59639050  0.75993400  1
  Te  Te132  1  0.27886571  0.93840729  0.02412540  1
  Te  Te133  1  0.25486566  0.91189076  0.41935769  1
  Te  Te134  1  0.29459704  0.88449917  0.79670899  1
  Te  Te135  1  0.57808096  0.23997312  0.07978147  1
  Te  Te136  1  0.56217347  0.24004157  0.40349395  1
  Te  Te137  1  0.58060104  0.24156584  0.78042434  1
  Te  Te138  1  0.59620615  0.57743088  0.08485366  1
  Te  Te139  1  0.57870358  0.57757858  0.42205229  1
  Te  Te140  1  0.57373828  0.57512217  0.74908510  1
  Te  Te141  1  0.56114518  0.92751739  0.01941994  1
  Te  Te142  1  0.59550382  0.91663650  0.41025476  1
  Te  Te143  1  0.56726296  0.91998550  0.78465097  1
  Te  Te144  1  0.94137818  0.24983420  0.05112853  1
  Te  Te145  1  0.90848274  0.26647294  0.42356621  1
  Te  Te146  1  0.90225831  0.27167392  0.77096391  1
  Te  Te147  1  0.90122446  0.56630178  0.06213049  1
  Te  Te148  1  0.90428818  0.60218013  0.42772436  1
  Te  Te149  1  0.92481350  0.58034658  0.77042654  1
  Te  Te150  1  0.91913688  0.92177322  0.07638645  1
  Te  Te151  1  0.92714369  0.93668237  0.39222377  1
  Te  Te152  1  0.92832873  0.93524474  0.74102752  1
  Te  Te153  1  0.24235002  0.09164887  0.24325827  1
  Te  Te154  1  0.25436730  0.08857693  0.60861955  1
  Te  Te155  1  0.24959266  0.07692715  0.94537555  1
  Te  Te156  1  0.22984245  0.43478266  0.24137484  1
  Te  Te157  1  0.26075008  0.42878457  0.58855238  1
  Te  Te158  1  0.23953881  0.38604463  0.90799162  1
  Te  Te159  1  0.27215500  0.77881298  0.21832766  1
  Te  Te160  1  0.25617076  0.74609413  0.60262727  1
  Te  Te161  1  0.23033564  0.78677431  0.90070274  1
  Te  Te162  1  0.62312590  0.05672331  0.21102381  1
  Te  Te163  1  0.58431460  0.08366464  0.59065831  1
  Te  Te164  1  0.61264147  0.06244680  0.94263047  1
  Te  Te165  1  0.59027567  0.42565308  0.22562422  1
  Te  Te166  1  0.59180841  0.40151024  0.56774921  1
  Te  Te167  1  0.58010991  0.39861330  0.91454840  1
  Te  Te168  1  0.57618037  0.75329487  0.24285194  1
  Te  Te169  1  0.61253878  0.76825511  0.60807757  1
  Te  Te170  1  0.59012412  0.73600494  0.92945268  1
  Te  Te171  1  0.91563788  0.09002531  0.21431414  1
  Te  Te172  1  0.92264080  0.07695676  0.58173662  1
  Te  Te173  1  0.87864298  0.10370014  0.94175169  1
  Te  Te174  1  0.90494700  0.39864924  0.24234093  1
  Te  Te175  1  0.89783472  0.44402326  0.61071471  1
  Te  Te176  1  0.92616846  0.37033463  0.94847375  1
  Te  Te177  1  0.92271276  0.73775497  0.25409498  1
  Te  Te178  1  0.89921599  0.75529736  0.57752065  1
  Te  Te179  1  0.93128714  0.74783488  0.90934148  1
