# generated using pymatgen
data_In2Te3
_symmetry_space_group_name_H-M   'P 1'
_cell_length_a   18.82820788
_cell_length_b   18.84537123
_cell_length_c   18.84251936
_cell_angle_alpha   89.96921547
_cell_angle_beta   90.04350211
_cell_angle_gamma   89.93657626
_symmetry_Int_Tables_number   1
_chemical_formula_structural   In2Te3
_chemical_formula_sum   'In72 Te108'
_cell_volume   6685.78178616
_cell_formula_units_Z   36
loop_
 _symmetry_equiv_pos_site_id
 _symmetry_equiv_pos_as_xyz
  1  'x, y, z'
loop_
 _atom_site_type_symbol
 _atom_site_label
 _atom_site_symmetry_multiplicity
 _atom_site_fract_x
 _atom_site_fract_y
 _atom_site_fract_z
 _atom_site_occupancy
  In  In0  1  0.34904589  0.50355289  0.16212525  1
  In  In1  1  0.17655285  0.32642397  0.13270533  1
  In  In2  1  0.15352445  0.66397130  0.19137435  1
  In  In3  1  0.01468315  0.34268847  -0.00295792  1
  In  In4  1  0.70539169  0.66914759  0.63223940  1
  In  In5  1  0.00307476  0.13970656  0.18472029  1
  In  In6  1  0.82970829  0.56090747  0.35323516  1
  In  In7  1  0.36111540  0.17325494  0.86250847  1
  In  In8  1  0.15794646  0.01019084  0.82637802  1
  In  In9  1  0.36506227  0.01279126  0.02738955  1
  In  In10  1  0.15818428  0.83958418  0.66235277  1
  In  In11  1  0.49179480  0.49212752  0.66699728  1
  In  In12  1  0.33033030  -0.01392735  0.65752365  1
  In  In13  1  0.53509601  0.11871663  0.31904510  1
  In  In14  1  0.82356920  0.67852421  0.85110917  1
  In  In15  1  0.35111406  0.11821095  0.45090381  1
  In  In16  1  0.67071589  0.52438434  0.83345745  1
  In  In17  1  -0.03218916  0.84392733  0.80764639  1
  In  In18  1  0.35969767  0.32330636  0.33258266  1
  In  In19  1  0.00507274  0.34287955  0.32684347  1
  In  In20  1  0.66870722  0.15394416  0.49168866  1
  In  In21  1  -0.02012599  0.18135244  0.51218433  1
  In  In22  1  0.53577195  0.85418376  0.03463424  1
  In  In23  1  0.84211537  0.34906666  0.48864633  1
  In  In24  1  0.36627706  0.69107642  0.03257268  1
  In  In25  1  0.78415963  -0.02907651  0.50448239  1
  In  In26  1  -0.01412925  0.14509672  0.83267161  1
  In  In27  1  0.66554427  0.34540300  0.68181389  1
  In  In28  1  0.16297883  0.65055381  0.85690415  1
  In  In29  1  -0.01480944  0.49726608  0.83235820  1
  In  In30  1  0.32322801  0.84398664  0.48536780  1
  In  In31  1  0.84604177  0.32981400  0.83722418  1
  In  In32  1  0.63050801  0.13657759  0.16254978  1
  In  In33  1  0.78839112  0.13784360  0.67626496  1
  In  In34  1  -0.02389910  -0.01851421  0.33257998  1
  In  In35  1  0.50918356  0.67006968  0.85286600  1
  In  In36  1  -0.04832097  0.54123794  0.16086497  1
  In  In37  1  0.16547191  0.49898703  -0.01527600  1
  In  In38  1  0.82087504  0.32820771  0.15083519  1
  In  In39  1  -0.03909866  0.71139762  0.65591290  1
  In  In40  1  0.16602819  0.17067125  0.02028788  1
  In  In41  1  0.50870964  0.32859014  0.53985070  1
  In  In42  1  0.13217472  -0.03385535  0.48819005  1
  In  In43  1  0.68501047  0.50598792  0.15230604  1
  In  In44  1  0.34745140  0.67627264  0.67350715  1
  In  In45  1  0.52461797  0.80276094  0.66030101  1
  In  In46  1  0.51422758  0.53661643  0.35067305  1
  In  In47  1  0.30920656  0.68352396  0.34949380  1
  In  In48  1  -0.00152138  0.34952980  0.67116648  1
  In  In49  1  0.15253302  0.34954103  0.46131377  1
  In  In50  1  0.53259008  0.14678402  0.66366625  1
  In  In51  1  0.32408286  0.46861815  0.84509441  1
  In  In52  1  0.66370924  0.33014876  0.31812843  1
  In  In53  1  0.34591203  0.32532602  0.66551674  1
  In  In54  1  0.54760835  0.70474259  0.19663210  1
  In  In55  1  0.82981238  0.15138103  -0.00432414  1
  In  In56  1  0.18487935  0.12899773  0.31920286  1
  In  In57  1  0.64771933  0.84503355  0.84663177  1
  In  In58  1  0.10864255  0.72823505  0.48356683  1
  In  In59  1  0.52691145  0.69912352  0.48354386  1
  In  In60  1  0.80945139  0.84021292  0.01033917  1
  In  In61  1  0.68045322  -0.02644121  0.29837506  1
  In  In62  1  0.13603125  0.50947012  0.66594993  1
  In  In63  1  0.18334468  0.15745911  0.67099595  1
  In  In64  1  -0.02833117  0.82853691  0.16134474  1
  In  In65  1  0.13588732  0.47704020  0.32527031  1
  In  In66  1  0.31885535  0.51162227  0.49633778  1
  In  In67  1  0.51783445  0.32430614  0.15122735  1
  In  In68  1  0.17973745  0.01118904  0.17443827  1
  In  In69  1  0.15703411  0.82997317  0.00304084  1
  In  In70  1  0.51386725  0.01468146  0.86374823  1
  In  In71  1  0.51387324  0.48174193  0.00146934  1
  Te  Te72  1  0.07417310  0.06316890  0.07345518  1
  Te  Te73  1  0.06770734  0.09314303  0.41790961  1
  Te  Te74  1  0.06740385  0.07310955  0.72127100  1
  Te  Te75  1  0.07737814  0.44062467  0.10517426  1
  Te  Te76  1  0.03572054  0.44346283  0.44006269  1
  Te  Te77  1  0.09544764  0.40924689  0.77408696  1
  Te  Te78  1  0.06983398  0.73573079  0.08547069  1
  Te  Te79  1  0.04055933  0.79417542  0.37099505  1
  Te  Te80  1  0.08606140  0.74044715  0.76032091  1
  Te  Te81  1  0.48853919  0.08589574  0.07103841  1
  Te  Te82  1  0.46572530  0.02722343  0.41915888  1
  Te  Te83  1  0.41034333  0.07925280  0.75062354  1
  Te  Te84  1  0.40726436  0.39700550  0.07160846  1
  Te  Te85  1  0.42668720  0.42332617  0.43100794  1
  Te  Te86  1  0.43475365  0.39378758  0.77044630  1
  Te  Te87  1  0.43428901  0.78731647  0.13024552  1
  Te  Te88  1  0.42649794  0.77289465  0.39601255  1
  Te  Te89  1  0.41976096  0.76398666  0.77176116  1
  Te  Te90  1  0.73744883  0.06504619  0.08084328  1
  Te  Te91  1  0.75060751  0.07742601  0.39178221  1
  Te  Te92  1  0.73087924  0.05050680  0.78537715  1
  Te  Te93  1  0.72381417  0.39575801  0.06277793  1
  Te  Te94  1  0.75355179  0.42791040  0.39188926  1
  Te  Te95  1  0.76652867  0.43226580  0.75410246  1
  Te  Te96  1  0.76034235  0.73786386  0.11139258  1
  Te  Te97  1  0.79398955  0.71033281  0.36155446  1
  Te  Te98  1  0.73868929  0.75648600  0.75155603  1
  Te  Te99  1  0.10120778  0.24871750  0.24815971  1
  Te  Te100  1  0.09473410  0.25871090  0.58292776  1
  Te  Te101  1  0.08161731  0.23799339  0.90814415  1
  Te  Te102  1  0.04759811  0.59111278  0.27267064  1
  Te  Te103  1  0.07047963  0.61842381  0.58868965  1
  Te  Te104  1  0.05036926  0.58823949  0.93747957  1
  Te  Te105  1  0.08068180  0.91678218  0.24027965  1
  Te  Te106  1  0.04532120  0.90788456  0.59353946  1
  Te  Te107  1  0.07343243  0.91093606  0.90422040  1
  Te  Te108  1  0.45020122  0.23211912  0.25220923  1
  Te  Te109  1  0.40747823  0.21882089  0.57398715  1
  Te  Te110  1  0.45638584  0.21388713  0.96693321  1
  Te  Te111  1  0.41010714  0.60269151  0.26007082  1
  Te  Te112  1  0.42750571  0.60064440  0.56447884  1
  Te  Te113  1  0.40821428  0.57782175  0.92277034  1
  Te  Te114  1  0.35789009  0.97381803  0.30307256  1
  Te  Te115  1  0.42784088  0.89755219  0.58226357  1
  Te  Te116  1  0.42877324  0.90935292  0.93508232  1
  Te  Te117  1  0.73718316  0.23075253  0.23219080  1
  Te  Te118  1  0.74488415  0.26035309  0.57680971  1
  Te  Te119  1  0.75081218  0.23640237  0.90280610  1
  Te  Te120  1  0.72512792  0.61339414  0.24984841  1
  Te  Te121  1  0.79807144  0.57402987  0.56850536  1
  Te  Te122  1  0.75337163  0.58435351  0.94317106  1
  Te  Te123  1  0.73822744  0.86761021  0.20326644  1
  Te  Te124  1  0.77673807  0.90935666  0.64163832  1
  Te  Te125  1  0.76605707  0.92509500  0.89020489  1
  Te  Te126  1  0.27616482  0.21973750  0.10782720  1
  Te  Te127  1  0.25667082  0.24455155  0.41474324  1
  Te  Te128  1  0.26059326  0.24644081  0.76563822  1
  Te  Te129  1  0.25157718  0.59008693  0.08152207  1
  Te  Te130  1  0.21362112  0.58204691  0.41389769  1
  Te  Te131  1  0.25947890  0.57478678  0.74704600  1
  Te  Te132  1  0.25674599  0.91636425  0.08150504  1
  Te  Te133  1  0.23677223  0.92086797  0.38755430  1
  Te  Te134  1  0.25253378  0.90695644  0.76184526  1
  Te  Te135  1  0.59022410  0.23724315  0.05179184  1
  Te  Te136  1  0.57310569  0.25270962  0.42043079  1
  Te  Te137  1  0.58025869  0.24981704  0.75598980  1
  Te  Te138  1  0.56781317  0.58825452  0.09465794  1
  Te  Te139  1  0.62359783  0.60922586  0.41673489  1
  Te  Te140  1  0.57803135  0.60198034  0.73085250  1
  Te  Te141  1  0.66260923  0.92476519  0.07513411  1
  Te  Te142  1  0.63739851  0.89347668  0.41585623  1
  Te  Te143  1  0.56181463  0.92214666  0.74688015  1
  Te  Te144  1  0.93597060  0.24641384  0.08689244  1
  Te  Te145  1  0.90655772  0.24577597  0.39447942  1
  Te  Te146  1  0.90889532  0.23851519  0.72871069  1
  Te  Te147  1  0.85616754  0.61866403  0.07939121  1
  Te  Te148  1  0.90660262  0.63012266  0.47091747  1
  Te  Te149  1  0.90955839  0.60017762  0.75052808  1
  Te  Te150  1  0.90221380  0.93319898  0.08274363  1
  Te  Te151  1  0.89740816  0.89955289  0.43149390  1
  Te  Te152  1  0.90750708  0.93630434  0.70899051  1
  Te  Te153  1  0.30398801  0.09381847  0.22770414  1
  Te  Te154  1  0.23903624  0.06301344  0.56174891  1
  Te  Te155  1  0.25445649  0.07490293  0.92691126  1
  Te  Te156  1  0.26286851  0.41592828  0.25418498  1
  Te  Te157  1  0.24442067  0.41788371  0.59142242  1
  Te  Te158  1  0.24847662  0.38491993  0.94011621  1
  Te  Te159  1  0.24713930  0.76405315  0.24325090  1
  Te  Te160  1  0.24925379  0.74218754  0.57520358  1
  Te  Te161  1  0.26075334  0.74204162  0.93035408  1
  Te  Te162  1  0.54086391  0.01473303  0.20642051  1
  Te  Te163  1  0.60363498  0.05257195  0.57726724  1
  Te  Te164  1  0.63177570  0.09913453  0.89171002  1
  Te  Te165  1  0.56823209  0.43376737  0.24927942  1
  Te  Te166  1  0.60389512  0.44123042  0.57408924  1
  Te  Te167  1  0.59986709  0.41499635  0.90345840  1
  Te  Te168  1  0.60534776  0.81242738  0.28468973  1
  Te  Te169  1  0.63568899  0.78399985  0.55386220  1
  Te  Te170  1  0.60140398  0.74101328  0.94897202  1
  Te  Te171  1  0.89357606  0.05406599  0.23282649  1
  Te  Te172  1  0.88019311  0.08150240  0.56688582  1
  Te  Te173  1  0.90477639  0.05295621  0.91250599  1
  Te  Te174  1  0.89932171  0.42021631  0.24337319  1
  Te  Te175  1  0.90465604  0.43569275  0.59409702  1
  Te  Te176  1  0.90202922  0.42766121  0.94175418  1
  Te  Te177  1  0.92443642  0.74428741  0.27688706  1
  Te  Te178  1  0.87757870  0.76434697  0.54340898  1
  Te  Te179  1  0.92142249  0.76554931  0.92693818  1
