# generated using pymatgen
data_In2Te3
_symmetry_space_group_name_H-M   'P 1'
_cell_length_a   18.94500159
_cell_length_b   18.94691052
_cell_length_c   18.94943461
_cell_angle_alpha   90.11429899
_cell_angle_beta   90.16163020
_cell_angle_gamma   90.17478044
_symmetry_Int_Tables_number   1
_chemical_formula_structural   In2Te3
_chemical_formula_sum   'In72 Te108'
_cell_volume   6801.81298004
_cell_formula_units_Z   36
loop_
 _symmetry_equiv_pos_site_id
 _symmetry_equiv_pos_as_xyz
  1  'x, y, z'
loop_
 _atom_site_type_symbol
 _atom_site_label
 _atom_site_symmetry_multiplicity
 _atom_site_fract_x
 _atom_site_fract_y
 _atom_site_fract_z
 _atom_site_occupancy
  In  In0  1  0.14054063  0.68279566  0.92409611  1
  In  In1  1  0.03660876  0.86578349  0.87104872  1
  In  In2  1  0.50377261  0.66997665  0.81535113  1
  In  In3  1  0.63239774  0.00867277  0.70575971  1
  In  In4  1  0.13795356  0.15535301  0.64716841  1
  In  In5  1  0.81634086  0.65185411  0.47988635  1
  In  In6  1  0.83617517  0.81940347  0.34314638  1
  In  In7  1  0.67714721  0.31380612  0.33816103  1
  In  In8  1  0.18675887  0.85216072  0.70004689  1
  In  In9  1  0.34800001  0.32631971  -0.01996089  1
  In  In10  1  0.47445483  0.27792018  0.82788378  1
  In  In11  1  0.62253709  0.84361393  0.85043029  1
  In  In12  1  0.52915137  0.51448476  -0.01785607  1
  In  In13  1  0.10775741  0.88069797  0.12638055  1
  In  In14  1  0.47631268  0.86394078  0.30059108  1
  In  In15  1  0.32878940  0.64429090  0.66894647  1
  In  In16  1  0.66140506  0.16093022  0.49055846  1
  In  In17  1  -0.00116079  0.81609287  0.50486615  1
  In  In18  1  0.32849553  0.15465207  0.49310576  1
  In  In19  1  0.31758983  0.30333138  0.65053320  1
  In  In20  1  0.02552728  0.17637361  0.84397197  1
  In  In21  1  0.84553568  0.31279532  0.86048030  1
  In  In22  1  0.45584669  0.49285663  0.35297326  1
  In  In23  1  0.33399815  0.66309360  0.00104100  1
  In  In24  1  0.63250395  0.16726605  0.86454284  1
  In  In25  1  0.84668727  0.50103799  0.32781055  1
  In  In26  1  0.00666932  0.34469138  0.00726831  1
  In  In27  1  0.64153627  0.50253613  0.48605519  1
  In  In28  1  0.31175536  0.47665350  0.81796324  1
  In  In29  1  0.47691055  0.14388885  0.01598784  1
  In  In30  1  0.33341595  0.50842467  0.14672060  1
  In  In31  1  0.78888050  0.82581375  0.67420750  1
  In  In32  1  0.01219000  0.66298189  0.32841577  1
  In  In33  1  0.66566428  0.69388416  0.32395125  1
  In  In34  1  0.37903403  0.85820210  0.85253452  1
  In  In35  1  0.17518184  0.12269386  0.31531621  1
  In  In36  1  0.48299802  0.69566710  0.14061395  1
  In  In37  1  0.05512140  0.00326159  -0.00032932  1
  In  In38  1  0.16446145  0.33301794  0.15934955  1
  In  In39  1  0.83283242  -0.01133139  0.50028521  1
  In  In40  1  0.48134794  0.13533735  0.30095221  1
  In  In41  1  0.65504441  0.36645340  0.64977779  1
  In  In42  1  -0.00577367  0.35144954  0.33270929  1
  In  In43  1  -0.02926234  0.00231949  0.66963031  1
  In  In44  1  0.86855434  0.67487978  0.85099683  1
  In  In45  1  0.18230735  0.51172908  0.31885033  1
  In  In46  1  0.64142172  0.00028493  0.31569687  1
  In  In47  1  0.16997627  0.33703204  0.84124516  1
  In  In48  1  0.87153389  0.64905542  0.14499740  1
  In  In49  1  0.49375681  0.00510976  0.50563969  1
  In  In50  1  0.17270939  0.32363051  0.49777994  1
  In  In51  1  0.68309181  0.46759101  0.17214724  1
  In  In52  1  0.49792854  0.32410177  0.17846714  1
  In  In53  1  0.15448997  -0.01649246  0.47550948  1
  In  In54  1  0.69427123  0.51640959  0.82686238  1
  In  In55  1  0.00552553  0.14813525  0.16809678  1
  In  In56  1  0.36591436  0.03695804  0.68398607  1
  In  In57  1  0.17071960  0.46362851  0.65342716  1
  In  In58  1  0.83996312  -0.00907903  0.83686146  1
  In  In59  1  0.84915042  0.19845412  0.30342976  1
  In  In60  1  0.81659203  0.17508101  0.65580047  1
  In  In61  1  0.32266205  0.83423841  0.48965179  1
  In  In62  1  0.64803373  0.91975073  0.13719032  1
  In  In63  1  0.48848714  0.70019260  0.51129159  1
  In  In64  1  0.67834824  0.67637718  -0.00829497  1
  In  In65  1  0.83558705  0.12261561  0.03684677  1
  In  In66  1  0.86935447  0.46717497  0.64140141  1
  In  In67  1  0.18393876  0.63432486  0.49962131  1
  In  In68  1  0.01405088  0.67216950  0.66763083  1
  In  In69  1  0.84879197  0.86963514  0.02054717  1
  In  In70  1  0.66137238  0.66648560  0.66295571  1
  In  In71  1  0.68086930  0.35657789  0.01771745  1
  Te  Te72  1  0.12874828  0.09145265  0.10349968  1
  Te  Te73  1  0.07769164  0.09381942  0.42045456  1
  Te  Te74  1  0.07961028  0.06398710  0.75699348  1
  Te  Te75  1  0.07213828  0.43660244  0.10596175  1
  Te  Te76  1  0.09859210  0.42605466  0.41440463  1
  Te  Te77  1  0.07788556  0.40479310  0.75000695  1
  Te  Te78  1  0.12163709  0.74099126  0.06514358  1
  Te  Te79  1  0.10052845  0.74086472  0.42483729  1
  Te  Te80  1  0.08845749  0.75617697  0.77072340  1
  Te  Te81  1  0.37108426  0.14066243  0.12188158  1
  Te  Te82  1  0.39757217  0.05561364  0.40053159  1
  Te  Te83  1  0.43548803  0.14019679  0.76451468  1
  Te  Te84  1  0.43777696  0.42434965  0.06753075  1
  Te  Te85  1  0.38906135  0.40061174  0.44126000  1
  Te  Te86  1  0.40853317  0.39003750  0.74495708  1
  Te  Te87  1  0.36301287  0.77213630  0.10034221  1
  Te  Te88  1  0.41040268  0.75983828  0.39043387  1
  Te  Te89  1  0.40882773  0.75447556  0.73706248  1
  Te  Te90  1  0.72420198  0.04754445  0.09383522  1
  Te  Te91  1  0.74818491  0.07241724  0.40556179  1
  Te  Te92  1  0.74989903  0.09214882  0.76865085  1
  Te  Te93  1  0.79307515  0.42741734  0.08385630  1
  Te  Te94  1  0.74922115  0.42287067  0.41559613  1
  Te  Te95  1  0.77191360  0.40685255  0.75036794  1
  Te  Te96  1  0.77338967  0.75060707  0.08387631  1
  Te  Te97  1  0.72971794  0.76956807  0.44045191  1
  Te  Te98  1  0.73591391  0.73659178  0.78437924  1
  Te  Te99  1  0.08427628  0.24964839  0.25948724  1
  Te  Te100  1  0.06423093  0.26929956  0.58523497  1
  Te  Te101  1  0.10796452  0.24699586  0.94788913  1
  Te  Te102  1  0.07153656  0.56508881  0.23505374  1
  Te  Te103  1  0.07709794  0.56574962  0.58175629  1
  Te  Te104  1  0.04391851  0.57267415  0.92510332  1
  Te  Te105  1  0.11810586  0.90175721  0.27332709  1
  Te  Te106  1  0.07639323  0.90834638  0.60003070  1
  Te  Te107  1  0.16432605  0.90455517  0.94425985  1
  Te  Te108  1  0.39936704  0.25278802  0.26093405  1
  Te  Te109  1  0.42096623  0.24195011  0.56690111  1
  Te  Te110  1  0.37169467  0.19383054  0.90412866  1
  Te  Te111  1  0.42844915  0.58930358  0.23329529  1
  Te  Te112  1  0.42558630  0.58596245  0.57769865  1
  Te  Te113  1  0.41519378  0.56595102  0.89537210  1
  Te  Te114  1  0.43643741  0.95688142  0.18881366  1
  Te  Te115  1  0.40108962  0.91859076  0.58794368  1
  Te  Te116  1  0.41550085  0.96194701  0.95261778  1
  Te  Te117  1  0.73794195  0.24865850  0.22313872  1
  Te  Te118  1  0.73814663  0.26819639  0.56632576  1
  Te  Te119  1  0.74754644  0.22940700  0.94483136  1
  Te  Te120  1  0.75682749  0.59774881  0.24951441  1
  Te  Te121  1  0.75005392  0.56557318  0.58726815  1
  Te  Te122  1  0.78161777  0.57994756  0.93375267  1
  Te  Te123  1  0.74780623  0.90675318  0.25502117  1
  Te  Te124  1  0.72992020  0.94390556  0.60258872  1
  Te  Te125  1  0.73986779  0.91368167  0.91989412  1
  Te  Te126  1  0.26754490  0.25237800  0.08310340  1
  Te  Te127  1  0.24357073  0.23574757  0.39845573  1
  Te  Te128  1  0.22735583  0.23066376  0.74614622  1
  Te  Te129  1  0.23167154  0.59532476  0.08413294  1
  Te  Te130  1  0.27512558  0.60178820  0.39120992  1
  Te  Te131  1  0.22038942  0.57472205  0.74858226  1
  Te  Te132  1  0.29272304  0.91543449  0.16128378  1
  Te  Te133  1  0.24218513  0.90474742  0.38513326  1
  Te  Te134  1  0.27864495  0.94911276  0.77276831  1
  Te  Te135  1  0.56739021  0.26019828  0.06123978  1
  Te  Te136  1  0.56644435  0.22859195  0.39559321  1
  Te  Te137  1  0.60251791  0.25864780  0.74785649  1
  Te  Te138  1  0.60776153  0.58151253  0.09315190  1
  Te  Te139  1  0.56926156  0.60604389  0.40210807  1
  Te  Te140  1  0.57804834  0.56292127  0.73783464  1
  Te  Te141  1  0.52052503  0.91924387  0.06085072  1
  Te  Te142  1  0.56950439  0.91084811  0.41446069  1
  Te  Te143  1  0.52950683  0.92272591  0.76793972  1
  Te  Te144  1  0.92033940  0.23869858  0.08194694  1
  Te  Te145  1  0.90371299  0.27120440  0.42137124  1
  Te  Te146  1  0.92077232  0.23666456  0.75222726  1
  Te  Te147  1  0.97475292  0.58450214  0.06335284  1
  Te  Te148  1  0.93350264  0.57463574  0.42868674  1
  Te  Te149  1  0.91382717  0.58307510  0.73855312  1
  Te  Te150  1  0.95966941  0.93208563  0.09895788  1
  Te  Te151  1  0.93285723  0.91599101  0.41226606  1
  Te  Te152  1  0.91173078  0.88723326  0.75279332  1
  Te  Te153  1  0.26921954  0.06110342  0.21618391  1
  Te  Te154  1  0.24301035  0.06240954  0.58413272  1
  Te  Te155  1  0.19503494  0.05209436  0.96641310  1
  Te  Te156  1  0.26704911  0.41133342  0.24117691  1
  Te  Te157  1  0.28291356  0.42633269  0.55304544  1
  Te  Te158  1  0.24090358  0.42875401  0.94217194  1
  Te  Te159  1  0.16086255  0.76799278  0.21697637  1
  Te  Te160  1  0.23671885  0.75275345  0.59374777  1
  Te  Te161  1  0.27626128  0.74381946  0.88877488  1
  Te  Te162  1  0.59304003  0.09394025  0.21153883  1
  Te  Te163  1  0.57322938  0.09756477  0.59654437  1
  Te  Te164  1  0.56429447  0.05550193  0.93328297  1
  Te  Te165  1  0.57344735  0.42270437  0.27164155  1
  Te  Te166  1  0.55286747  0.40603645  0.55213832  1
  Te  Te167  1  0.60452064  0.41415971  0.89818107  1
  Te  Te168  1  0.58278211  0.77430893  0.22442450  1
  Te  Te169  1  0.58161962  0.77108273  0.60064833  1
  Te  Te170  1  0.55121651  0.74388423  0.94046886  1
  Te  Te171  1  0.91455035  0.07662128  0.25743283  1
  Te  Te172  1  0.91504529  0.09904873  0.56747496  1
  Te  Te173  1  0.92882764  0.07956135  0.92237786  1
  Te  Te174  1  0.90424350  0.40909815  0.22956644  1
  Te  Te175  1  0.93250088  0.36749226  0.55814060  1
  Te  Te176  1  0.93435420  0.42220255  0.90392191  1
  Te  Te177  1  0.92886049  0.75523642  0.24183324  1
  Te  Te178  1  0.89284084  0.74427314  0.58738768  1
  Te  Te179  1  0.93881657  0.77390472  0.94367546  1
