# generated using pymatgen
data_In2Te3
_symmetry_space_group_name_H-M   'P 1'
_cell_length_a   18.80488502
_cell_length_b   18.80815828
_cell_length_c   18.79593419
_cell_angle_alpha   90.00713896
_cell_angle_beta   90.00349267
_cell_angle_gamma   90.01806148
_symmetry_Int_Tables_number   1
_chemical_formula_structural   In2Te3
_chemical_formula_sum   'In72 Te108'
_cell_volume   6647.84436322
_cell_formula_units_Z   36
loop_
 _symmetry_equiv_pos_site_id
 _symmetry_equiv_pos_as_xyz
  1  'x, y, z'
loop_
 _atom_site_type_symbol
 _atom_site_label
 _atom_site_symmetry_multiplicity
 _atom_site_fract_x
 _atom_site_fract_y
 _atom_site_fract_z
 _atom_site_occupancy
  In  In0  1  0.49658270  0.33278101  0.83507300  1
  In  In1  1  0.82735908  0.31481773  0.81373846  1
  In  In2  1  0.17800775  0.29447632  0.79593910  1
  In  In3  1  0.49520977  0.00085817  0.48073547  1
  In  In4  1  0.85354874  0.67927314  0.83823858  1
  In  In5  1  0.84304024  0.00046776  0.16995997  1
  In  In6  1  0.65730344  0.67215438  0.64747438  1
  In  In7  1  0.01908320  0.00244153  0.66612249  1
  In  In8  1  0.47653604  0.50642315  0.65462410  1
  In  In9  1  0.50494269  0.66242028  0.86552936  1
  In  In10  1  0.67208420  0.67501780  0.02907207  1
  In  In11  1  0.66752242  -0.00146621  -0.00076322  1
  In  In12  1  0.15179914  0.02038049  0.84326946  1
  In  In13  1  0.69060356  0.47718312  0.79983929  1
  In  In14  1  0.67497015  0.32581101  0.65385828  1
  In  In15  1  0.83362358  0.01739149  0.84171583  1
  In  In16  1  -0.00146220  0.16745092  0.17046379  1
  In  In17  1  0.85150824  0.47543505  0.35047852  1
  In  In18  1  0.47180082  -0.00930339  0.18047023  1
  In  In19  1  0.49977298  0.83768314  0.01262361  1
  In  In20  1  0.32741849  0.83861882  0.81099026  1
  In  In21  1  0.49432232  0.49975639  0.02206543  1
  In  In22  1  0.46823366  0.29840751  0.51348167  1
  In  In23  1  0.84208776  0.66037521  0.47592513  1
  In  In24  1  0.66601391  0.47555066  0.18650129  1
  In  In25  1  0.33724933  0.01908772  0.01620952  1
  In  In26  1  0.00220795  0.50525086  0.18759139  1
  In  In27  1  0.82472558  0.00473198  0.49775164  1
  In  In28  1  0.16198677  0.83692640  0.33555583  1
  In  In29  1  0.84597793  0.83016294  0.32884880  1
  In  In30  1  0.32986032  0.83670567  0.18470580  1
  In  In31  1  0.68069870  0.48544086  0.48005605  1
  In  In32  1  0.50874294  0.00852531  0.81900769  1
  In  In33  1  0.15404164  0.17028200  -0.00742637  1
  In  In34  1  0.64658443  0.31770045  0.00466666  1
  In  In35  1  0.32953024  0.49411232  0.81666506  1
  In  In36  1  0.68418477  0.18784121  0.18398120  1
  In  In37  1  0.50255437  0.84837408  0.65910903  1
  In  In38  1  0.47505100  0.16005912  0.32845563  1
  In  In39  1  0.15707622  0.66426161  0.48630358  1
  In  In40  1  0.15869610  0.50115900  0.34198846  1
  In  In41  1  0.01822961  0.66767041  0.65133522  1
  In  In42  1  0.82776108  0.84653134  0.65881889  1
  In  In43  1  0.33928208  0.02290421  0.65708868  1
  In  In44  1  0.00418212  0.15600116  0.48904870  1
  In  In45  1  0.50310778  0.49151120  0.32646715  1
  In  In46  1  -0.01477988  0.33145827  0.64723507  1
  In  In47  1  0.66103844  0.00611714  0.66021321  1
  In  In48  1  0.17858521  0.67197744  0.81395662  1
  In  In49  1  0.83469667  0.67761950  0.17495700  1
  In  In50  1  0.34209649  0.50962699  0.17289824  1
  In  In51  1  0.66223267  0.16086763  0.50857397  1
  In  In52  1  0.32811496  0.68164825  0.04326226  1
  In  In53  1  0.15745706  0.81125649  0.65869757  1
  In  In54  1  0.33077937  0.67224541  0.63306901  1
  In  In55  1  0.00726056  -0.00387704  0.32484702  1
  In  In56  1  0.17234792  0.85363214  0.02648179  1
  In  In57  1  0.66125985  0.15763667  0.83450594  1
  In  In58  1  0.66155597  -0.01450938  0.34870278  1
  In  In59  1  0.33709298  0.33863269  0.00910977  1
  In  In60  1  0.00565447  0.69566442  0.00013737  1
  In  In61  1  -0.00046944  0.49243585  0.81655275  1
  In  In62  1  -0.00425786  0.32397804  0.01529924  1
  In  In63  1  0.65635398  0.68968723  0.30508849  1
  In  In64  1  0.31711002  0.49347299  0.49782737  1
  In  In65  1  0.17220458  0.32854956  0.17706495  1
  In  In66  1  0.19529875  0.51816508  -0.00058263  1
  In  In67  1  -0.00172074  0.32697864  0.34751340  1
  In  In68  1  0.80998707  0.50170501  0.00158824  1
  In  In69  1  0.19010803  0.31557832  0.47328674  1
  In  In70  1  -0.01417399  -0.00138701  0.00501350  1
  In  In71  1  0.18676460  -0.00703600  0.49480579  1
  Te  Te72  1  0.08928767  0.07479208  0.09140413  1
  Te  Te73  1  0.10584112  0.08428645  0.40096421  1
  Te  Te74  1  0.08935189  0.10811378  0.74296036  1
  Te  Te75  1  0.09324523  0.42467963  0.07993938  1
  Te  Te76  1  0.07821282  0.41787797  0.43966074  1
  Te  Te77  1  0.09390579  0.40808588  0.73535848  1
  Te  Te78  1  0.09472117  0.75327193  0.10152594  1
  Te  Te79  1  0.06601028  0.75831386  0.41886876  1
  Te  Te80  1  0.06307839  0.75926437  0.76749012  1
  Te  Te81  1  0.42937240  0.10346695  0.09360545  1
  Te  Te82  1  0.38421876  0.09250897  0.42969516  1
  Te  Te83  1  0.41129914  0.10259607  0.76058473  1
  Te  Te84  1  0.43090642  0.39794600  0.11393493  1
  Te  Te85  1  0.41338166  0.40514797  0.41998663  1
  Te  Te86  1  0.40441381  0.39469698  0.72866227  1
  Te  Te87  1  0.44769942  0.74163481  0.12156315  1
  Te  Te88  1  0.43598021  0.74423071  0.48013399  1
  Te  Te89  1  0.42160857  0.73676497  0.74568764  1
  Te  Te90  1  0.75508127  0.08984492  0.08361103  1
  Te  Te91  1  0.75166590  0.09640010  0.40119345  1
  Te  Te92  1  0.75714960  0.09741856  0.73298991  1
  Te  Te93  1  0.75132925  0.39380448  0.08889739  1
  Te  Te94  1  0.74729098  0.37644134  0.39861335  1
  Te  Te95  1  0.79652701  0.42081637  0.69892396  1
  Te  Te96  1  0.75852265  0.77453028  0.09361905  1
  Te  Te97  1  0.74158043  0.75689635  0.41390243  1
  Te  Te98  1  0.74819390  0.74767620  0.74413621  1
  Te  Te99  1  0.09428040  0.23639213  0.26831550  1
  Te  Te100  1  0.09182322  0.24839684  0.57260342  1
  Te  Te101  1  0.06924069  0.25583536  0.90079758  1
  Te  Te102  1  0.07148544  0.60212520  0.27413216  1
  Te  Te103  1  0.09563626  0.56633652  0.57856901  1
  Te  Te104  1  0.08521737  0.58411553  0.90893134  1
  Te  Te105  1  0.08558957  0.91370861  0.23174402  1
  Te  Te106  1  0.08140929  0.90661738  0.56559184  1
  Te  Te107  1  0.08285703  0.90788759  0.91664609  1
  Te  Te108  1  0.38187152  0.25252227  0.25548994  1
  Te  Te109  1  0.35697808  0.23120819  0.58495116  1
  Te  Te110  1  0.41940737  0.24824126  0.92668993  1
  Te  Te111  1  0.41663019  0.59634549  0.26608929  1
  Te  Te112  1  0.43566640  0.60352407  0.53983916  1
  Te  Te113  1  0.38929007  0.57561000  0.93549928  1
  Te  Te114  1  0.40300174  0.91641490  0.29260251  1
  Te  Te115  1  0.39776748  0.91306432  0.57083445  1
  Te  Te116  1  0.41043939  0.91740095  0.91521225  1
  Te  Te117  1  0.75315872  0.28442710  0.27028092  1
  Te  Te118  1  0.76724680  0.24579367  0.57108275  1
  Te  Te119  1  0.75219742  0.24050761  0.92412735  1
  Te  Te120  1  0.76164015  0.57251027  0.26165009  1
  Te  Te121  1  0.75550543  0.58079678  0.57509028  1
  Te  Te122  1  0.73701392  0.59359241  0.90512499  1
  Te  Te123  1  0.74563063  0.90940065  0.24687929  1
  Te  Te124  1  0.72525611  0.90899299  0.56243179  1
  Te  Te125  1  0.75412534  0.91569242  0.91377367  1
  Te  Te126  1  0.25350959  0.23548635  0.08884720  1
  Te  Te127  1  0.27757333  0.22450058  0.39023262  1
  Te  Te128  1  0.28426382  0.22160058  0.72436606  1
  Te  Te129  1  0.22632877  0.60018432  0.12253910  1
  Te  Te130  1  0.26541883  0.59699378  0.39940733  1
  Te  Te131  1  0.24405345  0.57447827  0.71778295  1
  Te  Te132  1  0.24917049  0.94871908  0.11846059  1
  Te  Te133  1  0.27056336  0.93232560  0.38541191  1
  Te  Te134  1  0.23275210  0.92814922  0.73464365  1
  Te  Te135  1  0.57081768  0.23951935  0.10323051  1
  Te  Te136  1  0.57328265  0.24541704  0.41816886  1
  Te  Te137  1  0.57803712  0.24435339  0.73979068  1
  Te  Te138  1  0.58362002  0.58277513  0.11251208  1
  Te  Te139  1  0.59555667  0.58743132  0.40420338  1
  Te  Te140  1  0.57494237  0.57913285  0.74578792  1
  Te  Te141  1  0.58787031  0.91973009  0.10388281  1
  Te  Te142  1  0.55709476  0.89257759  0.39872157  1
  Te  Te143  1  0.60358289  0.90606340  0.76045539  1
  Te  Te144  1  0.90101936  0.23484479  0.08181801  1
  Te  Te145  1  0.90468212  0.25311761  0.43551556  1
  Te  Te146  1  0.92990327  0.23477090  0.74666848  1
  Te  Te147  1  0.91862463  0.57973439  0.07446275  1
  Te  Te148  1  0.94336180  0.57587621  0.40856953  1
  Te  Te149  1  0.91466116  0.58748592  0.73333425  1
  Te  Te150  1  0.92440799  0.90084071  0.09728882  1
  Te  Te151  1  0.92549334  0.91635189  0.42683871  1
  Te  Te152  1  0.91991220  0.92358299  0.75198147  1
  Te  Te153  1  0.31537497  0.11977917  0.27736773  1
  Te  Te154  1  0.23493737  0.10356749  0.58527686  1
  Te  Te155  1  0.26286687  0.10027206  0.90990996  1
  Te  Te156  1  0.25867890  0.41669990  0.26467405  1
  Te  Te157  1  0.25506023  0.39217713  0.58473689  1
  Te  Te158  1  0.23737155  0.40119597  0.90428836  1
  Te  Te159  1  0.26323886  0.74250464  0.27594165  1
  Te  Te160  1  0.25547694  0.77193208  0.54870964  1
  Te  Te161  1  0.25556973  0.75178661  0.92195435  1
  Te  Te162  1  0.58431814  0.07878902  0.25267018  1
  Te  Te163  1  0.55470298  0.08989851  0.59122507  1
  Te  Te164  1  0.56560051  0.09213644  0.93311261  1
  Te  Te165  1  0.57562017  0.38243677  0.25562646  1
  Te  Te166  1  0.57634984  0.41775636  0.57536373  1
  Te  Te167  1  0.58589146  0.43538763  0.91495631  1
  Te  Te168  1  0.55805209  0.76789159  0.23152079  1
  Te  Te169  1  0.57270756  0.75950457  0.55724447  1
  Te  Te170  1  0.59957327  0.76478051  0.92231905  1
  Te  Te171  1  0.90628865  0.09680460  0.27030821  1
  Te  Te172  1  0.91307957  0.08485254  0.59048566  1
  Te  Te173  1  0.92586923  0.10228514  0.91954563  1
  Te  Te174  1  0.91623958  0.39132841  0.23403383  1
  Te  Te175  1  0.88951435  0.41735554  0.57693219  1
  Te  Te176  1  0.90509672  0.41734324  0.91309802  1
  Te  Te177  1  0.93899115  0.73708240  0.26124721  1
  Te  Te178  1  0.91546101  0.75292458  0.57597288  1
  Te  Te179  1  0.90108110  0.77807891  0.93656912  1
