# generated using pymatgen
data_In2Te3
_symmetry_space_group_name_H-M   'P 1'
_cell_length_a   18.91111831
_cell_length_b   18.92514621
_cell_length_c   18.90897506
_cell_angle_alpha   90.12015993
_cell_angle_beta   90.33750119
_cell_angle_gamma   90.22727731
_symmetry_Int_Tables_number   1
_chemical_formula_structural   In2Te3
_chemical_formula_sum   'In72 Te108'
_cell_volume   6767.25460149
_cell_formula_units_Z   36
loop_
 _symmetry_equiv_pos_site_id
 _symmetry_equiv_pos_as_xyz
  1  'x, y, z'
loop_
 _atom_site_type_symbol
 _atom_site_label
 _atom_site_symmetry_multiplicity
 _atom_site_fract_x
 _atom_site_fract_y
 _atom_site_fract_z
 _atom_site_occupancy
  In  In0  1  0.47893398  0.62825616  0.49219559  1
  In  In1  1  0.50334406  0.33911930  0.17305447  1
  In  In2  1  0.34481179  0.51111582  0.81055929  1
  In  In3  1  0.68868733  0.84830075  0.83996902  1
  In  In4  1  0.34231254  0.49366536  0.18341457  1
  In  In5  1  0.67183776  0.65796390  0.64774832  1
  In  In6  1  0.36567028  0.84507465  0.80236939  1
  In  In7  1  0.47020922  0.00628247  0.16884818  1
  In  In8  1  0.67665052  0.66845173  0.00885941  1
  In  In9  1  0.29104562  0.84830794  0.17998324  1
  In  In10  1  0.82239206  0.50658907  -0.00811449  1
  In  In11  1  0.15302572  -0.00177507  0.52273016  1
  In  In12  1  0.69463371  0.83808990  0.50861662  1
  In  In13  1  -0.01225388  0.68606233  -0.00811191  1
  In  In14  1  0.14525166  0.48727269  -0.00682495  1
  In  In15  1  0.18078830  0.67751528  0.78861608  1
  In  In16  1  0.52229780  0.20409140  0.34457001  1
  In  In17  1  0.50821504  0.00561118  0.50013500  1
  In  In18  1  0.14866028  0.33698669  0.83046273  1
  In  In19  1  0.89660242  0.76186971  0.37844412  1
  In  In20  1  0.14614164  0.81555716  0.63016709  1
  In  In21  1  0.01604737  0.14526997  0.15743491  1
  In  In22  1  0.66096712  0.63625283  0.32819326  1
  In  In23  1  0.17683390  0.16842586  0.34604236  1
  In  In24  1  0.31895326  0.01011518  0.66506791  1
  In  In25  1  0.64910456  0.35714626  0.64097441  1
  In  In26  1  0.85260402  0.84507510  0.68065753  1
  In  In27  1  -0.01525800  0.16317019  0.51514001  1
  In  In28  1  0.12029685  0.81419917  0.36988095  1
  In  In29  1  0.51953758  0.66531138  0.80135465  1
  In  In30  1  0.50489845  0.65261772  0.14158029  1
  In  In31  1  0.83736923  -0.00009281  0.16692364  1
  In  In32  1  0.68663045  0.83756322  0.16758626  1
  In  In33  1  0.49847719  0.46807225  0.34645261  1
  In  In34  1  0.18158124  0.34046395  0.47431763  1
  In  In35  1  0.01009994  0.50187715  0.82627744  1
  In  In36  1  0.02167962  0.49618834  0.18221979  1
  In  In37  1  0.68906110  0.18720100  0.16282519  1
  In  In38  1  0.50406356  0.17744064  0.67519300  1
  In  In39  1  0.48744447  0.79202879  0.35735479  1
  In  In40  1  0.17347842  0.15958838  0.66729862  1
  In  In41  1  0.83272540  0.50674900  0.36016224  1
  In  In42  1  0.87413408  0.14431159  -0.01168002  1
  In  In43  1  0.14595404  -0.00048796  0.83709082  1
  In  In44  1  0.15269787  0.63770151  0.18528506  1
  In  In45  1  0.82720624  0.15232210  0.68938404  1
  In  In46  1  0.68763400  0.33537325  -0.01785867  1
  In  In47  1  0.33438507  0.64405184  -0.02501107  1
  In  In48  1  0.83000284  0.85110137  0.01000521  1
  In  In49  1  0.67222955  -0.02152975  -0.03032799  1
  In  In50  1  0.66650874  0.02847527  0.34606039  1
  In  In51  1  0.32073051  0.64897833  0.36094766  1
  In  In52  1  0.31699339  0.02743142  -0.00371001  1
  In  In53  1  0.66817869  0.18924564  0.50911611  1
  In  In54  1  0.31438489  0.31588510  0.02047860  1
  In  In55  1  0.15916227  0.51579742  0.33727536  1
  In  In56  1  0.16876354  0.83426388  -0.01022937  1
  In  In57  1  0.34542337  0.31995822  0.64475977  1
  In  In58  1  -0.01101500  0.32641907  0.33782979  1
  In  In59  1  0.48759576  0.81726970  0.02194144  1
  In  In60  1  0.01178253  0.31946149  0.02164216  1
  In  In61  1  0.83424339  0.50819951  0.65863902  1
  In  In62  1  0.50763380  -0.00956087  0.82191617  1
  In  In63  1  0.51208381  0.33253354  0.85030353  1
  In  In64  1  0.48357380  0.14673567  0.00086344  1
  In  In65  1  0.83318863  0.33102098  0.82138327  1
  In  In66  1  -0.00262007  0.65941808  0.66018289  1
  In  In67  1  -0.01934876  0.33858303  0.65929863  1
  In  In68  1  -0.01960347  -0.02771159  0.33729905  1
  In  In69  1  0.31562348  0.00384225  0.34848070  1
  In  In70  1  0.80754592  0.18539477  0.34412608  1
  In  In71  1  0.49674180  0.81586851  0.66422595  1
  Te  Te72  1  0.10543257  0.12151543  0.04145497  1
  Te  Te73  1  0.06841133  0.07955819  0.41595587  1
  Te  Te74  1  0.07550269  0.06506580  0.72245520  1
  Te  Te75  1  0.11231479  0.39713757  0.10880558  1
  Te  Te76  1  0.06716858  0.42852368  0.42090378  1
  Te  Te77  1  0.09056260  0.42722307  0.72227283  1
  Te  Te78  1  0.09550995  0.74157305  0.08396109  1
  Te  Te79  1  0.05362525  0.70740136  0.45738624  1
  Te  Te80  1  0.06663064  0.76594157  0.75182417  1
  Te  Te81  1  0.38369566  0.11377532  0.11083807  1
  Te  Te82  1  0.43245223  0.08753304  0.39815098  1
  Te  Te83  1  0.41122374  0.08894943  0.75741770  1
  Te  Te84  1  0.41484574  0.41929940  0.07402732  1
  Te  Te85  1  0.41327835  0.43697535  0.46233127  1
  Te  Te86  1  0.42875839  0.40443535  0.74421823  1
  Te  Te87  1  0.37880392  0.74441330  0.10012371  1
  Te  Te88  1  0.37984936  0.75301333  0.46319663  1
  Te  Te89  1  0.39391111  0.71621482  0.72115158  1
  Te  Te90  1  0.74499273  0.07747415  0.07174508  1
  Te  Te91  1  0.76325732  0.08210596  0.44808460  1
  Te  Te92  1  0.71920132  0.09295814  0.76833742  1
  Te  Te93  1  0.76961469  0.40489217  0.08198447  1
  Te  Te94  1  0.74169157  0.39368690  0.39772487  1
  Te  Te95  1  0.74276654  0.42562063  0.74754671  1
  Te  Te96  1  0.77813561  0.73891950  0.10068978  1
  Te  Te97  1  0.74226559  0.74584197  0.40040566  1
  Te  Te98  1  0.74770755  0.74652572  0.74542250  1
  Te  Te99  1  0.08368696  0.24579448  0.25211525  1
  Te  Te100  1  0.09322954  0.25663210  0.57530291  1
  Te  Te101  1  0.08507890  0.23635287  0.92052916  1
  Te  Te102  1  0.02056131  0.62862380  0.26177206  1
  Te  Te103  1  0.10361134  0.61362440  0.56562230  1
  Te  Te104  1  0.10134993  0.60315617  0.90402984  1
  Te  Te105  1  0.07274365  0.89277124  0.25141083  1
  Te  Te106  1  0.04616941  0.90445484  0.56531805  1
  Te  Te107  1  0.06295417  0.91245915  0.92333694  1
  Te  Te108  1  0.41436899  0.27026283  0.26850086  1
  Te  Te109  1  0.44102882  0.24422732  0.55673037  1
  Te  Te110  1  0.40484864  0.24659936  0.91822359  1
  Te  Te111  1  0.42568209  0.59344887  0.26604936  1
  Te  Te112  1  0.43641893  0.58421569  0.62510411  1
  Te  Te113  1  0.44956576  0.57820478  0.90860650  1
  Te  Te114  1  0.41276420  0.89778521  0.25957372  1
  Te  Te115  1  0.41573126  0.92338513  0.58702408  1
  Te  Te116  1  0.41823014  0.92413983  0.93496775  1
  Te  Te117  1  0.73691648  0.28810503  0.26162301  1
  Te  Te118  1  0.76285217  0.26442226  0.60079951  1
  Te  Te119  1  0.76900120  0.22755754  0.91244376  1
  Te  Te120  1  0.77383193  0.58737679  0.25064518  1
  Te  Te121  1  0.75405937  0.57901378  0.55681015  1
  Te  Te122  1  0.74472677  0.59383351  0.90391732  1
  Te  Te123  1  0.75525045  0.92621028  0.27039143  1
  Te  Te124  1  0.75249182  0.92792276  0.60756976  1
  Te  Te125  1  0.77844393  0.97910501  0.85174099  1
  Te  Te126  1  0.21706335  0.22395529  0.07689959  1
  Te  Te127  1  0.27984768  0.25949950  0.40009548  1
  Te  Te128  1  0.25225483  0.25921175  0.75067856  1
  Te  Te129  1  0.24916673  0.57340424  0.08012092  1
  Te  Te130  1  0.22717123  0.58204159  0.45489875  1
  Te  Te131  1  0.23846974  0.56138541  0.72182856  1
  Te  Te132  1  0.22316007  0.94278689  0.08377490  1
  Te  Te133  1  0.23106176  0.90874922  0.42806523  1
  Te  Te134  1  0.23949453  0.90593559  0.74061575  1
  Te  Te135  1  0.57894456  0.24552539  0.07264707  1
  Te  Te136  1  0.61782212  0.29944586  0.41589970  1
  Te  Te137  1  0.60359579  0.26133519  0.75193286  1
  Te  Te138  1  0.60611344  0.56418722  0.08725632  1
  Te  Te139  1  0.59618494  0.55282481  0.43628898  1
  Te  Te140  1  0.56903847  0.56194361  0.70443515  1
  Te  Te141  1  0.58172336  0.92495724  0.09190489  1
  Te  Te142  1  0.58170995  0.91096831  0.40516927  1
  Te  Te143  1  0.59552538  0.90988554  0.73166731  1
  Te  Te144  1  0.90932645  0.24136187  0.10116661  1
  Te  Te145  1  0.89819900  0.26313869  0.44094294  1
  Te  Te146  1  0.93759921  0.23885249  0.76218146  1
  Te  Te147  1  0.93983454  0.56620610  0.06975725  1
  Te  Te148  1  0.92596041  0.61672428  0.41887021  1
  Te  Te149  1  0.90698201  0.59046745  0.76606699  1
  Te  Te150  1  0.93265486  0.92817331  0.08315797  1
  Te  Te151  1  0.91787031  0.89600949  0.44532032  1
  Te  Te152  1  0.91476373  0.94091099  0.78070587  1
  Te  Te153  1  0.23317642  0.07193625  0.24977687  1
  Te  Te154  1  0.26245138  0.10063823  0.55758069  1
  Te  Te155  1  0.24823540  0.09397749  0.88599657  1
  Te  Te156  1  0.25299876  0.42172171  0.27493822  1
  Te  Te157  1  0.27351631  0.42100637  0.56287490  1
  Te  Te158  1  0.25541651  0.42339514  0.91038752  1
  Te  Te159  1  0.23277977  0.74177574  0.27434923  1
  Te  Te160  1  0.26099894  0.75616644  0.56559383  1
  Te  Te161  1  0.26954643  0.75907750  0.90102819  1
  Te  Te162  1  0.58156785  0.09696200  0.23805355  1
  Te  Te163  1  0.59550789  0.08604548  0.59418754  1
  Te  Te164  1  0.58688897  0.09080823  0.90541199  1
  Te  Te165  1  0.58763389  0.44475476  0.23287660  1
  Te  Te166  1  0.52712338  0.38173669  0.55428557  1
  Te  Te167  1  0.60096186  0.43131738  0.91399827  1
  Te  Te168  1  0.58351019  0.74884121  0.23567628  1
  Te  Te169  1  0.57862745  0.74627333  0.55636675  1
  Te  Te170  1  0.57583897  0.76394342  0.91056322  1
  Te  Te171  1  0.90692454  0.09833438  0.26595074  1
  Te  Te172  1  0.92808384  0.07196540  0.61542321  1
  Te  Te173  1  0.93410064  0.04927239  0.89347390  1
  Te  Te174  1  0.91055096  0.42140215  0.25073055  1
  Te  Te175  1  0.92813890  0.43953226  0.56861998  1
  Te  Te176  1  0.93476286  0.40520063  0.91521576  1
  Te  Te177  1  0.96084494  0.77002344  0.24460699  1
  Te  Te178  1  0.89931710  0.74103791  0.58635148  1
  Te  Te179  1  0.89408115  0.76394890  0.91107675  1
