# generated using pymatgen
data_In2Te3
_symmetry_space_group_name_H-M   'P 1'
_cell_length_a   18.91022892
_cell_length_b   18.91582686
_cell_length_c   18.91041334
_cell_angle_alpha   89.91065062
_cell_angle_beta   90.09209454
_cell_angle_gamma   90.07507561
_symmetry_Int_Tables_number   1
_chemical_formula_structural   In2Te3
_chemical_formula_sum   'In72 Te108'
_cell_volume   6764.28157662
_cell_formula_units_Z   36
loop_
 _symmetry_equiv_pos_site_id
 _symmetry_equiv_pos_as_xyz
  1  'x, y, z'
loop_
 _atom_site_type_symbol
 _atom_site_label
 _atom_site_symmetry_multiplicity
 _atom_site_fract_x
 _atom_site_fract_y
 _atom_site_fract_z
 _atom_site_occupancy
  In  In0  1  0.01557077  0.49271203  0.17533501  1
  In  In1  1  0.88514928  0.15162974  0.64892037  1
  In  In2  1  0.32750432  0.51392931  0.83034347  1
  In  In3  1  0.37213897  0.20816925  0.20356420  1
  In  In4  1  0.33370993  0.50672663  0.49972794  1
  In  In5  1  0.16389340  0.18358350  0.31273553  1
  In  In6  1  0.50386611  0.32278753  0.83565211  1
  In  In7  1  0.67119186  0.16662291  0.83344778  1
  In  In8  1  -0.01817494  0.34795383  0.65250631  1
  In  In9  1  0.65795743  0.84540819  0.81191060  1
  In  In10  1  0.48436668  0.32898504  0.47766171  1
  In  In11  1  0.15987107  0.65526246  0.82601529  1
  In  In12  1  0.86160012  0.65364355  0.49194899  1
  In  In13  1  0.83464869  0.84703357  0.01229889  1
  In  In14  1  0.83060887  0.16792500  -0.01450259  1
  In  In15  1  0.50307215  -0.00217667  0.16772732  1
  In  In16  1  0.67676663  0.66211859  0.00140377  1
  In  In17  1  0.47937190  0.67679890  0.81336621  1
  In  In18  1  0.62633950  0.02405242  0.02890286  1
  In  In19  1  0.64827111  0.00720447  0.66236469  1
  In  In20  1  0.67390242  0.86087840  0.16010794  1
  In  In21  1  0.17389785  0.33617510  0.49209284  1
  In  In22  1  0.83682757  0.49586112  0.66662917  1
  In  In23  1  0.34460018  -0.01613303  -0.01909493  1
  In  In24  1  0.01893995  0.67663366  0.00078424  1
  In  In25  1  0.15865360  0.33822937  0.82999961  1
  In  In26  1  0.16959959  0.02375112  0.18278117  1
  In  In27  1  -0.00476363  -0.00565943  0.01611852  1
  In  In28  1  0.18609393  0.65786162  0.16331238  1
  In  In29  1  0.30726522  0.47383197  0.19999758  1
  In  In30  1  0.49323850  0.65873556  0.50696387  1
  In  In31  1  0.84570814  0.00736814  0.19532008  1
  In  In32  1  0.00447475  0.82211843  0.83449308  1
  In  In33  1  0.80630630  0.31612446  0.83181219  1
  In  In34  1  0.13080059  0.03541648  0.78043096  1
  In  In35  1  0.33232421  0.13434529  0.81220137  1
  In  In36  1  0.65478939  0.47950412  0.49177288  1
  In  In37  1  0.82989118  -0.02136713  0.82862001  1
  In  In38  1  0.18473878  0.18023677  -0.00068839  1
  In  In39  1  0.32321333  0.65325880  0.33791024  1
  In  In40  1  0.01143715  0.34897249  0.01695150  1
  In  In41  1  -0.01145612  0.50832790  0.83108688  1
  In  In42  1  0.83239350  0.83672825  0.64252154  1
  In  In43  1  0.64123118  0.33158879  0.64645536  1
  In  In44  1  0.82512527  0.50032699  0.01759044  1
  In  In45  1  0.35111307  0.34049672  0.02105577  1
  In  In46  1  0.04073446  0.64615089  0.62796807  1
  In  In47  1  0.17516973  0.81251528  0.01166285  1
  In  In48  1  0.64901455  0.18556122  0.17267406  1
  In  In49  1  0.00869612  0.15790554  0.49116487  1
  In  In50  1  0.00514951  0.33866678  0.34762857  1
  In  In51  1  0.64331958  0.50823570  0.85743759  1
  In  In52  1  0.49555039  0.66995143  0.15916611  1
  In  In53  1  0.66381300  0.67713856  0.67273341  1
  In  In54  1  0.31000845  0.15957995  0.49012282  1
  In  In55  1  0.13754187  0.85262111  0.41921107  1
  In  In56  1  0.88651471  0.66921649  0.23905196  1
  In  In57  1  0.82101375  0.34226807  0.49714735  1
  In  In58  1  0.00315939  -0.00733373  0.34262080  1
  In  In59  1  0.64510182  0.48109517  0.20771274  1
  In  In60  1  0.20727894  0.85008071  0.58763311  1
  In  In61  1  0.67738155  0.16516450  0.49873158  1
  In  In62  1  0.48166326  0.81992847  0.35282562  1
  In  In63  1  0.31945904  0.83988828  0.82201676  1
  In  In64  1  0.66505138  0.83829104  0.50054826  1
  In  In65  1  0.34459964  0.81258550  0.15842243  1
  In  In66  1  0.31513730  0.00777387  0.64225269  1
  In  In67  1  0.66498868  0.65657318  0.33246866  1
  In  In68  1  0.34435016  0.30480510  0.66686916  1
  In  In69  1  0.50676354  0.16801536  0.00452725  1
  In  In70  1  0.67350846  0.02212811  0.32743014  1
  In  In71  1  0.82497861  0.32418024  0.17801190  1
  Te  Te72  1  0.08293617  0.09908817  0.08332753  1
  Te  Te73  1  0.11312761  0.08421786  0.41191322  1
  Te  Te74  1  0.01665663  0.10452921  0.72080867  1
  Te  Te75  1  0.11095892  0.43574992  0.07824765  1
  Te  Te76  1  0.09971405  0.43874032  0.40948304  1
  Te  Te77  1  0.07919793  0.43012390  0.73782591  1
  Te  Te78  1  0.07568772  0.76017845  0.11242739  1
  Te  Te79  1  0.06604392  0.72175426  0.40521762  1
  Te  Te80  1  0.09016798  0.75123623  0.73233230  1
  Te  Te81  1  0.40558540  0.08303562  0.08156390  1
  Te  Te82  1  0.38389821  0.04783469  0.42686580  1
  Te  Te83  1  0.42301036  0.05424722  0.73187124  1
  Te  Te84  1  0.42311010  0.41560732  0.12416952  1
  Te  Te85  1  0.40561355  0.42641978  0.39621121  1
  Te  Te86  1  0.41363896  0.40902462  0.75173110  1
  Te  Te87  1  0.41006903  0.73178084  0.05663123  1
  Te  Te88  1  0.38333166  0.74813373  0.44298969  1
  Te  Te89  1  0.38528133  0.75104102  0.71902569  1
  Te  Te90  1  0.75641773  0.07611171  0.08580624  1
  Te  Te91  1  0.77030523  0.08659381  0.41652547  1
  Te  Te92  1  0.76495122  0.08751878  0.74389452  1
  Te  Te93  1  0.73212755  0.41306886  0.09684243  1
  Te  Te94  1  0.76825791  0.44506742  0.40563690  1
  Te  Te95  1  0.73069505  0.41806293  0.74692626  1
  Te  Te96  1  0.75707054  0.74819376  0.09922400  1
  Te  Te97  1  0.75179874  0.73887781  0.42561168  1
  Te  Te98  1  0.76596624  0.75600756  0.75306691  1
  Te  Te99  1  0.08446219  0.28251671  0.23494623  1
  Te  Te100  1  0.08079772  0.25733116  0.58193089  1
  Te  Te101  1  0.07453016  0.24854320  0.91962725  1
  Te  Te102  1  0.09751110  0.58605940  0.25570131  1
  Te  Te103  1  0.10854272  0.55804800  0.53342909  1
  Te  Te104  1  0.09097584  0.56454325  0.92882418  1
  Te  Te105  1  0.11719269  0.91772181  0.27412713  1
  Te  Te106  1  0.08342093  0.91536021  0.54424131  1
  Te  Te107  1  0.08613661  0.90701576  0.92956218  1
  Te  Te108  1  0.44803136  0.30619891  0.28667004  1
  Te  Te109  1  0.42547769  0.22264359  0.56894413  1
  Te  Te110  1  0.39661148  0.23295185  0.91154529  1
  Te  Te111  1  0.41900598  0.57762390  0.25118221  1
  Te  Te112  1  0.40287007  0.58990738  0.60230873  1
  Te  Te113  1  0.43829978  0.57196540  0.90860784  1
  Te  Te114  1  0.41090414  0.91142839  0.25312064  1
  Te  Te115  1  0.39659256  0.93706867  0.53681501  1
  Te  Te116  1  0.43031951  0.90110040  0.89785029  1
  Te  Te117  1  0.76100509  0.21993849  0.26005194  1
  Te  Te118  1  0.76691201  0.25321227  0.60789961  1
  Te  Te119  1  0.71804764  0.26081844  0.94276169  1
  Te  Te120  1  0.75796905  0.58157557  0.24130280  1
  Te  Te121  1  0.74206110  0.58559061  0.57875103  1
  Te  Te122  1  0.76646466  0.58370185  0.90431309  1
  Te  Te123  1  0.76240847  0.90723394  0.27327126  1
  Te  Te124  1  0.75186783  0.94145807  0.56959573  1
  Te  Te125  1  0.73098685  0.92309526  0.93038224  1
  Te  Te126  1  0.25991047  0.25477689  0.10834502  1
  Te  Te127  1  0.26258952  0.27937859  0.38175956  1
  Te  Te128  1  0.23584491  0.23537879  0.74836700  1
  Te  Te129  1  0.28159370  0.57325649  0.09241351  1
  Te  Te130  1  0.22539028  0.58826583  0.43157626  1
  Te  Te131  1  0.23118371  0.56818170  0.73306750  1
  Te  Te132  1  0.24818339  0.92479618  0.08718009  1
  Te  Te133  1  0.27238553  0.92571021  0.44407345  1
  Te  Te134  1  0.21780889  0.91582380  0.73728080  1
  Te  Te135  1  0.56045973  0.27128161  0.09386685  1
  Te  Te136  1  0.61678264  0.28060751  0.42138849  1
  Te  Te137  1  0.57168856  0.23030629  0.73572935  1
  Te  Te138  1  0.59372295  0.57480923  0.09342826  1
  Te  Te139  1  0.56518835  0.57018412  0.40656134  1
  Te  Te140  1  0.57411726  0.57629608  0.74099869  1
  Te  Te141  1  0.55836900  0.89430506  0.06819718  1
  Te  Te142  1  0.58254511  0.92073819  0.40405682  1
  Te  Te143  1  0.55857031  0.90763549  0.72451948  1
  Te  Te144  1  0.91608971  0.24851439  0.08163956  1
  Te  Te145  1  0.90808964  0.24551962  0.41823049  1
  Te  Te146  1  0.92515718  0.25728235  0.76206404  1
  Te  Te147  1  0.92280891  0.59145134  0.08827974  1
  Te  Te148  1  0.94094747  0.61204273  0.37198056  1
  Te  Te149  1  0.92734380  0.60103154  0.72856689  1
  Te  Te150  1  0.92840244  0.90344999  0.11807743  1
  Te  Te151  1  0.92383674  0.89489101  0.41935335  1
  Te  Te152  1  0.92933526  0.91142690  0.73752647  1
  Te  Te153  1  0.28143876  0.09566437  0.25633729  1
  Te  Te154  1  0.21931311  0.10908387  0.59394637  1
  Te  Te155  1  0.23035966  0.06610388  0.90738082  1
  Te  Te156  1  0.21267181  0.39316314  0.28373837  1
  Te  Te157  1  0.26056986  0.40742318  0.59358101  1
  Te  Te158  1  0.25822056  0.40885302  0.91953340  1
  Te  Te159  1  0.24777300  0.76008471  0.26155854  1
  Te  Te160  1  0.29019512  0.73016373  0.59581997  1
  Te  Te161  1  0.25708345  0.73326300  0.91338462  1
  Te  Te162  1  0.55948135  0.10182846  0.26384426  1
  Te  Te163  1  0.57495866  0.08014564  0.55854329  1
  Te  Te164  1  0.56893947  0.07462607  0.89835147  1
  Te  Te165  1  0.59206709  0.36817302  0.29026045  1
  Te  Te166  1  0.54465764  0.42714307  0.58323291  1
  Te  Te167  1  0.56880781  0.40942699  0.93450436  1
  Te  Te168  1  0.58736552  0.76138855  0.25048229  1
  Te  Te169  1  0.56868611  0.76284811  0.59051373  1
  Te  Te170  1  0.59296634  0.73891521  0.90079225  1
  Te  Te171  1  0.95044275  0.09334675  0.24923579  1
  Te  Te172  1  0.94491566  0.04555641  0.56585703  1
  Te  Te173  1  0.92037492  0.07276937  0.90915546  1
  Te  Te174  1  0.90962552  0.42048827  0.25897563  1
  Te  Te175  1  0.92295722  0.44527112  0.55211060  1
  Te  Te176  1  0.90353961  0.40946637  0.91304485  1
  Te  Te177  1  0.95144355  0.78327067  0.32240253  1
  Te  Te178  1  0.93892562  0.75353672  0.57465237  1
  Te  Te179  1  0.90749839  0.74678702  0.92302856  1
