# generated using pymatgen
data_In2Te3
_symmetry_space_group_name_H-M   'P 1'
_cell_length_a   18.97538166
_cell_length_b   18.99722909
_cell_length_c   18.93946845
_cell_angle_alpha   89.89764477
_cell_angle_beta   90.09886069
_cell_angle_gamma   89.91463643
_symmetry_Int_Tables_number   1
_chemical_formula_structural   In2Te3
_chemical_formula_sum   'In72 Te108'
_cell_volume   6827.26472000
_cell_formula_units_Z   36
loop_
 _symmetry_equiv_pos_site_id
 _symmetry_equiv_pos_as_xyz
  1  'x, y, z'
loop_
 _atom_site_type_symbol
 _atom_site_label
 _atom_site_symmetry_multiplicity
 _atom_site_fract_x
 _atom_site_fract_y
 _atom_site_fract_z
 _atom_site_occupancy
  In  In0  1  0.66318710  0.32959314  0.01836098  1
  In  In1  1  0.67920351  0.01254524  0.03928894  1
  In  In2  1  0.50634653  0.83265064  0.35486217  1
  In  In3  1  0.65840159  0.82246714  0.86885673  1
  In  In4  1  0.67201123  0.66242140  0.00098777  1
  In  In5  1  0.00338240  0.65613212  0.34490952  1
  In  In6  1  0.01461831  0.01885202  0.63502984  1
  In  In7  1  0.13607920  0.65610350  0.82470059  1
  In  In8  1  0.47071594  0.49910061  0.34470898  1
  In  In9  1  0.82541402  0.47575829  0.66295747  1
  In  In10  1  0.70586595  0.68873661  0.66032082  1
  In  In11  1  0.67210944  0.82905625  0.15300276  1
  In  In12  1  0.31730284  0.00589418  0.00580344  1
  In  In13  1  0.17159044  0.84097889  0.66857793  1
  In  In14  1  0.00827587  0.33546813  0.65730911  1
  In  In15  1  0.83946583  0.83172854  0.31918699  1
  In  In16  1  0.64420909  0.47931029  0.48572117  1
  In  In17  1  0.47757346  0.67147197  0.17456936  1
  In  In18  1  0.68155008  0.65029025  0.34740057  1
  In  In19  1  0.83611203  -0.02316686  0.83378258  1
  In  In20  1  0.17310230  0.66998484  0.49706615  1
  In  In21  1  0.64248050  0.00526623  0.64618887  1
  In  In22  1  0.14861799  0.51693547  0.65137318  1
  In  In23  1  0.18047241  -0.00958498  0.82929323  1
  In  In24  1  0.17841924  0.32673280  0.46066658  1
  In  In25  1  0.86097189  0.50315322  0.31639250  1
  In  In26  1  0.66282458  0.51876259  0.80105600  1
  In  In27  1  0.33813950  0.65534325  -0.00681043  1
  In  In28  1  0.00776744  0.17573374  0.17214935  1
  In  In29  1  0.51212901  0.34325390  0.82200980  1
  In  In30  1  0.03065192  0.01205887  0.37950718  1
  In  In31  1  0.17800630  0.84565449  0.01699239  1
  In  In32  1  0.68499632  0.16367726  0.19730511  1
  In  In33  1  0.49895518  0.18733216  0.61035244  1
  In  In34  1  -0.01269810  0.34038992  0.35216453  1
  In  In35  1  0.31456268  0.19147732  0.20996902  1
  In  In36  1  0.67663558  0.84455404  0.48812627  1
  In  In37  1  0.15089459  0.63338440  0.18998166  1
  In  In38  1  0.33772634  0.53007350  0.51570175  1
  In  In39  1  0.00706342  0.82629802  0.81925122  1
  In  In40  1  -0.02518533  0.64513771  -0.00066724  1
  In  In41  1  -0.02490647  0.47207997  0.85486935  1
  In  In42  1  0.83241806  0.49894171  0.02959719  1
  In  In43  1  -0.00834176  0.02739477  0.01460303  1
  In  In44  1  0.32714576  0.83915567  0.82397609  1
  In  In45  1  0.67070420  0.31664476  0.32891067  1
  In  In46  1  0.01101915  0.17808806  0.83815320  1
  In  In47  1  0.48399660  0.01152559  0.17497369  1
  In  In48  1  0.48761690  0.17456773  0.34315600  1
  In  In49  1  0.46799049  0.49475351  -0.00077207  1
  In  In50  1  0.80997959  0.02930582  0.46027098  1
  In  In51  1  0.84044301  0.17754145  0.65642896  1
  In  In52  1  0.15423439  0.33269827  0.87647595  1
  In  In53  1  0.29688181  0.33074755  0.02496815  1
  In  In54  1  0.54073019  0.66713830  0.80884573  1
  In  In55  1  0.50364891  0.83096848  0.65256860  1
  In  In56  1  0.28743190  0.46489918  0.17162935  1
  In  In57  1  0.18544783  0.14589775  0.61435149  1
  In  In58  1  0.68222815  0.32572296  0.65883036  1
  In  In59  1  0.47434411  0.01894785  0.81262411  1
  In  In60  1  0.35167072  0.84099926  0.49631299  1
  In  In61  1  0.15740604  0.80624841  0.32587516  1
  In  In62  1  0.33086445  0.00194264  0.32939752  1
  In  In63  1  0.84029371  0.66377045  0.78856407  1
  In  In64  1  0.31287435  0.29747818  0.64555355  1
  In  In65  1  0.85745934  0.01203558  0.20015232  1
  In  In66  1  0.52326058  0.17577464  -0.00075905  1
  In  In67  1  0.01237024  0.84024745  0.16577296  1
  In  In68  1  0.66124642  0.50400730  0.18888909  1
  In  In69  1  0.32797496  0.48860264  0.78868295  1
  In  In70  1  0.33718885  0.15721944  0.83244354  1
  In  In71  1  0.68376825  0.16669625  0.84329071  1
  Te  Te72  1  0.09247792  0.07272526  0.10804795  1
  Te  Te73  1  0.12611077  0.09285725  0.46525546  1
  Te  Te74  1  0.09621453  0.09275406  0.74358218  1
  Te  Te75  1  0.16989666  0.38604515  0.10372047  1
  Te  Te76  1  0.08019582  0.43330491  0.42537287  1
  Te  Te77  1  0.09102956  0.41453924  0.76088559  1
  Te  Te78  1  0.07576687  0.74424382  0.06542010  1
  Te  Te79  1  0.06389081  0.76101104  0.43544731  1
  Te  Te80  1  0.06923523  0.73697608  0.71477664  1
  Te  Te81  1  0.41314825  0.10440121  0.07812139  1
  Te  Te82  1  0.40736996  0.08183010  0.43017306  1
  Te  Te83  1  0.40945618  0.10543517  0.70814602  1
  Te  Te84  1  0.41162411  0.39797637  0.09728809  1
  Te  Te85  1  0.40207408  0.41563824  0.44565844  1
  Te  Te86  1  0.41574822  0.39090917  0.71585019  1
  Te  Te87  1  0.39932274  0.75365887  0.08101515  1
  Te  Te88  1  0.41620341  0.73661365  0.41494635  1
  Te  Te89  1  0.42209010  0.74881493  0.74999594  1
  Te  Te90  1  0.78404549  0.10148510  0.09845718  1
  Te  Te91  1  0.75544116  0.12623326  0.36240049  1
  Te  Te92  1  0.75529487  0.07588893  0.74156388  1
  Te  Te93  1  0.75067730  0.40485135  0.11691082  1
  Te  Te94  1  0.75140549  0.42593025  0.39459800  1
  Te  Te95  1  0.75203623  0.40004057  0.77200126  1
  Te  Te96  1  0.76485314  0.74298614  0.07901865  1
  Te  Te97  1  0.77179165  0.74448737  0.42424976  1
  Te  Te98  1  0.74894439  0.80338614  0.75159890  1
  Te  Te99  1  0.08537878  0.26013554  0.27071086  1
  Te  Te100  1  0.08843093  0.24913647  0.56207410  1
  Te  Te101  1  0.06208331  0.24985972  0.96072521  1
  Te  Te102  1  0.10557871  0.55250941  0.30639463  1
  Te  Te103  1  0.06506979  0.58364733  0.55228828  1
  Te  Te104  1  0.07808862  0.56010930  0.92569867  1
  Te  Te105  1  0.08502872  0.92623800  0.26358894  1
  Te  Te106  1  0.09860495  0.91989178  0.56818694  1
  Te  Te107  1  0.07725825  0.92122210  0.91686791  1
  Te  Te108  1  0.40389039  0.28369289  0.28331224  1
  Te  Te109  1  0.39882535  0.26249001  0.53099442  1
  Te  Te110  1  0.42535862  0.25571360  0.91292042  1
  Te  Te111  1  0.39045260  0.56513104  0.23524709  1
  Te  Te112  1  0.42758771  0.58174473  0.61703163  1
  Te  Te113  1  0.41943661  0.57809955  0.88108939  1
  Te  Te114  1  0.41585056  0.90070962  0.25175391  1
  Te  Te115  1  0.44715228  0.93265008  0.56341941  1
  Te  Te116  1  0.41036544  0.92597087  0.91630822  1
  Te  Te117  1  0.78984076  0.24533113  0.26785942  1
  Te  Te118  1  0.77013701  0.26225253  0.55453730  1
  Te  Te119  1  0.75531193  0.24508300  0.94270203  1
  Te  Te120  1  0.76618954  0.60020181  0.23411836  1
  Te  Te121  1  0.73425192  0.56085815  0.57872182  1
  Te  Te122  1  0.75713413  0.58548344  0.90151141  1
  Te  Te123  1  0.74145469  0.92358386  0.24983176  1
  Te  Te124  1  0.75799021  0.93784610  0.57530943  1
  Te  Te125  1  0.75113465  0.91561063  0.94369415  1
  Te  Te126  1  0.22176216  0.22685703  0.09824862  1
  Te  Te127  1  0.26258394  0.24552185  0.36267455  1
  Te  Te128  1  0.23776208  0.25630623  0.77148317  1
  Te  Te129  1  0.24025264  0.57981539  0.07586150  1
  Te  Te130  1  0.25010358  0.58136342  0.40770093  1
  Te  Te131  1  0.24498454  0.60223152  0.73241256  1
  Te  Te132  1  0.24520882  0.93385050  0.11076723  1
  Te  Te133  1  0.24623052  0.90166200  0.40649627  1
  Te  Te134  1  0.27580117  0.94032021  0.72325077  1
  Te  Te135  1  0.58118940  0.24887942  0.11681498  1
  Te  Te136  1  0.58154595  0.25371116  0.42786008  1
  Te  Te137  1  0.58474835  0.23149691  0.74861482  1
  Te  Te138  1  0.57080001  0.57273900  0.08443365  1
  Te  Te139  1  0.56400140  0.59187186  0.42233786  1
  Te  Te140  1  0.55433921  0.55685773  0.70505947  1
  Te  Te141  1  0.56934555  0.92032123  0.08588591  1
  Te  Te142  1  0.57990500  0.93622032  0.42674685  1
  Te  Te143  1  0.57691395  0.91720799  0.76128633  1
  Te  Te144  1  0.94867991  0.26213729  0.06699205  1
  Te  Te145  1  0.89929779  0.28779244  0.46019598  1
  Te  Te146  1  0.91627177  0.26408888  0.75594408  1
  Te  Te147  1  0.94841844  0.54742194  0.10856779  1
  Te  Te148  1  0.90304112  0.58823584  0.42836280  1
  Te  Te149  1  0.93366172  0.55517524  0.73651591  1
  Te  Te150  1  0.91116879  0.92212615  0.08788956  1
  Te  Te151  1  0.91121292  0.92291240  0.41671955  1
  Te  Te152  1  0.93537537  0.92728337  0.73136901  1
  Te  Te153  1  0.22744208  0.09943750  0.28578600  1
  Te  Te154  1  0.27126522  0.08115565  0.51620173  1
  Te  Te155  1  0.22909513  0.09822264  0.92382315  1
  Te  Te156  1  0.19764568  0.37471032  0.25407260  1
  Te  Te157  1  0.23426141  0.41394120  0.58085484  1
  Te  Te158  1  0.26261710  0.43293796  0.91252906  1
  Te  Te159  1  0.24443829  0.73567232  0.23243653  1
  Te  Te160  1  0.26383098  0.75371182  0.58643930  1
  Te  Te161  1  0.23084602  0.75142272  0.90188051  1
  Te  Te162  1  0.58044335  0.07940943  0.26767344  1
  Te  Te163  1  0.61377829  0.11561429  0.55406454  1
  Te  Te164  1  0.58874691  0.06785223  0.91463973  1
  Te  Te165  1  0.56884521  0.41482840  0.26498806  1
  Te  Te166  1  0.57693799  0.38164679  0.57266404  1
  Te  Te167  1  0.58968116  0.43077825  0.91972293  1
  Te  Te168  1  0.59433055  0.73749338  0.24909129  1
  Te  Te169  1  0.59703437  0.74516121  0.57097894  1
  Te  Te170  1  0.55571761  0.74181822  0.94296004  1
  Te  Te171  1  0.94369303  0.09842155  0.28976072  1
  Te  Te172  1  0.91657654  0.09834368  0.55227167  1
  Te  Te173  1  0.90641513  0.08936651  0.90571903  1
  Te  Te174  1  0.94371817  0.41714629  0.22998536  1
  Te  Te175  1  0.91368917  0.40444637  0.56298123  1
  Te  Te176  1  0.90963050  0.39134225  0.96019462  1
  Te  Te177  1  0.92771014  0.73941937  0.23892132  1
  Te  Te178  1  0.85280860  0.71500552  0.64753683  1
  Te  Te179  1  0.91062456  0.74300776  0.89955283  1
