# generated using pymatgen
data_In2Te3
_symmetry_space_group_name_H-M   'P 1'
_cell_length_a   18.91899974
_cell_length_b   18.91500347
_cell_length_c   18.91257502
_cell_angle_alpha   90.02224726
_cell_angle_beta   90.00624610
_cell_angle_gamma   90.03501599
_symmetry_Int_Tables_number   1
_chemical_formula_structural   In2Te3
_chemical_formula_sum   'In72 Te108'
_cell_volume   6767.91887114
_cell_formula_units_Z   36
loop_
 _symmetry_equiv_pos_site_id
 _symmetry_equiv_pos_as_xyz
  1  'x, y, z'
loop_
 _atom_site_type_symbol
 _atom_site_label
 _atom_site_symmetry_multiplicity
 _atom_site_fract_x
 _atom_site_fract_y
 _atom_site_fract_z
 _atom_site_occupancy
  In  In0  1  0.31729404  -0.01559893  0.34706513  1
  In  In1  1  0.50975574  0.30875252  0.81102025  1
  In  In2  1  0.14348716  0.50967598  0.64124922  1
  In  In3  1  0.85292765  0.31300216  0.50507532  1
  In  In4  1  0.14635178  0.32201579  0.14873855  1
  In  In5  1  0.14789062  0.68856999  0.81241287  1
  In  In6  1  0.51352359  0.15846778  0.62200371  1
  In  In7  1  -0.01964641  0.83747935  0.18506460  1
  In  In8  1  0.50376075  0.84710678  0.31829438  1
  In  In9  1  0.71520783  0.31766922  0.64519275  1
  In  In10  1  0.68135214  0.15224979  0.18766753  1
  In  In11  1  0.68532811  0.67526008  0.63173581  1
  In  In12  1  0.81713264  0.34123553  0.85969390  1
  In  In13  1  0.33833887  0.17392713  0.17772454  1
  In  In14  1  0.16283178  0.65216956  0.19117076  1
  In  In15  1  0.47734143  0.51909753  0.63864738  1
  In  In16  1  -0.00785268  0.32814720  0.33424809  1
  In  In17  1  0.15647795  0.49265356  0.01420120  1
  In  In18  1  0.50658063  0.34648911  0.48814248  1
  In  In19  1  0.66185867  0.53658478  0.85805908  1
  In  In20  1  0.14561251  0.85226347  -0.01492560  1
  In  In21  1  -0.01127753  0.54537881  0.24239274  1
  In  In22  1  0.63903422  0.34919264  0.03525636  1
  In  In23  1  0.31697506  0.84659320  0.83667716  1
  In  In24  1  0.00565612  0.33971291  -0.02000765  1
  In  In25  1  0.87453742  -0.01818605  0.79268989  1
  In  In26  1  0.85784101  0.83665404  0.00194235  1
  In  In27  1  0.32057133  0.34923426  0.69625959  1
  In  In28  1  0.16747939  0.70522173  0.51058225  1
  In  In29  1  0.32108240  0.52587614  0.85285960  1
  In  In30  1  0.50056850  0.02077320  0.18051218  1
  In  In31  1  0.48110570  0.49748803  0.00952272  1
  In  In32  1  0.49611413  0.66867041  0.50314336  1
  In  In33  1  0.15421010  -0.03449716  0.50736632  1
  In  In34  1  0.17049503  0.33144903  0.84005756  1
  In  In35  1  0.68609203  0.84799705  0.18175010  1
  In  In36  1  0.85232812  -0.02641289  0.51458660  1
  In  In37  1  0.83596157  0.51670426  0.67413003  1
  In  In38  1  0.50815009  0.17180797  0.00302776  1
  In  In39  1  0.00124776  0.67334224  -0.00584825  1
  In  In40  1  0.84519686  0.15898547  -0.02581535  1
  In  In41  1  0.32601504  0.67502311  0.33175129  1
  In  In42  1  0.51163397  0.69230792  0.82170579  1
  In  In43  1  0.81464931  0.85052464  0.35480709  1
  In  In44  1  0.46651107  0.82957619  -0.00148113  1
  In  In45  1  0.51819804  0.67940626  0.17268881  1
  In  In46  1  0.16357357  0.13785727  -0.00616202  1
  In  In47  1  0.33836003  0.16359174  0.49798871  1
  In  In48  1  0.17673275  -0.00727418  0.15545956  1
  In  In49  1  0.66530626  0.66037005  -0.00295568  1
  In  In50  1  0.84767149  0.52681785  -0.00797675  1
  In  In51  1  -0.00884922  0.31392983  0.68073164  1
  In  In52  1  0.01031042  0.11776983  0.78701405  1
  In  In53  1  0.83978431  0.15713171  0.64145469  1
  In  In54  1  0.33384703  0.00350849  0.67555669  1
  In  In55  1  0.34743419  0.35098693  0.33713968  1
  In  In56  1  0.14715781  0.50732721  0.33998582  1
  In  In57  1  0.66773562  -0.00994430  -0.00283982  1
  In  In58  1  -0.02875599  0.15922720  0.18638986  1
  In  In59  1  0.67550396  0.84878741  0.79213651  1
  In  In60  1  0.16616407  0.31655028  0.51960046  1
  In  In61  1  0.65627818  0.33452901  0.33588313  1
  In  In62  1  0.34293626  0.49946963  0.17470394  1
  In  In63  1  0.78977067  0.63562290  0.20313359  1
  In  In64  1  0.02328085  0.00339872  0.33725906  1
  In  In65  1  0.69996777  0.13519911  0.82577380  1
  In  In66  1  0.48270437  0.82821199  0.66390812  1
  In  In67  1  -0.02033095  0.68662481  0.63714875  1
  In  In68  1  0.31841988  0.16487316  0.83172287  1
  In  In69  1  0.65996435  0.49231948  0.51267036  1
  In  In70  1  0.50331760  -0.01505213  0.48360311  1
  In  In71  1  0.80723355  0.32797363  0.17601718  1
  Te  Te72  1  0.06651177  0.07928179  0.09432014  1
  Te  Te73  1  0.11810532  0.07940380  0.42026295  1
  Te  Te74  1  0.13026013  0.02826325  0.77758146  1
  Te  Te75  1  0.04778397  0.42763584  0.09768681  1
  Te  Te76  1  0.07813454  0.40922052  0.42994932  1
  Te  Te77  1  0.08434907  0.41505126  0.74784903  1
  Te  Te78  1  0.08199360  0.74912512  0.09807074  1
  Te  Te79  1  0.06507953  0.77854847  0.43206524  1
  Te  Te80  1  0.07985855  0.77363910  0.71114534  1
  Te  Te81  1  0.40931944  0.08273203  0.07567714  1
  Te  Te82  1  0.42104402  0.08293883  0.40089479  1
  Te  Te83  1  0.42741204  0.10664986  0.73667010  1
  Te  Te84  1  0.41981101  0.39999402  0.09905894  1
  Te  Te85  1  0.41907595  0.44437562  0.42432000  1
  Te  Te86  1  0.42142586  0.43727894  0.76811266  1
  Te  Te87  1  0.40760992  0.73831179  0.09493805  1
  Te  Te88  1  0.41844185  0.76465468  0.41337893  1
  Te  Te89  1  0.38921857  0.74005442  0.74655856  1
  Te  Te90  1  0.75932842  0.08366692  0.07491764  1
  Te  Te91  1  0.74105840  0.06394748  0.47796880  1
  Te  Te92  1  0.76090315  0.05025494  0.71725249  1
  Te  Te93  1  0.75816868  0.43340180  0.07482003  1
  Te  Te94  1  0.75479733  0.40336054  0.43225320  1
  Te  Te95  1  0.74094527  0.42647540  0.75910241  1
  Te  Te96  1  0.75525379  0.74659326  0.08485303  1
  Te  Te97  1  0.76076241  0.74648101  0.44564165  1
  Te  Te98  1  0.76942930  0.75597951  0.72657543  1
  Te  Te99  1  0.08491905  0.23443548  0.25358642  1
  Te  Te100  1  0.06927345  0.22931226  0.58887789  1
  Te  Te101  1  0.07287581  0.22871621  0.89943983  1
  Te  Te102  1  0.05687534  0.66715750  0.32064616  1
  Te  Te103  1  0.06181735  0.59358560  0.54782170  1
  Te  Te104  1  0.08993657  0.58154090  0.91236680  1
  Te  Te105  1  0.10106575  0.90234025  0.25108531  1
  Te  Te106  1  0.03591137  0.94507957  0.60123039  1
  Te  Te107  1  0.07282706  0.93434354  0.88623666  1
  Te  Te108  1  0.42852805  0.25221851  0.26508465  1
  Te  Te109  1  0.40514486  0.26684148  0.59516417  1
  Te  Te110  1  0.41425070  0.25476084  0.91441083  1
  Te  Te111  1  0.42954139  0.58789762  0.26109570  1
  Te  Te112  1  0.37751727  0.61584207  0.58292068  1
  Te  Te113  1  0.42722495  0.60923986  0.92277068  1
  Te  Te114  1  0.40086932  0.91996812  0.23465459  1
  Te  Te115  1  0.40051355  0.91485286  0.57068551  1
  Te  Te116  1  0.43612600  0.92024794  0.88782033  1
  Te  Te117  1  0.76567005  0.23158878  0.28449160  1
  Te  Te118  1  0.73246720  0.20964251  0.53758590  1
  Te  Te119  1  0.72226827  0.25033145  0.93654074  1
  Te  Te120  1  0.70456744  0.55126362  0.29112185  1
  Te  Te121  1  0.77693152  0.58265850  0.55121535  1
  Te  Te122  1  0.77968590  0.62419028  0.89789922  1
  Te  Te123  1  0.78064367  0.94418158  0.24294139  1
  Te  Te124  1  0.78491579  0.86504474  0.59367450  1
  Te  Te125  1  0.76528100  0.92174635  0.90160980  1
  Te  Te126  1  0.24635342  0.24064761  0.07095273  1
  Te  Te127  1  0.25430846  0.25544394  0.41013929  1
  Te  Te128  1  0.22602352  0.23639304  0.73452636  1
  Te  Te129  1  0.25208182  0.58487721  0.08618063  1
  Te  Te130  1  0.23840830  0.59211458  0.42339439  1
  Te  Te131  1  0.23365879  0.58183243  0.74383834  1
  Te  Te132  1  0.25589613  0.92352086  0.05168564  1
  Te  Te133  1  0.24687858  0.88275255  0.42647690  1
  Te  Te134  1  0.23121012  0.90854184  0.73095500  1
  Te  Te135  1  0.57677173  0.24216020  0.12086735  1
  Te  Te136  1  0.56767671  0.24058913  0.40923669  1
  Te  Te137  1  0.61531149  0.22765090  0.73515927  1
  Te  Te138  1  0.58800875  0.57037425  0.09054088  1
  Te  Te139  1  0.58414663  0.58067429  0.42074275  1
  Te  Te140  1  0.58747170  0.59675017  0.72893241  1
  Te  Te141  1  0.57796783  0.91031520  0.09210323  1
  Te  Te142  1  0.60548762  0.92632338  0.39187093  1
  Te  Te143  1  0.55648932  0.92352175  0.75171672  1
  Te  Te144  1  0.91088861  0.25691594  0.07422913  1
  Te  Te145  1  0.93179772  0.22532182  0.41903611  1
  Te  Te146  1  0.88960362  0.23904771  0.76843040  1
  Te  Te147  1  0.91621735  0.60088534  0.10643925  1
  Te  Te148  1  0.93434500  0.58513054  0.37116345  1
  Te  Te149  1  0.93320211  0.59786207  0.74629169  1
  Te  Te150  1  0.92427958  0.93369643  0.08911770  1
  Te  Te151  1  0.95148189  0.89144906  0.41660287  1
  Te  Te152  1  0.95090424  0.88138041  0.71498641  1
  Te  Te153  1  0.24440819  0.08471069  0.25624837  1
  Te  Te154  1  0.24402401  0.07746984  0.57681999  1
  Te  Te155  1  0.25910822  0.05747595  0.91392537  1
  Te  Te156  1  0.22333538  0.42120378  0.24115793  1
  Te  Te157  1  0.25526858  0.42465222  0.58190054  1
  Te  Te158  1  0.25785603  0.41310986  0.93366340  1
  Te  Te159  1  0.24959923  0.75966018  0.23806766  1
  Te  Te160  1  0.27708558  0.73289334  0.60251864  1
  Te  Te161  1  0.23866812  0.74592415  0.92011678  1
  Te  Te162  1  0.60518360  0.06063836  0.27654498  1
  Te  Te163  1  0.60272775  0.04867652  0.57678770  1
  Te  Te164  1  0.58328031  0.07934370  0.90743561  1
  Te  Te165  1  0.61674124  0.43890289  0.24150527  1
  Te  Te166  1  0.58334455  0.40272800  0.61070446  1
  Te  Te167  1  0.57934228  0.41440142  0.90858696  1
  Te  Te168  1  0.61213475  0.74882545  0.26970604  1
  Te  Te169  1  0.58736038  0.77276660  0.56768509  1
  Te  Te170  1  0.59936980  0.77189769  0.91758403  1
  Te  Te171  1  0.90128080  0.06617596  0.27703092  1
  Te  Te172  1  0.94822802  0.07386704  0.57877117  1
  Te  Te173  1  0.93889457  0.05798085  0.91104404  1
  Te  Te174  1  0.89680086  0.41843283  0.25858034  1
  Te  Te175  1  0.92080987  0.41600232  0.59295623  1
  Te  Te176  1  0.92686370  0.43994368  0.89604550  1
  Te  Te177  1  0.87677670  0.74861107  0.25582542  1
  Te  Te178  1  0.87995299  0.75786823  0.54219188  1
  Te  Te179  1  0.95283582  0.78013335  0.90435584  1
