# generated using pymatgen
data_In2Te3
_symmetry_space_group_name_H-M   'P 1'
_cell_length_a   18.76330794
_cell_length_b   18.76076052
_cell_length_c   18.76910089
_cell_angle_alpha   89.92796088
_cell_angle_beta   89.99788065
_cell_angle_gamma   89.95198734
_symmetry_Int_Tables_number   1
_chemical_formula_structural   In2Te3
_chemical_formula_sum   'In72 Te108'
_cell_volume   6606.97736307
_cell_formula_units_Z   36
loop_
 _symmetry_equiv_pos_site_id
 _symmetry_equiv_pos_as_xyz
  1  'x, y, z'
loop_
 _atom_site_type_symbol
 _atom_site_label
 _atom_site_symmetry_multiplicity
 _atom_site_fract_x
 _atom_site_fract_y
 _atom_site_fract_z
 _atom_site_occupancy
  In  In0  1  0.50654932  -0.01241148  0.82963784  1
  In  In1  1  -0.04990775  0.51479969  0.82705038  1
  In  In2  1  0.33344111  0.50123510  0.82487156  1
  In  In3  1  0.83158498  0.67792681  0.51725202  1
  In  In4  1  0.66477348  0.84102612  0.16695883  1
  In  In5  1  0.34267063  0.32756953  0.01927655  1
  In  In6  1  -0.00285719  0.69236191  0.34141713  1
  In  In7  1  0.30671743  0.29448260  0.68693524  1
  In  In8  1  0.50081618  0.35214647  0.49667056  1
  In  In9  1  -0.01862382  0.82694854  0.51021341  1
  In  In10  1  0.18871223  0.67189784  0.17732935  1
  In  In11  1  0.00211148  0.68585311  -0.02344312  1
  In  In12  1  0.15865214  0.30941528  0.84481554  1
  In  In13  1  0.49511993  -0.00578701  0.50848795  1
  In  In14  1  0.50658474  0.82841044  -0.01081603  1
  In  In15  1  0.84661323  0.83767494  0.00047296  1
  In  In16  1  0.15223321  0.84224558  0.67627900  1
  In  In17  1  0.16450086  0.00259896  0.49761226  1
  In  In18  1  0.51103997  0.53304670  0.35470624  1
  In  In19  1  0.00871580  0.49847189  0.15623301  1
  In  In20  1  0.01320569  0.33380641  0.33996355  1
  In  In21  1  0.49648374  -0.00113519  0.15924690  1
  In  In22  1  0.81677967  0.00610434  0.80559004  1
  In  In23  1  0.71303459  0.52455666  0.84222919  1
  In  In24  1  0.65986985  0.33623759  0.65200548  1
  In  In25  1  0.83877754  -0.00350685  0.51145780  1
  In  In26  1  0.50073510  0.50279767  0.65575557  1
  In  In27  1  0.67521673  0.15946368  0.16592726  1
  In  In28  1  0.50319140  0.49724596  -0.00782408  1
  In  In29  1  0.49160948  0.83968168  0.33952686  1
  In  In30  1  0.14450825  0.02367397  0.14927857  1
  In  In31  1  0.15735382  0.50334741  0.66878354  1
  In  In32  1  0.31527711  0.84444198  0.16488604  1
  In  In33  1  0.82701442  0.50417506  0.34801976  1
  In  In34  1  0.49035253  0.15844213  0.31944895  1
  In  In35  1  0.01336795  0.14805397  0.81411181  1
  In  In36  1  0.66988183  0.83529605  0.81320519  1
  In  In37  1  0.66812598  0.67413132  0.65646171  1
  In  In38  1  0.49194982  0.15150003  -0.03534110  1
  In  In39  1  0.49271843  0.68161602  0.82741984  1
  In  In40  1  0.01084096  0.85954795  0.18351320  1
  In  In41  1  0.66051906  0.49078031  0.15960204  1
  In  In42  1  0.84257293  0.31762204  0.14074118  1
  In  In43  1  0.34556322  0.84524872  0.49747763  1
  In  In44  1  0.68223673  0.32747250  -0.00842565  1
  In  In45  1  0.50744763  0.29960602  0.82462575  1
  In  In46  1  0.48214506  0.32438558  0.16207707  1
  In  In47  1  0.68257347  0.36083000  0.36112301  1
  In  In48  1  0.82109121  0.83177729  0.37125742  1
  In  In49  1  0.31437463  0.83877908  0.82970933  1
  In  In50  1  0.16986269  0.47853716  0.34333507  1
  In  In51  1  0.86006298  0.17222192  -0.00232237  1
  In  In52  1  0.84917257  0.00131920  0.16357437  1
  In  In53  1  0.15215628  0.51310275  0.01135918  1
  In  In54  1  0.16138849  0.83913089  -0.02060672  1
  In  In55  1  0.15752255  0.32094662  0.50050019  1
  In  In56  1  0.67576668  0.84222044  0.52120234  1
  In  In57  1  0.82953457  0.64332519  0.16874244  1
  In  In58  1  0.67543009  0.16831452  0.51578016  1
  In  In59  1  -0.00314262  0.85469813  0.82988996  1
  In  In60  1  0.14505769  0.65622772  0.51174083  1
  In  In61  1  0.33590431  0.51321264  0.50057011  1
  In  In62  1  0.85020115  0.15742665  0.33830726  1
  In  In63  1  0.49191632  0.65508222  0.16647002  1
  In  In64  1  0.31813023  0.15245618  0.17298562  1
  In  In65  1  0.49657470  0.13962710  0.66553389  1
  In  In66  1  0.84484644  0.33395823  0.82815401  1
  In  In67  1  -0.01429195  0.34396816  0.64850570  1
  In  In68  1  0.00134143  0.15232922  0.51401969  1
  In  In69  1  0.30899319  0.16734335  0.49892379  1
  In  In70  1  0.34755971  0.65903821  0.66363074  1
  In  In71  1  0.15635001  0.31868720  0.17142520  1
  Te  Te72  1  0.07013552  0.11730074  0.05938874  1
  Te  Te73  1  0.09329514  0.10232367  0.40959998  1
  Te  Te74  1  0.10496544  0.04876364  0.75050634  1
  Te  Te75  1  0.07108283  0.39446538  0.06516865  1
  Te  Te76  1  0.06754976  0.43140249  0.44668035  1
  Te  Te77  1  0.07652271  0.40988025  0.76077229  1
  Te  Te78  1  0.07694947  0.74972207  0.09491270  1
  Te  Te79  1  0.09573266  0.77180781  0.42212769  1
  Te  Te80  1  0.08222427  0.75062617  0.76837108  1
  Te  Te81  1  0.40497915  0.08004926  0.06822280  1
  Te  Te82  1  0.40479762  0.07842283  0.41635096  1
  Te  Te83  1  0.40083000  0.07892438  0.76459081  1
  Te  Te84  1  0.40794624  0.44190639  0.09846738  1
  Te  Te85  1  0.40646892  0.42151763  0.40138490  1
  Te  Te86  1  0.42075848  0.40502211  0.74245890  1
  Te  Te87  1  0.41049737  0.75439931  0.08192727  1
  Te  Te88  1  0.41564135  0.74048000  0.41816299  1
  Te  Te89  1  0.41831286  0.77518783  0.73422433  1
  Te  Te90  1  0.75620829  0.07838850  0.06866498  1
  Te  Te91  1  0.74746401  0.07576885  0.41597676  1
  Te  Te92  1  0.71644667  0.09992754  0.75259252  1
  Te  Te93  1  0.76642633  0.42930481  0.06674378  1
  Te  Te94  1  0.78889413  0.40655066  0.45914766  1
  Te  Te95  1  0.75734838  0.42315585  0.73951906  1
  Te  Te96  1  0.75327930  0.74811141  0.08395941  1
  Te  Te97  1  0.72052364  0.72551312  0.41806283  1
  Te  Te98  1  0.76216655  0.73483019  0.75373453  1
  Te  Te99  1  0.09205281  0.22826300  0.27252550  1
  Te  Te100  1  0.09156553  0.23803644  0.60702206  1
  Te  Te101  1  0.07813742  0.21728058  0.93437586  1
  Te  Te102  1  0.07601523  0.58722843  0.26066757  1
  Te  Te103  1  0.04875927  0.58687184  0.60536183  1
  Te  Te104  1  0.07697661  0.58045391  0.89738283  1
  Te  Te105  1  0.11542196  0.92599903  0.26248362  1
  Te  Te106  1  0.06190208  0.92966217  0.58882959  1
  Te  Te107  1  0.08613019  0.94657386  0.90830078  1
  Te  Te108  1  0.38888545  0.25718949  0.26140432  1
  Te  Te109  1  0.42503981  0.25383321  0.58641532  1
  Te  Te110  1  0.38430823  0.24090225  0.89749265  1
  Te  Te111  1  0.40742471  0.58247957  0.26334729  1
  Te  Te112  1  0.44440334  0.60537639  0.55739317  1
  Te  Te113  1  0.40788575  0.59435589  0.92064809  1
  Te  Te114  1  0.40196807  0.93310635  0.25740267  1
  Te  Te115  1  0.39773609  0.93496186  0.60352134  1
  Te  Te116  1  0.40443993  0.92046571  0.92450492  1
  Te  Te117  1  0.75184573  0.25952760  0.25301617  1
  Te  Te118  1  0.76827365  0.25392749  0.59111762  1
  Te  Te119  1  0.75524182  0.23195564  0.90126558  1
  Te  Te120  1  0.72441332  0.58416185  0.26386615  1
  Te  Te121  1  0.75580785  0.57187808  0.59071147  1
  Te  Te122  1  0.80228188  0.60069444  0.92801704  1
  Te  Te123  1  0.75960012  0.91864581  0.25714565  1
  Te  Te124  1  0.78042330  0.89957073  0.61094843  1
  Te  Te125  1  0.74973438  0.91917300  0.91539815  1
  Te  Te126  1  0.23690542  0.23146275  0.07011643  1
  Te  Te127  1  0.24497277  0.25776321  0.40085580  1
  Te  Te128  1  0.21978178  0.18914249  0.76430973  1
  Te  Te129  1  0.25889102  0.58716658  0.07991685  1
  Te  Te130  1  0.24349309  0.59491280  0.41115150  1
  Te  Te131  1  0.23995856  0.59991111  0.75519934  1
  Te  Te132  1  0.24243146  0.93531013  0.06612447  1
  Te  Te133  1  0.24797484  0.91486274  0.41018560  1
  Te  Te134  1  0.22153252  0.94385068  0.76711622  1
  Te  Te135  1  0.57658779  0.24304689  0.07283723  1
  Te  Te136  1  0.57885047  0.24433004  0.41420736  1
  Te  Te137  1  0.61078223  0.21792888  0.74532963  1
  Te  Te138  1  0.59546835  0.59334167  0.06686389  1
  Te  Te139  1  0.63018388  0.58481417  0.41927066  1
  Te  Te140  1  0.58275718  0.57246835  0.76434696  1
  Te  Te141  1  0.59398588  0.92978681  0.06454123  1
  Te  Te142  1  0.59490229  0.92222423  0.41695267  1
  Te  Te143  1  0.57753547  0.90995382  0.72450842  1
  Te  Te144  1  0.94911117  0.21467552  0.11326911  1
  Te  Te145  1  0.91879714  0.25514585  0.43188373  1
  Te  Te146  1  0.91489363  0.23589756  0.73504703  1
  Te  Te147  1  0.91982406  0.58098988  0.06259984  1
  Te  Te148  1  0.92423670  0.59132065  0.42775262  1
  Te  Te149  1  0.92574536  0.59998746  0.70960188  1
  Te  Te150  1  0.94670288  0.93290348  0.06600255  1
  Te  Te151  1  0.92984252  0.93026643  0.40563750  1
  Te  Te152  1  0.90776057  0.91758912  0.72584162  1
  Te  Te153  1  0.23582578  0.06742325  0.26081735  1
  Te  Te154  1  0.25264938  0.07367722  0.59617721  1
  Te  Te155  1  0.28572334  0.10373058  0.87105243  1
  Te  Te156  1  0.24395951  0.42298022  0.22968889  1
  Te  Te157  1  0.25917404  0.41672845  0.59231690  1
  Te  Te158  1  0.25011585  0.41324348  0.91877019  1
  Te  Te159  1  0.25199175  0.76364526  0.27258602  1
  Te  Te160  1  0.24424313  0.74680439  0.58841014  1
  Te  Te161  1  0.24895625  0.73874632  0.91707830  1
  Te  Te162  1  0.59503878  0.06647684  0.25663492  1
  Te  Te163  1  0.60670410  0.05707182  0.59520216  1
  Te  Te164  1  0.60312169  0.07812501  0.90077609  1
  Te  Te165  1  0.57543277  0.40519833  0.25389135  1
  Te  Te166  1  0.60345015  0.44575792  0.55813360  1
  Te  Te167  1  0.58962495  0.40935691  0.89976632  1
  Te  Te168  1  0.57952347  0.74864878  0.25191433  1
  Te  Te169  1  0.57084711  0.76191254  0.58781971  1
  Te  Te170  1  0.60379799  0.73762222  0.91542917  1
  Te  Te171  1  0.94008948  0.08055167  0.25030639  1
  Te  Te172  1  0.91134159  0.08171062  0.60862825  1
  Te  Te173  1  0.91769915  0.06738942  0.90366862  1
  Te  Te174  1  0.91097589  0.41796375  0.24558625  1
  Te  Te175  1  0.88552258  0.42937799  0.58314132  1
  Te  Te176  1  0.93220877  0.40458307  0.92358949  1
  Te  Te177  1  0.90011159  0.75865405  0.24348778  1
  Te  Te178  1  0.92611464  0.73893038  0.61939321  1
  Te  Te179  1  0.88578800  0.73724252  0.88977568  1
