# generated using pymatgen
data_In2Te3
_symmetry_space_group_name_H-M   'P 1'
_cell_length_a   18.99252357
_cell_length_b   18.94159472
_cell_length_c   18.96515722
_cell_angle_alpha   89.99452172
_cell_angle_beta   89.64148196
_cell_angle_gamma   90.11359648
_symmetry_Int_Tables_number   1
_chemical_formula_structural   In2Te3
_chemical_formula_sum   'In72 Te108'
_cell_volume   6822.54334159
_cell_formula_units_Z   36
loop_
 _symmetry_equiv_pos_site_id
 _symmetry_equiv_pos_as_xyz
  1  'x, y, z'
loop_
 _atom_site_type_symbol
 _atom_site_label
 _atom_site_symmetry_multiplicity
 _atom_site_fract_x
 _atom_site_fract_y
 _atom_site_fract_z
 _atom_site_occupancy
  In  In0  1  -0.02221787  0.64560503  0.67279070  1
  In  In1  1  0.00973190  -0.00993839  -0.00464759  1
  In  In2  1  0.68315604  0.83239326  0.83906712  1
  In  In3  1  0.48749663  0.82087063  0.67316045  1
  In  In4  1  0.65148618  0.19141632  0.15595102  1
  In  In5  1  0.32362681  0.34180727  0.65412621  1
  In  In6  1  0.02092881  -0.00288041  0.33323858  1
  In  In7  1  0.85186691  0.81917128  0.67918440  1
  In  In8  1  0.16574450  0.81942220  -0.00275851  1
  In  In9  1  0.81551385  0.36199833  0.50098213  1
  In  In10  1  0.15534274  0.51185330  -0.00662533  1
  In  In11  1  0.00116079  0.33631849  0.31938747  1
  In  In12  1  0.84779013  0.17206835  0.34799452  1
  In  In13  1  0.17298082  0.15204104  0.00064633  1
  In  In14  1  0.17001749  0.66487044  0.13993981  1
  In  In15  1  0.50264953  0.00014984  0.15263450  1
  In  In16  1  0.35275454  0.50862641  0.81248590  1
  In  In17  1  -0.01236252  0.49340583  0.16078229  1
  In  In18  1  0.83612833  0.18305301  0.00402984  1
  In  In19  1  0.49297687  -0.00124261  0.86306272  1
  In  In20  1  0.64853063  0.66448825  0.33096247  1
  In  In21  1  0.67159787  0.63958058  -0.01153962  1
  In  In22  1  0.00827476  0.66683727  0.32871626  1
  In  In23  1  0.48920863  0.66684356  0.49446841  1
  In  In24  1  0.84246063  0.17140873  0.67952980  1
  In  In25  1  0.48333452  0.14845837  0.29991449  1
  In  In26  1  0.80866618  0.80983067  0.00590140  1
  In  In27  1  0.62256031  0.36820436  -0.02617154  1
  In  In28  1  -0.00409782  0.49765809  0.49436581  1
  In  In29  1  0.36909581  0.36637333  0.01721809  1
  In  In30  1  -0.03744746  0.35099816  -0.01724932  1
  In  In31  1  -0.02264581  0.67311008  -0.02226108  1
  In  In32  1  -0.00720282  0.33212891  0.67312944  1
  In  In33  1  0.67505202  0.15647300  0.86263429  1
  In  In34  1  0.68367546  0.35838647  0.36363698  1
  In  In35  1  0.49931183  0.51082868  0.31220459  1
  In  In36  1  0.66075606  0.83568425  0.51061578  1
  In  In37  1  0.14827029  0.15904472  0.66042447  1
  In  In38  1  0.16910035  0.01105728  0.48734104  1
  In  In39  1  -0.00907139  -0.01473356  0.69468694  1
  In  In40  1  0.66587093  0.50848256  0.18500687  1
  In  In41  1  0.16466370  0.34082603  0.82655563  1
  In  In42  1  0.82629713  0.80303778  0.32402713  1
  In  In43  1  0.32554101  0.15652135  0.15586125  1
  In  In44  1  0.31271755  0.01609631  0.30427435  1
  In  In45  1  0.34322608  0.65063844  0.00832585  1
  In  In46  1  0.33853815  0.66524619  0.65943180  1
  In  In47  1  0.15804933  0.81563128  0.68806436  1
  In  In48  1  -0.00456466  0.82039870  0.51292022  1
  In  In49  1  0.83127908  -0.00861599  0.17954504  1
  In  In50  1  0.20502939  0.52352688  0.34476373  1
  In  In51  1  0.49669183  -0.00506967  0.44397623  1
  In  In52  1  0.67761151  0.36235679  0.69753394  1
  In  In53  1  0.18247728  0.34499179  0.18614394  1
  In  In54  1  0.47792681  0.35030883  0.48032456  1
  In  In55  1  0.67482266  -0.03053664  0.35119495  1
  In  In56  1  0.35093297  0.18007533  0.86662502  1
  In  In57  1  0.82417300  0.34774214  0.15587555  1
  In  In58  1  0.50312075  0.17915307  0.66828270  1
  In  In59  1  0.86614722  -0.01216165  0.53497065  1
  In  In60  1  0.16264946  0.83338364  0.33099419  1
  In  In61  1  0.00103982  0.15844824  0.82600834  1
  In  In62  1  0.65191371  0.03435179  0.67682067  1
  In  In63  1  0.66652929  0.17840460  0.47673773  1
  In  In64  1  0.15199651  0.47834838  0.66062543  1
  In  In65  1  0.50392952  0.83836012  0.00087774  1
  In  In66  1  0.33567936  0.84214825  0.15282926  1
  In  In67  1  0.32616104  -0.01969519  0.66716121  1
  In  In68  1  0.52444743  0.49168451  0.66888386  1
  In  In69  1  0.20130153  0.31056823  0.46701996  1
  In  In70  1  0.35985942  0.80158102  0.47852526  1
  In  In71  1  0.74117402  0.57095703  0.71938745  1
  Te  Te72  1  0.07720965  0.08375094  0.08653946  1
  Te  Te73  1  0.07519991  0.09984901  0.42178555  1
  Te  Te74  1  0.10151086  0.06069115  0.76632434  1
  Te  Te75  1  0.08056667  0.40602326  0.07472170  1
  Te  Te76  1  0.09693965  0.41925684  0.40668327  1
  Te  Te77  1  0.05717205  0.43135810  0.77134452  1
  Te  Te78  1  0.05902050  0.74629179  0.08521245  1
  Te  Te79  1  0.09396451  0.74093705  0.43048397  1
  Te  Te80  1  0.04564683  0.74935254  0.75397495  1
  Te  Te81  1  0.42584547  0.09229482  0.06914238  1
  Te  Te82  1  0.38913640  0.09827192  0.41157586  1
  Te  Te83  1  0.41850979  0.08314447  0.74892545  1
  Te  Te84  1  0.46213240  0.46457346  0.08625154  1
  Te  Te85  1  0.39873640  0.44309957  0.40053841  1
  Te  Te86  1  0.43031480  0.39644552  0.74517245  1
  Te  Te87  1  0.43057120  0.74065412  0.09351059  1
  Te  Te88  1  0.40629595  0.70547477  0.37075407  1
  Te  Te89  1  0.41241602  0.73503529  0.76407884  1
  Te  Te90  1  0.75341048  0.09677164  0.09688785  1
  Te  Te91  1  0.76867077  0.06846649  0.43159034  1
  Te  Te92  1  0.76447219  0.07529401  0.76746756  1
  Te  Te93  1  0.72799103  0.42450222  0.07290685  1
  Te  Te94  1  0.75039570  0.47646549  0.42775464  1
  Te  Te95  1  0.76369969  0.43752978  0.78711543  1
  Te  Te96  1  0.73080875  0.72181750  0.09821418  1
  Te  Te97  1  0.74451585  0.73666099  0.43310301  1
  Te  Te98  1  0.74181964  0.73853889  0.73791373  1
  Te  Te99  1  0.09551293  0.24715016  0.25150794  1
  Te  Te100  1  0.09522206  0.27305609  0.57798182  1
  Te  Te101  1  0.07639925  0.25522226  0.91719860  1
  Te  Te102  1  0.09501955  0.56730437  0.23971137  1
  Te  Te103  1  0.08493041  0.58708479  0.57924749  1
  Te  Te104  1  0.09180559  0.60898614  0.90437761  1
  Te  Te105  1  0.08518177  0.91044331  0.23566319  1
  Te  Te106  1  0.08501632  0.92004076  0.58486115  1
  Te  Te107  1  0.08822065  0.90474293  0.90623677  1
  Te  Te108  1  0.38996575  0.25429848  0.25132061  1
  Te  Te109  1  0.40965242  0.24713284  0.57177192  1
  Te  Te110  1  0.43920276  0.28679091  0.91267196  1
  Te  Te111  1  0.41343988  0.55294847  0.19917827  1
  Te  Te112  1  0.42119088  0.56305060  0.58425953  1
  Te  Te113  1  0.43674672  0.56944903  0.91938857  1
  Te  Te114  1  0.41947284  0.92259583  0.25210508  1
  Te  Te115  1  0.43184892  0.91748644  0.56791314  1
  Te  Te116  1  0.39800155  0.91023585  0.92960581  1
  Te  Te117  1  0.75212818  0.25402266  0.26344447  1
  Te  Te118  1  0.74825756  0.24583134  0.58629595  1
  Te  Te119  1  0.74180027  0.27377345  0.93096978  1
  Te  Te120  1  0.75245624  0.61884046  0.23364525  1
  Te  Te121  1  0.75352815  0.52238757  0.57789915  1
  Te  Te122  1  0.78966315  0.58721439  0.90833356  1
  Te  Te123  1  0.73514743  0.88788446  0.23819106  1
  Te  Te124  1  0.74276680  0.92878417  0.60104276  1
  Te  Te125  1  0.72262587  0.91951831  0.95121432  1
  Te  Te126  1  0.25814249  0.27125517  0.06696714  1
  Te  Te127  1  0.29536840  0.24317903  0.37770555  1
  Te  Te128  1  0.24976421  0.24286291  0.74706188  1
  Te  Te129  1  0.26092004  0.55188871  0.09386625  1
  Te  Te130  1  0.27987149  0.62671500  0.41473654  1
  Te  Te131  1  0.23983088  0.57586596  0.73749742  1
  Te  Te132  1  0.24357591  0.91921550  0.07247695  1
  Te  Te133  1  0.26498764  0.91365335  0.41877579  1
  Te  Te134  1  0.26577250  0.88490839  0.75960338  1
  Te  Te135  1  0.56407332  0.26995131  0.07014022  1
  Te  Te136  1  0.56180845  0.24798344  0.39486433  1
  Te  Te137  1  0.60117205  0.24550934  0.76015061  1
  Te  Te138  1  0.57322073  0.58034688  0.09106494  1
  Te  Te139  1  0.58225698  0.56703688  0.42783451  1
  Te  Te140  1  0.59471826  0.57587985  0.76920477  1
  Te  Te141  1  0.60133582  0.92239674  0.07496965  1
  Te  Te142  1  0.56440931  0.86292607  0.39072730  1
  Te  Te143  1  0.57944941  0.92321458  0.75090599  1
  Te  Te144  1  0.92994513  0.25614535  0.09774914  1
  Te  Te145  1  0.91962742  0.27154583  0.43515459  1
  Te  Te146  1  0.90343068  0.26750168  0.77835965  1
  Te  Te147  1  0.90416583  0.58422379  0.07906770  1
  Te  Te148  1  0.91589572  0.58194248  0.40608374  1
  Te  Te149  1  0.88517169  0.58592760  0.77516113  1
  Te  Te150  1  0.90450554  0.91112563  0.07685788  1
  Te  Te151  1  0.91049590  0.90533240  0.41517082  1
  Te  Te152  1  0.89859785  0.91169002  0.78319914  1
  Te  Te153  1  0.21418534  0.09276266  0.22993231  1
  Te  Te154  1  0.25784566  0.08816076  0.58300217  1
  Te  Te155  1  0.25375265  0.07969916  0.90279582  1
  Te  Te156  1  0.28104012  0.42646780  0.26099163  1
  Te  Te157  1  0.25024845  0.42728128  0.55516643  1
  Te  Te158  1  0.25970763  0.42419278  0.90958754  1
  Te  Te159  1  0.24879808  0.74865183  0.23740969  1
  Te  Te160  1  0.25466506  0.76135165  0.57827697  1
  Te  Te161  1  0.23336336  0.70612360  0.92533067  1
  Te  Te162  1  0.61153550  0.07486726  0.25952639  1
  Te  Te163  1  0.57325624  0.08257318  0.55342468  1
  Te  Te164  1  0.57225161  0.09140485  0.94494993  1
  Te  Te165  1  0.58720848  0.39779181  0.25593135  1
  Te  Te166  1  0.59060360  0.39100877  0.57669911  1
  Te  Te167  1  0.57218659  0.48444616  0.89423942  1
  Te  Te168  1  0.55650878  0.76208197  0.27540920  1
  Te  Te169  1  0.58369359  0.73360841  0.59408855  1
  Te  Te170  1  0.58564006  0.74408410  0.91369562  1
  Te  Te171  1  0.92502646  0.08697004  0.25073851  1
  Te  Te172  1  0.94659731  0.09903514  0.59663606  1
  Te  Te173  1  0.90918903  0.08277524  0.91840962  1
  Te  Te174  1  0.89440490  0.42855684  0.26313853  1
  Te  Te175  1  0.90466915  0.43398526  0.60304453  1
  Te  Te176  1  0.88681522  0.47566310  0.96089595  1
  Te  Te177  1  0.93806653  0.76015252  0.24027576  1
  Te  Te178  1  0.89432147  0.72356522  0.57001301  1
  Te  Te179  1  0.90629309  0.77615931  0.89815359  1
