# generated using pymatgen
data_In2Te3
_symmetry_space_group_name_H-M   'P 1'
_cell_length_a   18.90837825
_cell_length_b   18.95294481
_cell_length_c   18.95346395
_cell_angle_alpha   90.03935473
_cell_angle_beta   90.05465755
_cell_angle_gamma   89.79791400
_symmetry_Int_Tables_number   1
_chemical_formula_structural   In2Te3
_chemical_formula_sum   'In72 Te108'
_cell_volume   6792.29551537
_cell_formula_units_Z   36
loop_
 _symmetry_equiv_pos_site_id
 _symmetry_equiv_pos_as_xyz
  1  'x, y, z'
loop_
 _atom_site_type_symbol
 _atom_site_label
 _atom_site_symmetry_multiplicity
 _atom_site_fract_x
 _atom_site_fract_y
 _atom_site_fract_z
 _atom_site_occupancy
  In  In0  1  0.35355159  0.48003563  0.16098769  1
  In  In1  1  -0.01363548  0.85098038  0.49106117  1
  In  In2  1  0.78743673  0.50133015  -0.02688264  1
  In  In3  1  0.35924143  0.31119777  0.63642305  1
  In  In4  1  0.61954788  0.69865955  -0.02154706  1
  In  In5  1  0.53079196  0.13352117  -0.02196012  1
  In  In6  1  0.67445466  0.50678178  0.16649074  1
  In  In7  1  0.16957047  0.69973932  0.50067736  1
  In  In8  1  0.83780445  0.66621884  0.18236896  1
  In  In9  1  0.66743061  0.67912638  0.34894117  1
  In  In10  1  0.82709556  0.16940715  0.65280497  1
  In  In11  1  0.53540659  -0.02315587  0.47750151  1
  In  In12  1  0.82335965  0.81038059  0.66815994  1
  In  In13  1  0.01527617  0.64574625  0.68465037  1
  In  In14  1  0.32306456  0.16385503  0.17880723  1
  In  In15  1  -0.03196289  0.50534702  0.85221705  1
  In  In16  1  0.54135453  0.47761582  -0.04827558  1
  In  In17  1  0.35458596  0.83796489  0.50186173  1
  In  In18  1  -0.01092089  0.84862110  0.86148336  1
  In  In19  1  0.30900757  0.09280416  0.66918412  1
  In  In20  1  0.65953876  -0.00785825  0.67828029  1
  In  In21  1  0.65327941  0.33318301  0.45836497  1
  In  In22  1  0.19200214  0.48525501  0.67537731  1
  In  In23  1  0.48339413  0.31596473  0.16092857  1
  In  In24  1  0.80509861  0.02153839  0.48188883  1
  In  In25  1  0.35734983  0.30039855  -0.03431037  1
  In  In26  1  0.81121838  0.18422878  -0.00641700  1
  In  In27  1  0.00644866  -0.01048588  0.66216710  1
  In  In28  1  0.78537750  -0.00817577  0.84841309  1
  In  In29  1  0.16279714  0.49692604  0.00687822  1
  In  In30  1  0.82728261  0.48717193  0.66512061  1
  In  In31  1  -0.02596598  0.50387408  0.52000491  1
  In  In32  1  0.00519340  0.48518840  0.16731374  1
  In  In33  1  0.17091063  0.17120304  -0.01128619  1
  In  In34  1  -0.02052667  0.16176456  0.81597176  1
  In  In35  1  0.82047526  -0.00586833  0.19180499  1
  In  In36  1  -0.00015045  0.82604399  0.17718905  1
  In  In37  1  -0.00889054  0.30423615  0.32975151  1
  In  In38  1  0.84542814  0.32392924  0.15076393  1
  In  In39  1  0.33712692  -0.01361189  -0.00659505  1
  In  In40  1  0.65928761  0.16784663  0.17341335  1
  In  In41  1  0.18444178  0.67863884  0.17953679  1
  In  In42  1  0.34842570  0.69874367  0.35577809  1
  In  In43  1  0.50206616  0.82511562  0.67245450  1
  In  In44  1  0.51439697  0.48942388  0.68484367  1
  In  In45  1  0.81251271  0.83333351  -0.00649998  1
  In  In46  1  0.35998212  0.01040499  0.34294485  1
  In  In47  1  0.65661396  0.83638280  0.16617117  1
  In  In48  1  0.01677188  0.03443600  0.35030652  1
  In  In49  1  0.17864909  -0.00465503  0.83968349  1
  In  In50  1  0.65794961  0.67843883  0.68237745  1
  In  In51  1  0.34375845  0.84595249  0.83189324  1
  In  In52  1  0.50243842  0.00199291  0.18351258  1
  In  In53  1  0.47986508  0.67677669  0.14708721  1
  In  In54  1  0.35386070  0.52176461  0.50852218  1
  In  In55  1  -0.01202753  0.35060326  0.64470205  1
  In  In56  1  0.17716271  0.32026228  0.80664547  1
  In  In57  1  0.34341285  0.30975454  0.34597684  1
  In  In58  1  0.14581575  0.50398947  0.33092216  1
  In  In59  1  0.82194895  0.65827934  0.49896427  1
  In  In60  1  -0.00861785  0.66670660  0.02033470  1
  In  In61  1  0.82799507  0.16647757  0.32725380  1
  In  In62  1  0.52099106  0.50850987  0.33865537  1
  In  In63  1  0.16390301  0.85230858  0.33893079  1
  In  In64  1  0.33911624  0.51151678  0.82393159  1
  In  In65  1  0.15647184  0.29930049  0.49111532  1
  In  In66  1  0.66498839  0.32495320  0.66758949  1
  In  In67  1  0.00564545  0.02502062  0.02155742  1
  In  In68  1  0.14674670  0.34024354  0.16855179  1
  In  In69  1  0.17322865  0.82559748  0.67337661  1
  In  In70  1  0.50621736  0.15924773  0.65229278  1
  In  In71  1  0.35007121  0.69654594  -0.01699695  1
  Te  Te72  1  0.11974580  0.08238974  0.09277744  1
  Te  Te73  1  0.11305956  0.09053730  0.44528018  1
  Te  Te74  1  0.09013085  0.08187289  0.74847745  1
  Te  Te75  1  0.06031265  0.39692118  0.05670954  1
  Te  Te76  1  0.07100137  0.41530090  0.42681701  1
  Te  Te77  1  0.07149109  0.42865298  0.75404617  1
  Te  Te78  1  0.09644863  0.75700679  0.08195948  1
  Te  Te79  1  0.06764132  0.75428699  0.40304778  1
  Te  Te80  1  0.07344992  0.75967416  0.76608948  1
  Te  Te81  1  0.41721254  0.09462935  0.08158430  1
  Te  Te82  1  0.43652363  0.08639339  0.44579373  1
  Te  Te83  1  0.43441064  0.06160114  0.73653970  1
  Te  Te84  1  0.43216551  0.41287975  0.04732992  1
  Te  Te85  1  0.41996448  0.42252267  0.41526277  1
  Te  Te86  1  0.41081494  0.40033792  0.75250935  1
  Te  Te87  1  0.40852393  0.79340228  0.08214522  1
  Te  Te88  1  0.45445156  0.74300083  0.44619101  1
  Te  Te89  1  0.43414139  0.73765419  0.77478680  1
  Te  Te90  1  0.74941868  0.07900935  0.08996693  1
  Te  Te91  1  0.71298191  0.09597875  0.39097132  1
  Te  Te92  1  0.73664081  0.10213619  0.75417348  1
  Te  Te93  1  0.73558546  0.40227390  0.07654731  1
  Te  Te94  1  0.76252325  0.42621175  0.43955449  1
  Te  Te95  1  0.74114381  0.41398428  0.76147499  1
  Te  Te96  1  0.73993463  0.72899851  0.08202477  1
  Te  Te97  1  0.74757922  0.77135211  0.43559728  1
  Te  Te98  1  0.72748296  0.77485222  0.77468225  1
  Te  Te99  1  0.09581846  0.23516498  0.25420013  1
  Te  Te100  1  0.08258548  0.24626494  0.60564010  1
  Te  Te101  1  0.07755010  0.24886728  0.89718898  1
  Te  Te102  1  0.06817124  0.60061608  0.24272868  1
  Te  Te103  1  0.10297527  0.58229293  0.57665920  1
  Te  Te104  1  0.07744889  0.58835779  0.92102475  1
  Te  Te105  1  0.07849498  0.93505464  0.24572499  1
  Te  Te106  1  0.10025855  0.91306202  0.57081972  1
  Te  Te107  1  0.09212941  0.92493687  0.94204953  1
  Te  Te108  1  0.44377233  0.21757755  0.27265092  1
  Te  Te109  1  0.43374360  0.22695541  0.53947228  1
  Te  Te110  1  0.45648107  0.22691167  0.88601550  1
  Te  Te111  1  0.40798841  0.58808107  0.25531025  1
  Te  Te112  1  0.42124759  0.58582236  0.61897513  1
  Te  Te113  1  0.42890569  0.58202593  0.92223535  1
  Te  Te114  1  0.43903510  0.90673939  0.27439159  1
  Te  Te115  1  0.43598324  0.93231140  0.58694074  1
  Te  Te116  1  0.44463687  0.92283567  0.91084035  1
  Te  Te117  1  0.74488982  0.26776783  0.24933151  1
  Te  Te118  1  0.73010676  0.23824909  0.56112391  1
  Te  Te119  1  0.72063469  0.25853125  0.90876162  1
  Te  Te120  1  0.75515811  0.57643174  0.27227392  1
  Te  Te121  1  0.73317053  0.57800557  0.58928219  1
  Te  Te122  1  0.70638812  0.60289054  0.89920872  1
  Te  Te123  1  0.72297175  0.91610424  0.27598953  1
  Te  Te124  1  0.75744909  0.91930107  0.58689158  1
  Te  Te125  1  0.69960395  0.92494142  0.95249754  1
  Te  Te126  1  0.26100273  0.27128972  0.08135400  1
  Te  Te127  1  0.24752691  0.21334209  0.40807488  1
  Te  Te128  1  0.27396386  0.23100190  0.73494241  1
  Te  Te129  1  0.26055738  0.58317854  0.08607932  1
  Te  Te130  1  0.24422099  0.59315374  0.40848140  1
  Te  Te131  1  0.23913312  0.59558027  0.75790835  1
  Te  Te132  1  0.28262070  0.88325463  0.07960897  1
  Te  Te133  1  0.25668201  0.92704267  0.43010928  1
  Te  Te134  1  0.26217678  0.93662745  0.72650856  1
  Te  Te135  1  0.58237419  0.24751005  0.06948239  1
  Te  Te136  1  0.55234566  0.27646259  0.36945470  1
  Te  Te137  1  0.56896960  0.24932653  0.75334415  1
  Te  Te138  1  0.57372042  0.57834723  0.07737893  1
  Te  Te139  1  0.58513497  0.59378577  0.43730813  1
  Te  Te140  1  0.59519458  0.57829158  0.77393206  1
  Te  Te141  1  0.57646474  0.92454710  0.07956247  1
  Te  Te142  1  0.63391474  0.89361420  0.40305096  1
  Te  Te143  1  0.60278415  0.88670568  0.76746606  1
  Te  Te144  1  0.92572543  0.22882408  0.07348868  1
  Te  Te145  1  0.91794086  0.22537694  0.42782818  1
  Te  Te146  1  0.90090893  0.26792496  0.74150753  1
  Te  Te147  1  0.89858207  0.56192920  0.08068073  1
  Te  Te148  1  0.92248460  0.59133353  0.41579550  1
  Te  Te149  1  0.89163927  0.59392769  0.75422207  1
  Te  Te150  1  0.90710299  0.91315614  0.08114950  1
  Te  Te151  1  0.90668082  0.94129536  0.39989810  1
  Te  Te152  1  0.90668117  0.91866649  0.75346238  1
  Te  Te153  1  0.25424332  0.05783063  0.24982531  1
  Te  Te154  1  0.23155246  0.10940390  0.54529531  1
  Te  Te155  1  0.27187635  0.09488317  0.90588805  1
  Te  Te156  1  0.25355278  0.41366729  0.26068834  1
  Te  Te157  1  0.25529788  0.40496615  0.56256042  1
  Te  Te158  1  0.24841122  0.40995693  0.91362203  1
  Te  Te159  1  0.26878989  0.77956393  0.25473384  1
  Te  Te160  1  0.27661842  0.74402896  0.59644630  1
  Te  Te161  1  0.24648496  0.76495040  0.90662003  1
  Te  Te162  1  0.59913279  0.07449065  0.27272027  1
  Te  Te163  1  0.60635862  0.07960564  0.56804206  1
  Te  Te164  1  0.63840242  0.06395204  0.90111916  1
  Te  Te165  1  0.57768974  0.41173524  0.23699750  1
  Te  Te166  1  0.57728972  0.40787305  0.57491276  1
  Te  Te167  1  0.62551413  0.37918095  0.87899806  1
  Te  Te168  1  0.56843344  0.74426115  0.24840355  1
  Te  Te169  1  0.58906914  0.75470259  0.57599515  1
  Te  Te170  1  0.53015920  0.78078493  0.89255000  1
  Te  Te171  1  0.92528632  0.09186943  0.23756641  1
  Te  Te172  1  0.91803879  0.07663282  0.57464632  1
  Te  Te173  1  0.90694134  0.06719168  0.91106952  1
  Te  Te174  1  0.91128820  0.41276162  0.25922284  1
  Te  Te175  1  0.86926432  0.39277643  0.54345477  1
  Te  Te176  1  0.88232021  0.40524815  0.91348731  1
  Te  Te177  1  0.89488318  0.77285265  0.26323211  1
  Te  Te178  1  0.93789304  0.74409246  0.58940107  1
  Te  Te179  1  0.90235567  0.73694889  0.91745908  1
