# generated using pymatgen
data_In2Te3
_symmetry_space_group_name_H-M   'P 1'
_cell_length_a   18.74708386
_cell_length_b   18.74637631
_cell_length_c   18.75636086
_cell_angle_alpha   90.00708547
_cell_angle_beta   89.93675283
_cell_angle_gamma   90.01338227
_symmetry_Int_Tables_number   1
_chemical_formula_structural   In2Te3
_chemical_formula_sum   'In72 Te108'
_cell_volume   6591.72912672
_cell_formula_units_Z   36
loop_
 _symmetry_equiv_pos_site_id
 _symmetry_equiv_pos_as_xyz
  1  'x, y, z'
loop_
 _atom_site_type_symbol
 _atom_site_label
 _atom_site_symmetry_multiplicity
 _atom_site_fract_x
 _atom_site_fract_y
 _atom_site_fract_z
 _atom_site_occupancy
  In  In0  1  0.52977632  0.17574037  0.65740218  1
  In  In1  1  0.16293814  0.85910855  -0.00125339  1
  In  In2  1  0.15664208  0.18309902  0.01775403  1
  In  In3  1  -0.00431229  0.82800991  0.50578460  1
  In  In4  1  0.34831945  0.67137655  0.02223302  1
  In  In5  1  0.35317924  0.00777289  0.03161853  1
  In  In6  1  0.81999696  0.81424164  -0.00738296  1
  In  In7  1  0.33772967  0.34276958  0.03517765  1
  In  In8  1  0.50158253  -0.01763788  0.16998569  1
  In  In9  1  0.15680166  0.67647496  0.50858281  1
  In  In10  1  0.82448153  0.52577698  -0.02232100  1
  In  In11  1  0.33178198  0.16097563  0.46407132  1
  In  In12  1  0.51213497  0.80592675  0.00136274  1
  In  In13  1  0.16198337  0.49349100  0.31311718  1
  In  In14  1  0.52106647  0.48957499  0.66179439  1
  In  In15  1  0.65858000  0.81218290  0.15316172  1
  In  In16  1  -0.00849656  0.33818132  0.67110804  1
  In  In17  1  0.33710688  0.35650235  0.64496193  1
  In  In18  1  0.66236228  0.50453907  0.17640896  1
  In  In19  1  -0.01720426  0.00471556  0.33306066  1
  In  In20  1  0.51944613  0.65812725  0.48243161  1
  In  In21  1  0.33842119  0.81617619  0.82135517  1
  In  In22  1  0.35191621  0.66817111  0.31448215  1
  In  In23  1  0.33152019  0.68301199  0.66987551  1
  In  In24  1  -0.01245282  0.33937216  0.32963168  1
  In  In25  1  0.52384714  -0.01757947  0.83775580  1
  In  In26  1  0.83725508  0.50820238  0.66082619  1
  In  In27  1  0.31597536  0.49474808  0.50875595  1
  In  In28  1  0.14878304  0.66654152  0.81792886  1
  In  In29  1  -0.02044291  0.17280856  0.84435906  1
  In  In30  1  0.51505480  0.49533673  0.01370605  1
  In  In31  1  0.68631017  0.15356521  0.80396654  1
  In  In32  1  0.18961143  -0.02994953  0.46638289  1
  In  In33  1  0.16078682  -0.02436660  0.84229116  1
  In  In34  1  0.14663161  0.17997331  0.33234002  1
  In  In35  1  0.84435336  0.17204158  0.02229708  1
  In  In36  1  -0.01665590  0.66102522  -0.00166359  1
  In  In37  1  0.50763097  0.01598522  0.49700404  1
  In  In38  1  0.84030067  0.00769016  0.17884985  1
  In  In39  1  0.00910058  0.00948484  -0.00978832  1
  In  In40  1  0.67669295  0.18712604  0.48498689  1
  In  In41  1  -0.01994275  0.66721990  0.67749685  1
  In  In42  1  0.84168587  0.83255075  0.65476299  1
  In  In43  1  0.50202718  0.83579514  0.65854883  1
  In  In44  1  0.83710043  0.33747604  0.18349642  1
  In  In45  1  0.17767660  0.00945583  0.16462223  1
  In  In46  1  0.14993619  0.34470107  0.81082682  1
  In  In47  1  0.66806647  -0.00398848  0.33323388  1
  In  In48  1  0.69033968  0.68281335  0.34209388  1
  In  In49  1  0.66845252  0.82103995  0.83683575  1
  In  In50  1  -0.01703759  0.65873785  0.33809021  1
  In  In51  1  0.83216666  0.36543313  0.83721025  1
  In  In52  1  0.49916751  0.83540518  0.33299759  1
  In  In53  1  0.13447697  0.47649490  0.03122429  1
  In  In54  1  -0.01844438  0.50885092  0.48699289  1
  In  In55  1  0.53152801  0.33680582  0.84478657  1
  In  In56  1  0.68173469  0.18792286  0.16773998  1
  In  In57  1  0.50962230  0.51015829  0.32355322  1
  In  In58  1  0.84235528  -0.00977188  0.49958961  1
  In  In59  1  0.33105597  0.16854213  0.85243368  1
  In  In60  1  -0.03103602  0.17583818  0.49785278  1
  In  In61  1  0.51107828  0.15479217  0.02770682  1
  In  In62  1  0.32224936  0.51425086  0.84842712  1
  In  In63  1  0.33980966  -0.00445023  0.67927410  1
  In  In64  1  0.65199061  0.32826284  0.00121807  1
  In  In65  1  0.33489045  0.31944320  0.31013075  1
  In  In66  1  0.14880557  0.16272157  0.65128838  1
  In  In67  1  -0.01979613  -0.00406130  0.64999922  1
  In  In68  1  0.67916851  0.65447636  0.66186056  1
  In  In69  1  -0.00386911  0.81900871  0.18103624  1
  In  In70  1  0.52450195  0.33809802  0.49381441  1
  In  In71  1  0.17902171  0.65832644  0.18202972  1
  Te  Te72  1  0.06427773  0.09476289  0.10355716  1
  Te  Te73  1  0.07592876  0.07737896  0.43855360  1
  Te  Te74  1  0.07815892  0.08263620  0.76173009  1
  Te  Te75  1  0.05851431  0.38092102  0.11558592  1
  Te  Te76  1  0.08512798  0.41761624  0.42031185  1
  Te  Te77  1  0.05644133  0.44313444  0.75339209  1
  Te  Te78  1  0.09541040  0.74678979  0.08024179  1
  Te  Te79  1  0.08314222  0.75732550  0.40147981  1
  Te  Te80  1  0.07892003  0.76362711  0.73251592  1
  Te  Te81  1  0.39705836  0.11796441  0.12790365  1
  Te  Te82  1  0.42943966  0.08088872  0.38874188  1
  Te  Te83  1  0.43744809  0.08800069  0.75227120  1
  Te  Te84  1  0.42422703  0.43355594  0.11705487  1
  Te  Te85  1  0.41472915  0.42028754  0.41835076  1
  Te  Te86  1  0.41763874  0.41228485  0.76290677  1
  Te  Te87  1  0.41982165  0.76624720  0.10969686  1
  Te  Te88  1  0.41176847  0.75052600  0.42886757  1
  Te  Te89  1  0.44925113  0.73308525  0.75966557  1
  Te  Te90  1  0.74174733  0.07564796  0.08302942  1
  Te  Te91  1  0.76720567  0.08454183  0.40557583  1
  Te  Te92  1  0.77924370  0.07286066  0.72434639  1
  Te  Te93  1  0.75164541  0.41484155  0.07847823  1
  Te  Te94  1  0.73948306  0.38038840  0.47369703  1
  Te  Te95  1  0.73925614  0.42873297  0.74219287  1
  Te  Te96  1  0.75492674  0.72015371  0.08761624  1
  Te  Te97  1  0.78312007  0.78044837  0.40095495  1
  Te  Te98  1  0.76795515  0.73925686  0.75378700  1
  Te  Te99  1  0.09124818  0.27982014  0.23387528  1
  Te  Te100  1  0.07646156  0.26308768  0.56550064  1
  Te  Te101  1  0.07310658  0.26628763  0.92006790  1
  Te  Te102  1  0.06115013  0.57539574  0.23294319  1
  Te  Te103  1  0.07216583  0.57912096  0.58837042  1
  Te  Te104  1  0.08454623  0.57269584  0.92123290  1
  Te  Te105  1  0.08326353  0.92171153  0.25274964  1
  Te  Te106  1  0.09174325  0.92100451  0.57935345  1
  Te  Te107  1  0.04920090  0.88908620  0.90125262  1
  Te  Te108  1  0.42568662  0.23394321  0.23249589  1
  Te  Te109  1  0.41517686  0.24130657  0.57781848  1
  Te  Te110  1  0.43146607  0.25881072  0.93438201  1
  Te  Te111  1  0.41468631  0.56894251  0.22297597  1
  Te  Te112  1  0.42420190  0.58146317  0.58335496  1
  Te  Te113  1  0.43007415  0.59091254  0.92011172  1
  Te  Te114  1  0.39949985  0.92936805  0.26796766  1
  Te  Te115  1  0.41040209  0.91830154  0.56798126  1
  Te  Te116  1  0.40906234  0.91581171  0.91557165  1
  Te  Te117  1  0.74735055  0.26312668  0.27788578  1
  Te  Te118  1  0.75781844  0.27446936  0.57384314  1
  Te  Te119  1  0.75248651  0.24642869  0.92034558  1
  Te  Te120  1  0.76293367  0.57089675  0.26910184  1
  Te  Te121  1  0.76256435  0.58805454  0.55780481  1
  Te  Te122  1  0.71208509  0.59407486  0.91062611  1
  Te  Te123  1  0.74728386  0.90308581  0.24158080  1
  Te  Te124  1  0.74384599  0.90636070  0.57056132  1
  Te  Te125  1  0.74294994  0.91835877  0.91991499  1
  Te  Te126  1  0.25153527  0.24816400  0.11095503  1
  Te  Te127  1  0.23758308  0.27029739  0.42081577  1
  Te  Te128  1  0.24574373  0.24532288  0.73917918  1
  Te  Te129  1  0.24907869  0.56933625  0.07926578  1
  Te  Te130  1  0.24747143  0.58921341  0.40965936  1
  Te  Te131  1  0.24270897  0.57548433  0.73413240  1
  Te  Te132  1  0.26824599  0.89996442  0.10094818  1
  Te  Te133  1  0.27441527  0.90244794  0.36779734  1
  Te  Te134  1  0.23889025  0.89597163  0.73725099  1
  Te  Te135  1  0.56372865  0.27296573  0.11283843  1
  Te  Te136  1  0.56952543  0.23745340  0.39562082  1
  Te  Te137  1  0.61746831  0.27392368  0.73400137  1
  Te  Te138  1  0.59198652  0.60074101  0.08665020  1
  Te  Te139  1  0.61785312  0.56410954  0.41874730  1
  Te  Te140  1  0.58768980  0.58168966  0.75568652  1
  Te  Te141  1  0.59130018  0.92064807  0.06398949  1
  Te  Te142  1  0.59354994  0.90518972  0.43026591  1
  Te  Te143  1  0.60897870  0.91976344  0.73003698  1
  Te  Te144  1  0.93409053  0.27425284  0.08469156  1
  Te  Te145  1  0.88904506  0.24583029  0.39461043  1
  Te  Te146  1  0.89236496  0.25212464  0.74922104  1
  Te  Te147  1  0.90602326  0.57630352  0.09085717  1
  Te  Te148  1  0.87445145  0.57022841  0.40064520  1
  Te  Te149  1  0.90742222  0.57964403  0.77238035  1
  Te  Te150  1  0.92422315  0.91600751  0.08417702  1
  Te  Te151  1  0.89879197  0.88756479  0.39311023  1
  Te  Te152  1  0.90159180  0.92739200  0.75428379  1
  Te  Te153  1  0.24388279  0.08559587  0.27318790  1
  Te  Te154  1  0.25437573  0.07687114  0.57783516  1
  Te  Te155  1  0.23736313  0.06824813  0.93862393  1
  Te  Te156  1  0.25803226  0.41803342  0.22924200  1
  Te  Te157  1  0.21692934  0.41946437  0.58943550  1
  Te  Te158  1  0.24525827  0.40432402  0.92313743  1
  Te  Te159  1  0.24479495  0.76253204  0.26718353  1
  Te  Te160  1  0.25600020  0.76535262  0.57382995  1
  Te  Te161  1  0.24601193  0.74436858  0.92037451  1
  Te  Te162  1  0.58703361  0.08532882  0.24130040  1
  Te  Te163  1  0.61751274  0.07814350  0.58327252  1
  Te  Te164  1  0.59570271  0.09188785  0.91622210  1
  Te  Te165  1  0.60043956  0.40590808  0.26973145  1
  Te  Te166  1  0.62381834  0.42251104  0.57203637  1
  Te  Te167  1  0.61907694  0.44686836  0.90711053  1
  Te  Te168  1  0.57439735  0.73038197  0.25255928  1
  Te  Te169  1  0.59822091  0.75219303  0.57275690  1
  Te  Te170  1  0.61437274  0.71624850  0.93541945  1
  Te  Te171  1  0.92175826  0.10985195  0.24852342  1
  Te  Te172  1  0.88055852  0.10725915  0.60625141  1
  Te  Te173  1  0.89160045  0.07027654  0.91460317  1
  Te  Te174  1  0.89854913  0.44467162  0.26948526  1
  Te  Te175  1  0.90213134  0.40072578  0.56219596  1
  Te  Te176  1  0.92563420  0.42529078  0.93323181  1
  Te  Te177  1  0.89218835  0.73916791  0.24937537  1
  Te  Te178  1  0.89896956  0.72414277  0.55947846  1
  Te  Te179  1  0.90262870  0.73382252  0.89735959  1
