# generated using pymatgen
data_In2Te3
_symmetry_space_group_name_H-M   'P 1'
_cell_length_a   18.98328545
_cell_length_b   18.98958379
_cell_length_c   18.96140788
_cell_angle_alpha   90.09482068
_cell_angle_beta   90.24425173
_cell_angle_gamma   90.16158965
_symmetry_Int_Tables_number   1
_chemical_formula_structural   In2Te3
_chemical_formula_sum   'In72 Te108'
_cell_volume   6835.19844478
_cell_formula_units_Z   36
loop_
 _symmetry_equiv_pos_site_id
 _symmetry_equiv_pos_as_xyz
  1  'x, y, z'
loop_
 _atom_site_type_symbol
 _atom_site_label
 _atom_site_symmetry_multiplicity
 _atom_site_fract_x
 _atom_site_fract_y
 _atom_site_fract_z
 _atom_site_occupancy
  In  In0  1  0.81562846  0.32170895  0.50275435  1
  In  In1  1  0.22486288  0.49696822  0.67351695  1
  In  In2  1  -0.00017443  0.49446107  0.82798759  1
  In  In3  1  0.65243231  0.34463529  0.64284740  1
  In  In4  1  0.82360097  0.84466180  0.02813624  1
  In  In5  1  0.02808995  0.33477135  0.31448448  1
  In  In6  1  0.17798569  0.34800031  0.17244472  1
  In  In7  1  0.63328310  0.82118123  0.81082838  1
  In  In8  1  0.19219275  0.67244645  0.48727696  1
  In  In9  1  0.79327716  0.67968184  0.83885507  1
  In  In10  1  0.00341571  0.85707844  0.49882080  1
  In  In11  1  -0.01406862  0.15121027  0.50263321  1
  In  In12  1  0.17330468  0.83345610  0.66037428  1
  In  In13  1  0.02372605  0.49368409  0.14695997  1
  In  In14  1  0.82581783  0.51794863  0.66190732  1
  In  In15  1  0.65333387  0.00672014  0.00267058  1
  In  In16  1  0.48519266  0.31414903  0.14723155  1
  In  In17  1  0.17833643  0.64298611  0.16038377  1
  In  In18  1  0.18062415  0.50044964  0.31893666  1
  In  In19  1  0.65592650  0.35353552  0.03022780  1
  In  In20  1  0.83892255  0.31033484  0.15283203  1
  In  In21  1  0.34601867  0.14861623  0.15680175  1
  In  In22  1  0.49441626  0.49357102  0.34210063  1
  In  In23  1  -0.03531697  0.84661086  0.15606019  1
  In  In24  1  0.33434276  0.17416222  0.50323622  1
  In  In25  1  0.18990333  0.33309942  0.51344542  1
  In  In26  1  0.82682851  0.33296733  0.82382154  1
  In  In27  1  0.83173255  -0.00131749  0.83932762  1
  In  In28  1  0.16346659  0.01541785  0.51820818  1
  In  In29  1  0.00282612  0.50989116  0.52351693  1
  In  In30  1  0.49776974  0.83476644  0.32936992  1
  In  In31  1  0.81372398  0.82721157  0.35688340  1
  In  In32  1  0.65276258  0.17607866  0.18851994  1
  In  In33  1  0.50520017  0.81386429  -0.00356365  1
  In  In34  1  0.18156858  0.14901879  -0.02308644  1
  In  In35  1  0.84740843  0.15307093  -0.02278665  1
  In  In36  1  0.84617766  0.49891550  -0.02688612  1
  In  In37  1  -0.00319609  0.87293853  0.84060530  1
  In  In38  1  0.15228383  0.86242736  -0.01436773  1
  In  In39  1  0.49091705  0.17390198  0.66257446  1
  In  In40  1  0.81265469  -0.00512711  0.52217677  1
  In  In41  1  0.02652030  0.01522846  0.32370860  1
  In  In42  1  0.17955073  0.01676810  0.14104238  1
  In  In43  1  0.18198054  0.17278688  0.78551184  1
  In  In44  1  0.49024487  0.50310778  0.01000433  1
  In  In45  1  0.33609816  0.65836747  -0.00323783  1
  In  In46  1  0.65640745  0.83138946  0.18187281  1
  In  In47  1  0.25751044  0.31545754  0.86843022  1
  In  In48  1  -0.00674752  0.68604655  0.64726427  1
  In  In49  1  0.49283368  0.66691253  0.49329222  1
  In  In50  1  0.84759694  0.15372532  0.31854160  1
  In  In51  1  0.16600732  0.84898115  0.35339832  1
  In  In52  1  0.66305181  0.15859289  0.84254707  1
  In  In53  1  0.48094411  0.31816654  0.86516820  1
  In  In54  1  0.36694283  0.65469239  0.31135275  1
  In  In55  1  0.64723387  0.01781378  0.34638075  1
  In  In56  1  0.37695435  -0.00527502  0.65067361  1
  In  In57  1  0.17471079  0.65562956  0.81533589  1
  In  In58  1  0.01845711  0.68394535  -0.01905722  1
  In  In59  1  0.59256365  0.32690475  0.39556735  1
  In  In60  1  0.48536682  0.49762993  0.69169945  1
  In  In61  1  0.62638364  0.66681492  0.65951610  1
  In  In62  1  0.35511651  0.80002411  0.81285171  1
  In  In63  1  0.65111524  0.50759774  0.18616738  1
  In  In64  1  0.80469862  0.66904068  0.49591423  1
  In  In65  1  0.34232921  -0.00446429  0.36628882  1
  In  In66  1  0.82575151  0.66524442  0.16774525  1
  In  In67  1  0.01514400  0.31461787  0.69201199  1
  In  In68  1  0.31161285  0.83448296  0.15913969  1
  In  In69  1  0.62498307  -0.01599591  0.66462847  1
  In  In70  1  0.82531994  0.47909112  0.35065597  1
  In  In71  1  0.84817728  -0.01033371  0.15088200  1
  Te  Te72  1  0.07930655  0.06925890  0.04928093  1
  Te  Te73  1  0.10332915  0.10764655  0.41440829  1
  Te  Te74  1  0.07580715  0.07051919  0.77496268  1
  Te  Te75  1  0.09947598  0.40640257  0.06180622  1
  Te  Te76  1  0.08378360  0.42926309  0.42330035  1
  Te  Te77  1  0.10188281  0.42857082  0.73862676  1
  Te  Te78  1  0.09159966  0.75907955  0.08929127  1
  Te  Te79  1  0.07606595  0.74713137  0.42235094  1
  Te  Te80  1  0.07129464  0.75847713  0.75862236  1
  Te  Te81  1  0.41689778  0.10764988  0.03364153  1
  Te  Te82  1  0.43699813  0.09352673  0.42765417  1
  Te  Te83  1  0.41329454  0.09215912  0.75761513  1
  Te  Te84  1  0.39577850  0.39078427  0.05091687  1
  Te  Te85  1  0.45984580  0.38529614  0.43722957  1
  Te  Te86  1  0.40563669  0.38511848  0.75569976  1
  Te  Te87  1  0.41241436  0.74135022  0.09799013  1
  Te  Te88  1  0.39897143  0.75892504  0.41679680  1
  Te  Te89  1  0.41909531  0.73557527  0.69412144  1
  Te  Te90  1  0.75005826  0.09180343  0.09292531  1
  Te  Te91  1  0.75439010  0.09510729  0.42151075  1
  Te  Te92  1  0.73209279  0.06637250  0.74816025  1
  Te  Te93  1  0.76587717  0.43690938  0.09597842  1
  Te  Te94  1  0.71775551  0.41421455  0.43404597  1
  Te  Te95  1  0.73987412  0.42794886  0.74611212  1
  Te  Te96  1  0.72773309  0.73992453  0.08046319  1
  Te  Te97  1  0.70837490  0.75763007  0.42868275  1
  Te  Te98  1  0.73812630  0.75484849  0.72250916  1
  Te  Te99  1  0.10013808  0.23842880  0.23467635  1
  Te  Te100  1  0.08279319  0.24332938  0.57941802  1
  Te  Te101  1  0.11857009  0.26271036  0.89801443  1
  Te  Te102  1  0.07313939  0.58807191  0.25537502  1
  Te  Te103  1  0.10409519  0.59626450  0.59698450  1
  Te  Te104  1  0.09621809  0.57220174  0.91733601  1
  Te  Te105  1  0.09189417  0.91106525  0.23538776  1
  Te  Te106  1  0.07241893  0.93516193  0.60860556  1
  Te  Te107  1  0.11954279  0.95294069  0.86802110  1
  Te  Te108  1  0.43181813  0.22502415  0.25125206  1
  Te  Te109  1  0.43136456  0.27011499  0.56601436  1
  Te  Te110  1  0.38820113  0.21565805  0.93169151  1
  Te  Te111  1  0.40648793  0.53799454  0.23124753  1
  Te  Te112  1  0.41483299  0.60014020  0.60167362  1
  Te  Te113  1  0.42577838  0.58746805  0.90382312  1
  Te  Te114  1  0.40169264  0.92018722  0.24663233  1
  Te  Te115  1  0.46994506  0.92197575  0.56250666  1
  Te  Te116  1  0.42841120  0.89693091  0.89956466  1
  Te  Te117  1  0.75265102  0.26060373  0.26640125  1
  Te  Te118  1  0.74453010  0.23965348  0.59888711  1
  Te  Te119  1  0.74542516  0.26452119  0.93398244  1
  Te  Te120  1  0.74953432  0.58673398  0.27196095  1
  Te  Te121  1  0.71761158  0.57493933  0.57538487  1
  Te  Te122  1  0.73466955  0.57577705  0.92081207  1
  Te  Te123  1  0.74982857  0.93042834  0.25577049  1
  Te  Te124  1  0.71588377  0.90392834  0.58011442  1
  Te  Te125  1  0.72971874  0.90358680  0.92220892  1
  Te  Te126  1  0.24040530  0.23259525  0.09040199  1
  Te  Te127  1  0.25230958  0.25322030  0.40978258  1
  Te  Te128  1  0.27282469  0.27647790  0.72806962  1
  Te  Te129  1  0.24902478  0.55748923  0.06446677  1
  Te  Te130  1  0.27770260  0.57637032  0.40938798  1
  Te  Te131  1  0.28760135  0.56688865  0.78640551  1
  Te  Te132  1  0.27006818  0.93375170  0.05234995  1
  Te  Te133  1  0.25540407  0.91058495  0.45862698  1
  Te  Te134  1  0.27898814  0.90888361  0.73667755  1
  Te  Te135  1  0.58010260  0.22838668  0.06531988  1
  Te  Te136  1  0.55822187  0.19562146  0.45759107  1
  Te  Te137  1  0.58566113  0.25985837  0.75970512  1
  Te  Te138  1  0.57753528  0.58988329  0.09208580  1
  Te  Te139  1  0.58073748  0.59753803  0.39917998  1
  Te  Te140  1  0.58199068  0.58070830  0.76842231  1
  Te  Te141  1  0.56983557  0.91842918  0.09272372  1
  Te  Te142  1  0.56575891  0.92496440  0.42939788  1
  Te  Te143  1  0.54572412  0.93565971  0.78164222  1
  Te  Te144  1  0.92938628  0.23714043  0.06716739  1
  Te  Te145  1  0.92158138  0.26147782  0.40774755  1
  Te  Te146  1  0.90098257  0.23830727  0.73961639  1
  Te  Te147  1  0.92512374  0.59736995  0.07283182  1
  Te  Te148  1  0.90974561  0.58110586  0.42782775  1
  Te  Te149  1  0.91701360  0.60026727  0.75374358  1
  Te  Te150  1  0.94102238  0.94228259  0.03854684  1
  Te  Te151  1  0.92111434  0.93809822  0.39977514  1
  Te  Te152  1  0.89450590  0.90690893  0.74404950  1
  Te  Te153  1  0.25798880  0.06767786  0.25855831  1
  Te  Te154  1  0.26000870  0.08927868  0.60542317  1
  Te  Te155  1  0.28290035  0.09969917  0.87554391  1
  Te  Te156  1  0.28111752  0.41353220  0.25763119  1
  Te  Te157  1  0.28028956  0.44267526  0.55094065  1
  Te  Te158  1  0.28990205  0.43357177  0.94929397  1
  Te  Te159  1  0.24329621  0.74419104  0.26326080  1
  Te  Te160  1  0.26574551  0.73433467  0.60091279  1
  Te  Te161  1  0.23908937  0.75817783  0.91654627  1
  Te  Te162  1  0.55642240  0.08624706  0.25173247  1
  Te  Te163  1  0.59872220  0.10779977  0.58168728  1
  Te  Te164  1  0.56020202  0.08832483  0.92211733  1
  Te  Te165  1  0.58159242  0.38868612  0.24751052  1
  Te  Te166  1  0.55815618  0.43621347  0.57610515  1
  Te  Te167  1  0.58365354  0.41882145  0.91719100  1
  Te  Te168  1  0.57024686  0.73476041  0.24979301  1
  Te  Te169  1  0.53783057  0.77834292  0.60235031  1
  Te  Te170  1  0.56244843  0.72294631  0.89384269  1
  Te  Te171  1  0.94248101  0.08990212  0.22212642  1
  Te  Te172  1  0.90930499  0.07477318  0.59884584  1
  Te  Te173  1  0.93675353  0.10184638  0.86965144  1
  Te  Te174  1  0.92180121  0.42167001  0.24527312  1
  Te  Te175  1  0.91232265  0.41008286  0.59271776  1
  Te  Te176  1  0.93506056  0.39153635  0.91750522  1
  Te  Te177  1  0.90678275  0.75279331  0.26249460  1
  Te  Te178  1  0.89930342  0.76957486  0.56737216  1
  Te  Te179  1  0.90119082  0.75845685  0.92154688  1
