# generated using pymatgen
data_In2Te3
_symmetry_space_group_name_H-M   'P 1'
_cell_length_a   18.83927128
_cell_length_b   18.84695724
_cell_length_c   18.83083581
_cell_angle_alpha   89.93093718
_cell_angle_beta   90.01405657
_cell_angle_gamma   89.99864044
_symmetry_Int_Tables_number   1
_chemical_formula_structural   In2Te3
_chemical_formula_sum   'In72 Te108'
_cell_volume   6686.12687006
_cell_formula_units_Z   36
loop_
 _symmetry_equiv_pos_site_id
 _symmetry_equiv_pos_as_xyz
  1  'x, y, z'
loop_
 _atom_site_type_symbol
 _atom_site_label
 _atom_site_symmetry_multiplicity
 _atom_site_fract_x
 _atom_site_fract_y
 _atom_site_fract_z
 _atom_site_occupancy
  In  In0  1  0.31489122  0.34425113  0.35959331  1
  In  In1  1  -0.00398214  0.00277319  0.66420569  1
  In  In2  1  0.20113840  0.34077509  0.15942812  1
  In  In3  1  0.33019255  0.82772268  0.16116116  1
  In  In4  1  0.70149422  0.34607018  0.67180072  1
  In  In5  1  0.51365720  0.66553010  0.81935431  1
  In  In6  1  0.50900428  0.68398757  0.52312936  1
  In  In7  1  0.52079109  0.13693811  -0.01370035  1
  In  In8  1  0.12310214  0.52972065  0.64810563  1
  In  In9  1  0.82388913  0.34135686  0.14954828  1
  In  In10  1  0.80442823  0.00889314  0.16789715  1
  In  In11  1  0.14063956  0.49569120  0.35136490  1
  In  In12  1  0.16369683  0.16625702  0.66564787  1
  In  In13  1  0.01399392  0.64522815  0.00519360  1
  In  In14  1  0.49276356  0.33766477  0.81952354  1
  In  In15  1  -0.00417540  0.68062997  0.36895191  1
  In  In16  1  0.52121284  0.48611163  0.00053588  1
  In  In17  1  0.15848773  0.52339744  -0.00941286  1
  In  In18  1  0.15597990  0.33901472  0.80982342  1
  In  In19  1  0.00511425  0.48412415  0.16649105  1
  In  In20  1  0.15061134  0.00509217  0.50948333  1
  In  In21  1  0.33836834  0.85815987  0.83925851  1
  In  In22  1  0.35324628  0.47269064  0.80543442  1
  In  In23  1  0.86320079  0.62831512  0.80708916  1
  In  In24  1  0.68027798  0.16279859  0.51107888  1
  In  In25  1  0.69286558  0.67662641  0.34375204  1
  In  In26  1  0.84809277  0.65956954  0.18688950  1
  In  In27  1  0.66501103  0.66881159  0.67116076  1
  In  In28  1  0.48916326  0.03323731  0.14753017  1
  In  In29  1  -0.02211498  0.34359606  -0.06222866  1
  In  In30  1  -0.02332898  -0.01533426  0.36133740  1
  In  In31  1  0.00739037  0.18415601  0.16380592  1
  In  In32  1  0.37203155  0.15913554  0.13159264  1
  In  In33  1  -0.00415325  0.32434230  0.35479395  1
  In  In34  1  0.83970876  0.67726775  0.51038415  1
  In  In35  1  0.66344130  0.82452517  0.81833160  1
  In  In36  1  0.66496364  0.83651048  0.18755673  1
  In  In37  1  0.14039730  0.66355040  0.83211855  1
  In  In38  1  -0.01427021  0.18302409  0.80474109  1
  In  In39  1  0.30443885  0.84914623  0.50671450  1
  In  In40  1  0.83397225  0.00772884  0.81507342  1
  In  In41  1  0.34113589  0.32653457  0.00047357  1
  In  In42  1  0.29898928  0.13756288  0.83936117  1
  In  In43  1  0.17105659  0.68441390  0.15855895  1
  In  In44  1  0.51888413  0.16410030  0.33514535  1
  In  In45  1  0.32795545  0.65116127  0.32279196  1
  In  In46  1  0.34589767  0.01358701  0.34630001  1
  In  In47  1  0.00959917  -0.01031380  -0.02579608  1
  In  In48  1  0.68838550  0.16014992  0.82876262  1
  In  In49  1  0.50382144  0.83048728  0.34877621  1
  In  In50  1  0.32825531  -0.00812939  0.67328618  1
  In  In51  1  0.32562445  0.67657392  0.67255669  1
  In  In52  1  0.33811996  0.49849573  0.50623499  1
  In  In53  1  0.68000787  0.48958949  0.50262644  1
  In  In54  1  -0.00359932  0.83637094  0.81630417  1
  In  In55  1  0.34538910  0.67254139  0.00080377  1
  In  In56  1  0.84473348  0.17650250  0.35598451  1
  In  In57  1  0.47156228  0.18095960  0.65867315  1
  In  In58  1  0.66169268  0.00996946  0.00737952  1
  In  In59  1  0.15932114  -0.01636705  0.16645347  1
  In  In60  1  0.51637617  -0.00589558  0.49587240  1
  In  In61  1  0.80819448  -0.01499716  0.52630720  1
  In  In62  1  0.50372493  0.33743519  0.19076508  1
  In  In63  1  0.13789900  0.33732927  0.50998945  1
  In  In64  1  0.00200304  0.80841009  0.17298037  1
  In  In65  1  0.68657352  0.34017301  -0.02359989  1
  In  In66  1  0.64845381  0.16239419  0.16254532  1
  In  In67  1  0.84688318  0.83346796  0.00869196  1
  In  In68  1  0.16329409  0.13645946  0.33827224  1
  In  In69  1  0.66691098  0.66653896  -0.02825061  1
  In  In70  1  0.48886065  0.50939250  0.33045745  1
  In  In71  1  0.68012069  0.34055726  0.35750546  1
  Te  Te72  1  0.08120433  0.08245232  0.07842965  1
  Te  Te73  1  0.05269904  0.09608970  0.43383893  1
  Te  Te74  1  0.08734237  0.07634174  0.76170714  1
  Te  Te75  1  0.09309226  0.40463195  0.07082544  1
  Te  Te76  1  0.03912719  0.43885411  0.44825751  1
  Te  Te77  1  0.05569601  0.41936216  0.73230312  1
  Te  Te78  1  0.09218264  0.76593791  0.05689333  1
  Te  Te79  1  0.09898460  0.74303334  0.45206709  1
  Te  Te80  1  0.06516226  0.73681034  0.72638845  1
  Te  Te81  1  0.38866523  0.03639377  0.02387631  1
  Te  Te82  1  0.42159486  0.10518969  0.43793099  1
  Te  Te83  1  0.41659181  0.08003722  0.76014287  1
  Te  Te84  1  0.41728291  0.41921077  0.09388056  1
  Te  Te85  1  0.43420352  0.40658908  0.43133433  1
  Te  Te86  1  0.42464352  0.39452352  0.69561584  1
  Te  Te87  1  0.43219225  0.75245527  0.08754786  1
  Te  Te88  1  0.40138808  0.74650175  0.42840458  1
  Te  Te89  1  0.42567504  0.76402820  0.74507878  1
  Te  Te90  1  0.75807172  0.11251076  0.06692974  1
  Te  Te91  1  0.74950448  0.07228929  0.41000983  1
  Te  Te92  1  0.77335198  0.10347667  0.71794149  1
  Te  Te93  1  0.72408784  0.42934994  0.08784202  1
  Te  Te94  1  0.78501518  0.40984739  0.43458178  1
  Te  Te95  1  0.80335039  0.40660829  0.76772667  1
  Te  Te96  1  0.75405225  0.74645379  0.09055293  1
  Te  Te97  1  0.73451667  0.76603817  0.45283013  1
  Te  Te98  1  0.77198026  0.74008069  0.75330108  1
  Te  Te99  1  0.10381387  0.26407084  0.25903980  1
  Te  Te100  1  0.06129171  0.24569403  0.59625921  1
  Te  Te101  1  0.08876428  0.24435048  0.90792136  1
  Te  Te102  1  0.07745716  0.59565773  0.24371603  1
  Te  Te103  1  0.06132132  0.62501192  0.54301734  1
  Te  Te104  1  0.05004438  0.55311481  0.88818202  1
  Te  Te105  1  0.07192946  0.90777165  0.26715261  1
  Te  Te106  1  0.05864254  0.90474310  0.56993044  1
  Te  Te107  1  0.10053477  0.91108154  0.88990708  1
  Te  Te108  1  0.40364574  0.24841918  0.26356419  1
  Te  Te109  1  0.40232034  0.28629575  0.58455244  1
  Te  Te110  1  0.42070771  0.23465510  0.90906610  1
  Te  Te111  1  0.42263355  0.59172850  0.22821765  1
  Te  Te112  1  0.42361269  0.58386113  0.60053840  1
  Te  Te113  1  0.41973932  0.56899820  0.90761223  1
  Te  Te114  1  0.42266344  0.92496821  0.24963394  1
  Te  Te115  1  0.42057876  0.91023661  0.58285474  1
  Te  Te116  1  0.43736027  0.93354815  0.91614843  1
  Te  Te117  1  0.74465033  0.24127077  0.25108404  1
  Te  Te118  1  0.77158111  0.26818702  0.56437947  1
  Te  Te119  1  0.77597770  0.24410510  0.91172841  1
  Te  Te120  1  0.76151900  0.57152272  0.26676236  1
  Te  Te121  1  0.76083339  0.57621587  0.59765495  1
  Te  Te122  1  0.76294164  0.57357295  0.90532174  1
  Te  Te123  1  0.76925844  0.90605342  0.26572665  1
  Te  Te124  1  0.71104827  0.90402875  0.60975277  1
  Te  Te125  1  0.75652063  0.91681114  0.91987422  1
  Te  Te126  1  0.24680303  0.22793420  0.06765246  1
  Te  Te127  1  0.23048509  0.24073910  0.43045670  1
  Te  Te128  1  0.26248528  0.25319086  0.74462946  1
  Te  Te129  1  0.25834695  0.58095062  0.08967444  1
  Te  Te130  1  0.23964941  0.58441688  0.42791283  1
  Te  Te131  1  0.24215854  0.56756784  0.75376406  1
  Te  Te132  1  0.23917814  0.90319544  0.07049342  1
  Te  Te133  1  0.23107046  0.93042655  0.40077266  1
  Te  Te134  1  0.23449233  0.90323870  0.74304978  1
  Te  Te135  1  0.57083333  0.25828593  0.07303001  1
  Te  Te136  1  0.58214332  0.25686598  0.43794994  1
  Te  Te137  1  0.59429269  0.24710074  0.74412597  1
  Te  Te138  1  0.59768315  0.58674853  0.07513346  1
  Te  Te139  1  0.58041241  0.58948925  0.42740059  1
  Te  Te140  1  0.58733393  0.56393983  0.74292981  1
  Te  Te141  1  0.57753075  0.91706341  0.09147497  1
  Te  Te142  1  0.60773716  0.90720431  0.41939165  1
  Te  Te143  1  0.60905701  0.92175871  0.72297547  1
  Te  Te144  1  0.92766464  0.26890263  0.06567266  1
  Te  Te145  1  0.91205686  0.25882789  0.46005453  1
  Te  Te146  1  0.91246838  0.29552648  0.73673696  1
  Te  Te147  1  0.90849319  0.56594749  0.08105886  1
  Te  Te148  1  0.89376032  0.58216911  0.40833249  1
  Te  Te149  1  0.93321291  0.57240288  0.68444564  1
  Te  Te150  1  0.92487665  0.92807412  0.09819902  1
  Te  Te151  1  0.92009801  0.90046325  0.47036671  1
  Te  Te152  1  0.89469961  0.90192715  0.72532683  1
  Te  Te153  1  0.26383070  0.08509540  0.23232634  1
  Te  Te154  1  0.25930280  0.08724622  0.57638632  1
  Te  Te155  1  0.25785149  0.03735726  0.93800484  1
  Te  Te156  1  0.25438290  0.44247429  0.25985261  1
  Te  Te157  1  0.22802428  0.43181777  0.58933527  1
  Te  Te158  1  0.25094300  0.41750386  0.91612262  1
  Te  Te159  1  0.23992235  0.76345943  0.26787635  1
  Te  Te160  1  0.22862738  0.75321231  0.58999157  1
  Te  Te161  1  0.25225641  0.74014182  0.90172130  1
  Te  Te162  1  0.59495639  0.05791356  0.25867684  1
  Te  Te163  1  0.57870756  0.08874100  0.59773556  1
  Te  Te164  1  0.59046711  0.05333909  0.87914910  1
  Te  Te165  1  0.60130231  0.42917346  0.26001448  1
  Te  Te166  1  0.59433831  0.42386877  0.60424687  1
  Te  Te167  1  0.59999343  0.42555903  0.88424712  1
  Te  Te168  1  0.57758275  0.73303231  0.25780993  1
  Te  Te169  1  0.59716000  0.78146527  0.59571346  1
  Te  Te170  1  0.56534864  0.76793247  0.92029594  1
  Te  Te171  1  0.92249201  0.09047827  0.25000475  1
  Te  Te172  1  0.89001728  0.08761928  0.60037114  1
  Te  Te173  1  0.91696924  0.09180659  0.91114467  1
  Te  Te174  1  0.91052552  0.40726291  0.25727919  1
  Te  Te175  1  0.91809890  0.42510886  0.64073282  1
  Te  Te176  1  0.87069611  0.44016146  0.90725662  1
  Te  Te177  1  0.90204778  0.76707514  0.28025663  1
  Te  Te178  1  0.94955043  0.71409389  0.60976416  1
  Te  Te179  1  0.92010409  0.73708725  0.91741456  1
