# generated using pymatgen
data_In2Te3
_symmetry_space_group_name_H-M   'P 1'
_cell_length_a   18.74826527
_cell_length_b   18.74883011
_cell_length_c   18.74940846
_cell_angle_alpha   90.00985726
_cell_angle_beta   89.99927974
_cell_angle_gamma   90.03530423
_symmetry_Int_Tables_number   1
_chemical_formula_structural   In2Te3
_chemical_formula_sum   'In72 Te108'
_cell_volume   6590.56648009
_cell_formula_units_Z   36
loop_
 _symmetry_equiv_pos_site_id
 _symmetry_equiv_pos_as_xyz
  1  'x, y, z'
loop_
 _atom_site_type_symbol
 _atom_site_label
 _atom_site_symmetry_multiplicity
 _atom_site_fract_x
 _atom_site_fract_y
 _atom_site_fract_z
 _atom_site_occupancy
  In  In0  1  0.66549533  0.66793592  -0.02102221  1
  In  In1  1  0.35390019  0.48886454  0.81922390  1
  In  In2  1  0.65981757  0.31358149  0.68347801  1
  In  In3  1  0.15085921  0.16967997  -0.00349819  1
  In  In4  1  0.82423314  0.84276739  0.66609397  1
  In  In5  1  0.80376210  0.04083552  0.80488446  1
  In  In6  1  0.68210988  0.49848237  0.16722862  1
  In  In7  1  0.00349927  0.33237410  0.32813580  1
  In  In8  1  0.50021348  0.32474125  0.49969773  1
  In  In9  1  0.48871371  0.83996418  0.32002902  1
  In  In10  1  0.48168987  0.14677239  0.32187369  1
  In  In11  1  0.15898953  0.65519361  0.84514735  1
  In  In12  1  0.67678280  0.16057902  0.51853351  1
  In  In13  1  0.82616891  0.32943814  0.83821147  1
  In  In14  1  -0.01180559  0.00511157  0.65436791  1
  In  In15  1  0.48956092  0.67024610  0.15704815  1
  In  In16  1  0.50462206  0.65527476  0.83523270  1
  In  In17  1  0.15353003  0.67417212  0.50494994  1
  In  In18  1  0.17428528  0.51729867  -0.00285441  1
  In  In19  1  -0.01723245  0.19095876  0.82284781  1
  In  In20  1  0.67950055  0.35001742  0.33694754  1
  In  In21  1  0.65300736  0.34368616  -0.02790038  1
  In  In22  1  0.32734337  0.70577122  0.31400752  1
  In  In23  1  0.33904745  0.31254476  0.33085769  1
  In  In24  1  0.66339688  0.83957267  0.50939561  1
  In  In25  1  0.82553414  0.67450543  0.50445402  1
  In  In26  1  0.17591309  0.80956894  0.67061879  1
  In  In27  1  0.13301441  0.47685187  0.68152943  1
  In  In28  1  0.64844021  0.83199751  0.83749148  1
  In  In29  1  -0.00054272  -0.01020750  0.33052248  1
  In  In30  1  0.65584219  0.01557642  0.00854983  1
  In  In31  1  0.02245037  0.83500268  0.83798558  1
  In  In32  1  -0.01275524  0.17521037  0.50964664  1
  In  In33  1  0.16252569  0.01152627  0.85378969  1
  In  In34  1  0.15846576  0.19083918  0.64419843  1
  In  In35  1  0.18439837  -0.01963844  0.47398666  1
  In  In36  1  0.51201717  -0.00071957  0.83721852  1
  In  In37  1  0.48808731  0.51008899  0.68693724  1
  In  In38  1  0.00505408  0.66469812  0.33325535  1
  In  In39  1  0.50286298  0.83804544  0.65792482  1
  In  In40  1  0.35150334  -0.01279497  0.66344696  1
  In  In41  1  0.35897305  0.34021165  0.67481362  1
  In  In42  1  0.48337673  -0.01076175  0.16627000  1
  In  In43  1  0.14328201  0.32416318  0.16031218  1
  In  In44  1  0.32904898  0.51949152  0.51381249  1
  In  In45  1  0.14195162  0.49800903  0.32373735  1
  In  In46  1  0.02787410  0.82861074  0.17783707  1
  In  In47  1  0.83508908  0.64429207  0.82436180  1
  In  In48  1  0.33447236  0.18109541  0.49578541  1
  In  In49  1  0.82035587  0.83001437  0.00554794  1
  In  In50  1  0.00252304  0.02220864  0.00484303  1
  In  In51  1  -0.00520128  0.82571482  0.48125899  1
  In  In52  1  0.35003837  0.33807706  -0.01093756  1
  In  In53  1  0.66897324  0.19364271  0.15739720  1
  In  In54  1  -0.02187730  0.34147936  -0.00279405  1
  In  In55  1  0.86289907  0.83599832  0.33907635  1
  In  In56  1  -0.01809038  0.64784924  0.02911475  1
  In  In57  1  0.31940990  0.13653376  0.18142090  1
  In  In58  1  0.84642850  0.46874705  0.66418231  1
  In  In59  1  0.82748085  0.49758960  0.33481449  1
  In  In60  1  0.67460284  0.00846748  0.35497368  1
  In  In61  1  0.33782756  0.68373431  0.00863309  1
  In  In62  1  0.52536595  0.50341309  0.32526592  1
  In  In63  1  0.31678158  0.16370767  0.85220100  1
  In  In64  1  0.35812965  0.84623975  0.85365229  1
  In  In65  1  0.67493298  0.81283603  0.15422918  1
  In  In66  1  0.83850161  0.01631164  0.18065813  1
  In  In67  1  0.15234704  0.31203307  0.49892612  1
  In  In68  1  0.33583629  0.48706897  0.14011737  1
  In  In69  1  0.83731306  0.32634724  0.15559886  1
  In  In70  1  0.32581851  0.66247944  0.63755522  1
  In  In71  1  0.67370813  0.50381940  0.49261365  1
  Te  Te72  1  0.09941879  0.07886449  0.10152152  1
  Te  Te73  1  0.08019217  0.07976705  0.42942197  1
  Te  Te74  1  0.08393606  0.09196486  0.75056078  1
  Te  Te75  1  0.07460591  0.43179458  0.07947833  1
  Te  Te76  1  0.06751239  0.42587785  0.43501156  1
  Te  Te77  1  0.08518196  0.38031244  0.78067949  1
  Te  Te78  1  0.08630112  0.74575629  0.07006823  1
  Te  Te79  1  0.10257157  0.76793684  0.39211466  1
  Te  Te80  1  0.06985706  0.72643964  0.74143127  1
  Te  Te81  1  0.41973063  0.09229601  0.08095574  1
  Te  Te82  1  0.41426827  0.07506252  0.43112988  1
  Te  Te83  1  0.41390591  0.08818218  0.75563777  1
  Te  Te84  1  0.44622496  0.42024271  0.06962991  1
  Te  Te85  1  0.41114294  0.41861711  0.41689957  1
  Te  Te86  1  0.46643444  0.38336108  0.78343302  1
  Te  Te87  1  0.40334357  0.78453847  0.10295066  1
  Te  Te88  1  0.42643619  0.74299181  0.41556797  1
  Te  Te89  1  0.40341870  0.74291986  0.74957727  1
  Te  Te90  1  0.76334277  0.10038906  0.07732289  1
  Te  Te91  1  0.76803655  0.10411035  0.41459326  1
  Te  Te92  1  0.69983106  0.11256101  0.71316006  1
  Te  Te93  1  0.76152842  0.42029954  0.06473482  1
  Te  Te94  1  0.77653643  0.40136595  0.44422064  1
  Te  Te95  1  0.73286322  0.42381930  0.75951194  1
  Te  Te96  1  0.76812227  0.71255595  0.08770585  1
  Te  Te97  1  0.74817842  0.75964066  0.40564651  1
  Te  Te98  1  0.74197021  0.74690579  0.75224019  1
  Te  Te99  1  0.08123377  0.22838187  0.25373661  1
  Te  Te100  1  0.04131125  0.28924577  0.61196369  1
  Te  Te101  1  0.09117350  0.27246460  0.89871019  1
  Te  Te102  1  0.08283854  0.59274396  0.22840019  1
  Te  Te103  1  0.07731798  0.57585382  0.58545597  1
  Te  Te104  1  0.05515902  0.56958211  0.91416564  1
  Te  Te105  1  0.10874998  0.93937146  0.23852241  1
  Te  Te106  1  0.08736463  0.90988171  0.58549925  1
  Te  Te107  1  0.09456427  0.91145626  0.94758872  1
  Te  Te108  1  0.42493131  0.24935573  0.22493474  1
  Te  Te109  1  0.43712769  0.22913981  0.60048937  1
  Te  Te110  1  0.42945120  0.23632740  0.91556507  1
  Te  Te111  1  0.40804289  0.57678443  0.25277683  1
  Te  Te112  1  0.44663904  0.59994717  0.56823017  1
  Te  Te113  1  0.41645863  0.57536439  0.93107530  1
  Te  Te114  1  0.37959468  0.93599620  0.26597575  1
  Te  Te115  1  0.41720713  0.90821367  0.55862142  1
  Te  Te116  1  0.41860181  0.94673001  0.94193256  1
  Te  Te117  1  0.76557949  0.24599012  0.26437711  1
  Te  Te118  1  0.75931951  0.26814667  0.58222280  1
  Te  Te119  1  0.74399269  0.23732321  0.92133457  1
  Te  Te120  1  0.73355690  0.59184470  0.27016927  1
  Te  Te121  1  0.75339355  0.57988657  0.59786339  1
  Te  Te122  1  0.75342434  0.56561596  0.91916688  1
  Te  Te123  1  0.74874553  0.91023397  0.24934831  1
  Te  Te124  1  0.75703855  0.93623745  0.57443852  1
  Te  Te125  1  0.74810242  0.92639349  0.91076732  1
  Te  Te126  1  0.25563733  0.25358369  0.08361529  1
  Te  Te127  1  0.22887489  0.22831014  0.39432873  1
  Te  Te128  1  0.25226283  0.25759016  0.74749450  1
  Te  Te129  1  0.24523801  0.60348993  0.10237446  1
  Te  Te130  1  0.24344794  0.58741705  0.40647374  1
  Te  Te131  1  0.24880240  0.57584751  0.73926629  1
  Te  Te132  1  0.26843917  0.85993202  0.10050166  1
  Te  Te133  1  0.26611405  0.90878489  0.37426994  1
  Te  Te134  1  0.24300290  0.91613699  0.75987810  1
  Te  Te135  1  0.57331397  0.25669958  0.06580231  1
  Te  Te136  1  0.58259524  0.24466032  0.39974206  1
  Te  Te137  1  0.59737678  0.21203669  0.77220967  1
  Te  Te138  1  0.58512113  0.58144988  0.07927491  1
  Te  Te139  1  0.58944265  0.59916007  0.41653227  1
  Te  Te140  1  0.60045248  0.57709166  0.75618384  1
  Te  Te141  1  0.57810770  0.90320612  0.07901709  1
  Te  Te142  1  0.56802675  0.92586283  0.42283316  1
  Te  Te143  1  0.60082200  0.93085196  0.73082485  1
  Te  Te144  1  0.92957861  0.23395628  0.08531847  1
  Te  Te145  1  0.90881525  0.25779364  0.41487266  1
  Te  Te146  1  0.88099639  0.24186949  0.72734207  1
  Te  Te147  1  0.92272964  0.54530974  0.11803734  1
  Te  Te148  1  0.91888739  0.58168183  0.42699817  1
  Te  Te149  1  0.92961166  0.56643942  0.74178337  1
  Te  Te150  1  0.91793201  0.91335787  0.08916450  1
  Te  Te151  1  0.90217002  0.94032988  0.44241145  1
  Te  Te152  1  0.91843682  0.92415313  0.76793257  1
  Te  Te153  1  0.24435823  0.03882198  0.26541212  1
  Te  Te154  1  0.24582513  0.07524348  0.58699920  1
  Te  Te155  1  0.25972851  0.06509200  0.95652134  1
  Te  Te156  1  0.24816074  0.40986346  0.25053070  1
  Te  Te157  1  0.25222721  0.40393136  0.58070986  1
  Te  Te158  1  0.24797949  0.41888712  0.90639813  1
  Te  Te159  1  0.23650876  0.76990568  0.21494608  1
  Te  Te160  1  0.26374267  0.77255323  0.55191902  1
  Te  Te161  1  0.24345453  0.76035305  0.91526502  1
  Te  Te162  1  0.59661995  0.07448939  0.23708965  1
  Te  Te163  1  0.59930732  0.07042805  0.60614021  1
  Te  Te164  1  0.59304372  0.10639063  0.90672326  1
  Te  Te165  1  0.58067632  0.39891885  0.23072133  1
  Te  Te166  1  0.57996817  0.42007981  0.58733110  1
  Te  Te167  1  0.55617810  0.43154269  0.90231079  1
  Te  Te168  1  0.58568232  0.73985895  0.25372967  1
  Te  Te169  1  0.59848004  0.74169760  0.60046028  1
  Te  Te170  1  0.55304870  0.76316106  0.93337106  1
  Te  Te171  1  0.93473374  0.10018326  0.25376546  1
  Te  Te172  1  0.89256820  0.10489323  0.60302571  1
  Te  Te173  1  0.90537535  0.09366986  0.91261780  1
  Te  Te174  1  0.92679873  0.43655993  0.23278703  1
  Te  Te175  1  0.95081343  0.41211381  0.57452973  1
  Te  Te176  1  0.91522970  0.43284613  0.90012342  1
  Te  Te177  1  0.91390562  0.74009156  0.23466131  1
  Te  Te178  1  0.92426187  0.75054848  0.59402397  1
  Te  Te179  1  0.91680009  0.75128031  0.91511354  1
