# generated using pymatgen
data_In2Te3
_symmetry_space_group_name_H-M   'P 1'
_cell_length_a   18.87250927
_cell_length_b   18.87408522
_cell_length_c   18.87746020
_cell_angle_alpha   89.99469909
_cell_angle_beta   89.94576474
_cell_angle_gamma   90.13065354
_symmetry_Int_Tables_number   1
_chemical_formula_structural   In2Te3
_chemical_formula_sum   'In72 Te108'
_cell_volume   6724.15624919
_cell_formula_units_Z   36
loop_
 _symmetry_equiv_pos_site_id
 _symmetry_equiv_pos_as_xyz
  1  'x, y, z'
loop_
 _atom_site_type_symbol
 _atom_site_label
 _atom_site_symmetry_multiplicity
 _atom_site_fract_x
 _atom_site_fract_y
 _atom_site_fract_z
 _atom_site_occupancy
  In  In0  1  0.66002982  0.14497945  0.17070232  1
  In  In1  1  0.00931043  -0.00009481  0.65563784  1
  In  In2  1  0.68105489  0.31986289  0.67236881  1
  In  In3  1  0.82433915  0.51898268  0.32366886  1
  In  In4  1  0.83221900  0.02661202  0.47853804  1
  In  In5  1  0.00238692  0.51585755  0.16480872  1
  In  In6  1  0.33989213  -0.00754109  0.01603531  1
  In  In7  1  0.48248457  0.00880668  0.47975340  1
  In  In8  1  0.66575560  -0.00037755  0.66179930  1
  In  In9  1  0.67375510  0.17328527  0.48862803  1
  In  In10  1  0.63923080  0.14177681  0.85868649  1
  In  In11  1  0.18087625  0.69510432  0.85852646  1
  In  In12  1  0.66367630  0.48702355  0.50121107  1
  In  In13  1  0.82608534  0.64736324  0.48400229  1
  In  In14  1  0.33683301  0.66570853  0.33258170  1
  In  In15  1  0.12874474  0.86096112  0.29769055  1
  In  In16  1  0.65089614  0.67244153  0.00754863  1
  In  In17  1  0.17724829  0.13695016  0.02444572  1
  In  In18  1  0.33701314  0.34180627  0.00058161  1
  In  In19  1  0.64082161  0.84392170  0.50706159  1
  In  In20  1  -0.00500901  0.15773481  0.48822984  1
  In  In21  1  0.83765333  0.36642592  0.82953978  1
  In  In22  1  0.33821929  0.84327891  0.14764699  1
  In  In23  1  0.15296999  0.66899648  0.17138444  1
  In  In24  1  0.50978260  0.82898005  0.69375066  1
  In  In25  1  0.81135466  0.82979184  -0.02070321  1
  In  In26  1  0.36802090  0.29650186  0.64310123  1
  In  In27  1  0.49349399  0.49777771  0.33086336  1
  In  In28  1  0.85198002  0.00663747  0.18139379  1
  In  In29  1  0.36564208  0.15908898  0.82976236  1
  In  In30  1  0.17370295  0.30506095  0.45938383  1
  In  In31  1  0.32770285  -0.01813525  0.30778484  1
  In  In32  1  0.82949024  0.18146604  0.00492103  1
  In  In33  1  0.49591941  0.68689726  0.85524658  1
  In  In34  1  0.68776125  0.66890500  0.66609135  1
  In  In35  1  -0.00299650  0.32219139  0.35151420  1
  In  In36  1  0.32320545  0.47346302  0.48770252  1
  In  In37  1  0.33763018  -0.00361762  0.67520150  1
  In  In38  1  0.14892501  0.16124504  0.68673724  1
  In  In39  1  0.67682001  0.69745828  0.30094116  1
  In  In40  1  0.16358765  0.51484409  0.02929706  1
  In  In41  1  0.01071169  -0.01123642  -0.00193834  1
  In  In42  1  0.16596190  0.02535228  0.49543232  1
  In  In43  1  0.33321923  0.81506857  0.48821835  1
  In  In44  1  0.14544615  0.67523731  0.51384468  1
  In  In45  1  0.17912069  0.82759900  0.67788186  1
  In  In46  1  0.67657241  0.32620950  0.32208746  1
  In  In47  1  -0.02467127  0.35905487  0.63444437  1
  In  In48  1  0.82507034  -0.00427860  0.83046237  1
  In  In49  1  0.81912202  0.33136287  0.15918411  1
  In  In50  1  0.33654787  0.49932063  0.16367001  1
  In  In51  1  0.52355345  0.49087767  0.67661749  1
  In  In52  1  0.67444514  0.36454073  -0.00402940  1
  In  In53  1  0.65187393  0.85244669  0.14208918  1
  In  In54  1  0.81865229  0.65996492  0.83421465  1
  In  In55  1  0.02652411  0.84234484  0.84847598  1
  In  In56  1  0.47848464  0.65466925  0.47340401  1
  In  In57  1  0.00632323  0.51652983  0.84533326  1
  In  In58  1  0.51248441  0.34364717  0.82902287  1
  In  In59  1  0.16293530  0.34880227  0.20221937  1
  In  In60  1  0.36462550  0.54538875  0.83614528  1
  In  In61  1  0.49071851  0.15488843  0.31261310  1
  In  In62  1  0.33367332  0.14713986  0.16825582  1
  In  In63  1  0.85529291  0.82444176  0.30746909  1
  In  In64  1  0.51993141  0.32593569  0.18130748  1
  In  In65  1  0.82500281  0.80523156  0.66693994  1
  In  In66  1  0.17471562  0.33689789  0.85843551  1
  In  In67  1  0.00035284  0.17137352  0.80322809  1
  In  In68  1  0.36929689  0.65195001  0.70632182  1
  In  In69  1  -0.03052010  0.31613626  -0.00902692  1
  In  In70  1  -0.01413647  0.80904549  0.49059211  1
  In  In71  1  0.15829385  0.49206607  0.65642654  1
  Te  Te72  1  0.06571335  0.07964588  0.10238740  1
  Te  Te73  1  0.08135940  0.08565730  0.38966365  1
  Te  Te74  1  0.09026282  0.04993402  0.77434063  1
  Te  Te75  1  0.07508319  0.39980307  0.07300026  1
  Te  Te76  1  0.08160917  0.41392111  0.43134493  1
  Te  Te77  1  0.07664994  0.40201698  0.76157475  1
  Te  Te78  1  0.04539357  0.75132014  0.11191275  1
  Te  Te79  1  0.08406374  0.74707296  0.39290591  1
  Te  Te80  1  0.07870321  0.73946976  0.74879739  1
  Te  Te81  1  0.42938271  0.10455359  0.06200751  1
  Te  Te82  1  0.37601805  0.09482498  0.40804759  1
  Te  Te83  1  0.44313246  0.04971080  0.76666597  1
  Te  Te84  1  0.43789844  0.41603433  0.08644337  1
  Te  Te85  1  0.43376560  0.40148648  0.42404656  1
  Te  Te86  1  0.40239389  0.41862267  0.74819771  1
  Te  Te87  1  0.41398899  0.77751012  0.03335261  1
  Te  Te88  1  0.43774499  0.77295294  0.38679547  1
  Te  Te89  1  0.39483943  0.78050922  0.78184626  1
  Te  Te90  1  0.75628089  0.07161316  0.07841671  1
  Te  Te91  1  0.71732150  0.06563878  0.39567172  1
  Te  Te92  1  0.74430070  0.09588009  0.75004191  1
  Te  Te93  1  0.75771683  0.44416307  0.08851391  1
  Te  Te94  1  0.76286994  0.41102735  0.41410355  1
  Te  Te95  1  0.72530499  0.42988319  0.75999230  1
  Te  Te96  1  0.75483626  0.74950578  0.09405920  1
  Te  Te97  1  0.75149695  0.76656694  0.42380819  1
  Te  Te98  1  0.72378843  0.77192149  0.77183325  1
  Te  Te99  1  0.08728427  0.24154704  0.26560031  1
  Te  Te100  1  0.07787659  0.24833419  0.58470576  1
  Te  Te101  1  0.08365889  0.23129931  0.92135492  1
  Te  Te102  1  0.11827353  0.54878640  0.25165163  1
  Te  Te103  1  0.06470109  0.56706119  0.57217879  1
  Te  Te104  1  0.08368025  0.60830586  0.93984314  1
  Te  Te105  1  0.03095621  0.94486747  0.22123501  1
  Te  Te106  1  0.08927579  0.90237861  0.57095732  1
  Te  Te107  1  0.11660493  0.89195341  0.95578328  1
  Te  Te108  1  0.40014224  0.25998052  0.24728019  1
  Te  Te109  1  0.44835689  0.18853115  0.59207525  1
  Te  Te110  1  0.43622376  0.25385773  0.92700276  1
  Te  Te111  1  0.43203017  0.59878863  0.23468736  1
  Te  Te112  1  0.41579651  0.56340702  0.58236665  1
  Te  Te113  1  0.45023628  0.58423275  0.96140401  1
  Te  Te114  1  0.43563476  0.93327524  0.21743464  1
  Te  Te115  1  0.42379696  0.89938046  0.57924352  1
  Te  Te116  1  0.41630242  0.89141027  0.93782204  1
  Te  Te117  1  0.76316630  0.22287836  0.25211185  1
  Te  Te118  1  0.76552485  0.25521218  0.56911164  1
  Te  Te119  1  0.74584322  0.25525977  0.90199360  1
  Te  Te120  1  0.75011269  0.59708783  0.22332891  1
  Te  Te121  1  0.76437786  0.55075920  0.59978550  1
  Te  Te122  1  0.74510439  0.58272969  0.93474056  1
  Te  Te123  1  0.74971462  0.91529520  0.24809919  1
  Te  Te124  1  0.76486158  0.91424620  0.57754547  1
  Te  Te125  1  0.72533942  0.94001520  0.92544508  1
  Te  Te126  1  0.24097754  0.26299960  0.08764784  1
  Te  Te127  1  0.27948841  0.21827540  0.41717196  1
  Te  Te128  1  0.25385418  0.24947759  0.76219707  1
  Te  Te129  1  0.26968570  0.61281861  0.08129582  1
  Te  Te130  1  0.24778364  0.59189101  0.43066396  1
  Te  Te131  1  0.23063447  0.58505016  0.75462448  1
  Te  Te132  1  0.22726308  0.92210061  0.08677379  1
  Te  Te133  1  0.23792128  0.90892278  0.41826414  1
  Te  Te134  1  0.24620161  0.92280078  0.76608581  1
  Te  Te135  1  0.60500257  0.25377394  0.07979019  1
  Te  Te136  1  0.57232183  0.24849317  0.40160591  1
  Te  Te137  1  0.57941214  0.23282685  0.75098619  1
  Te  Te138  1  0.55230373  0.58202133  0.07128561  1
  Te  Te139  1  0.60293380  0.59328456  0.40909594  1
  Te  Te140  1  0.58406128  0.60160184  0.75812438  1
  Te  Te141  1  0.58962681  0.92934094  0.02830671  1
  Te  Te142  1  0.58839785  0.93585415  0.40538904  1
  Te  Te143  1  0.57713277  0.93901606  0.76600091  1
  Te  Te144  1  0.92647756  0.23163289  0.11052298  1
  Te  Te145  1  0.89419886  0.24520071  0.42600984  1
  Te  Te146  1  0.90386985  0.26599373  0.73468838  1
  Te  Te147  1  0.93877656  0.63332511  0.10074039  1
  Te  Te148  1  0.92791592  0.60165617  0.38916214  1
  Te  Te149  1  0.91235115  0.57975387  0.75283227  1
  Te  Te150  1  0.90305851  0.91083364  0.07233459  1
  Te  Te151  1  0.92296869  0.92144366  0.41214283  1
  Te  Te152  1  0.91798718  0.90706062  0.74399986  1
  Te  Te153  1  0.23146584  0.06134546  0.22987096  1
  Te  Te154  1  0.25360994  0.09652781  0.59531439  1
  Te  Te155  1  0.25918546  0.08340062  0.91242538  1
  Te  Te156  1  0.26008050  0.43409272  0.27272169  1
  Te  Te157  1  0.24857708  0.38794342  0.59063615  1
  Te  Te158  1  0.25949981  0.44915626  0.92059864  1
  Te  Te159  1  0.25087694  0.76483589  0.25423657  1
  Te  Te160  1  0.26727431  0.73204719  0.59764830  1
  Te  Te161  1  0.28254620  0.72583653  0.95974457  1
  Te  Te162  1  0.55334309  0.05424126  0.22268683  1
  Te  Te163  1  0.56888731  0.08779837  0.58084590  1
  Te  Te164  1  0.56068958  0.06920232  0.96231467  1
  Te  Te165  1  0.60383521  0.43560427  0.24531245  1
  Te  Te166  1  0.57521357  0.38964907  0.57812480  1
  Te  Te167  1  0.58316354  0.44321669  0.91117161  1
  Te  Te168  1  0.56882263  0.76128758  0.22534333  1
  Te  Te169  1  0.56716265  0.72721591  0.58302310  1
  Te  Te170  1  0.58513003  0.78175091  0.92816332  1
  Te  Te171  1  0.94549291  0.05485734  0.28637558  1
  Te  Te172  1  0.90575334  0.09049435  0.59745620  1
  Te  Te173  1  0.91627416  0.09035002  0.91067912  1
  Te  Te174  1  0.91959960  0.41448051  0.24474887  1
  Te  Te175  1  0.88141390  0.44903529  0.57194260  1
  Te  Te176  1  0.90747374  0.44489233  0.94013424  1
  Te  Te177  1  0.93721739  0.73005145  0.22768575  1
  Te  Te178  1  0.91927992  0.71651804  0.59025869  1
  Te  Te179  1  0.92059420  0.75149352  0.90815702  1
