# generated using pymatgen
data_In2Te3
_symmetry_space_group_name_H-M   'P 1'
_cell_length_a   18.91874731
_cell_length_b   18.90086065
_cell_length_c   18.88809194
_cell_angle_alpha   90.04184964
_cell_angle_beta   90.00278488
_cell_angle_gamma   89.88338371
_symmetry_Int_Tables_number   1
_chemical_formula_structural   In2Te3
_chemical_formula_sum   'In72 Te108'
_cell_volume   6753.99957356
_cell_formula_units_Z   36
loop_
 _symmetry_equiv_pos_site_id
 _symmetry_equiv_pos_as_xyz
  1  'x, y, z'
loop_
 _atom_site_type_symbol
 _atom_site_label
 _atom_site_symmetry_multiplicity
 _atom_site_fract_x
 _atom_site_fract_y
 _atom_site_fract_z
 _atom_site_occupancy
  In  In0  1  0.49988511  0.84209668  0.33076602  1
  In  In1  1  0.81117160  0.34484596  0.82820557  1
  In  In2  1  0.79812709  0.47551321  0.00035433  1
  In  In3  1  -0.03652533  0.16667099  0.15038354  1
  In  In4  1  0.50985707  0.65768850  0.52129503  1
  In  In5  1  0.34039420  0.50068424  0.84024760  1
  In  In6  1  0.51046412  0.48914466  0.01089993  1
  In  In7  1  0.64762804  0.66000889  0.67737183  1
  In  In8  1  0.33445731  0.82899948  0.16208764  1
  In  In9  1  0.34054240  0.13722503  0.52801404  1
  In  In10  1  0.14017741  0.34735740  0.49254408  1
  In  In11  1  0.15953334  0.16248407  0.00615137  1
  In  In12  1  0.66365238  0.00199964  0.66508162  1
  In  In13  1  0.17393198  0.49938765  0.66542733  1
  In  In14  1  0.19554861  0.84086951  0.64838392  1
  In  In15  1  -0.01203686  0.33889911  0.64647739  1
  In  In16  1  0.84317122  0.64009464  0.48723992  1
  In  In17  1  0.82675171  0.60551949  0.82596764  1
  In  In18  1  0.64488881  0.04989633  0.02601091  1
  In  In19  1  0.64426934  0.84143470  0.80957423  1
  In  In20  1  0.35287800  0.16129010  0.17169436  1
  In  In21  1  0.34561127  0.66110030  0.32808462  1
  In  In22  1  0.16037070  0.16719501  0.34502816  1
  In  In23  1  0.52355439  0.16478781  0.66784009  1
  In  In24  1  0.84645786  0.84366988  0.68285116  1
  In  In25  1  0.81057575  0.01331020  0.50308790  1
  In  In26  1  0.17594809  0.66317149  0.83249628  1
  In  In27  1  0.66917473  0.49484604  0.17968454  1
  In  In28  1  -0.00767568  0.00767121  0.30266985  1
  In  In29  1  0.65552714  0.16965178  0.84998685  1
  In  In30  1  0.82815556  0.86805403  0.30756230  1
  In  In31  1  0.32921956  0.31412526  0.31869166  1
  In  In32  1  0.32176300  0.64349757  0.00586293  1
  In  In33  1  0.02281839  0.02986178  0.69111197  1
  In  In34  1  0.36036742  0.81857417  0.79420783  1
  In  In35  1  0.14768211  0.26660179  0.81599082  1
  In  In36  1  0.82625855  0.83279200  0.01227003  1
  In  In37  1  0.18545085  0.00229653  0.50207445  1
  In  In38  1  0.52486646  0.85453390  -0.01117182  1
  In  In39  1  0.49591810  0.66489107  0.17920471  1
  In  In40  1  -0.01243607  0.69397127  0.01893263  1
  In  In41  1  -0.01938476  0.48697815  0.18405510  1
  In  In42  1  0.15350030  0.84048233  0.00567204  1
  In  In43  1  0.33951069  0.34332588  -0.02958178  1
  In  In44  1  0.51196842  0.33960998  0.83232465  1
  In  In45  1  0.80481157  0.20258154  0.63904163  1
  In  In46  1  0.49338620  0.18420063  0.32408460  1
  In  In47  1  0.00392768  0.63199385  0.69814152  1
  In  In48  1  -0.00956466  0.81656345  0.50591075  1
  In  In49  1  0.33817422  -0.01066115  0.33673642  1
  In  In50  1  0.16083957  0.32953917  0.16870735  1
  In  In51  1  0.66961221  0.65425341  0.32690317  1
  In  In52  1  0.15448185  0.50057632  0.03115739  1
  In  In53  1  0.66439653  0.00902915  0.32141137  1
  In  In54  1  0.33624334  -0.00067282  0.00609023  1
  In  In55  1  0.81903925  0.65573164  0.16673227  1
  In  In56  1  0.36628987  0.18512925  0.83982973  1
  In  In57  1  0.34803087  0.51298717  0.49489943  1
  In  In58  1  0.17638688  0.68508160  0.51328224  1
  In  In59  1  -0.02283402  0.34251880  0.34552442  1
  In  In60  1  0.00656659  0.83699824  0.85163390  1
  In  In61  1  0.51356511  0.33787879  0.50307523  1
  In  In62  1  0.36894160  0.86533491  0.53972010  1
  In  In63  1  -0.01363986  0.64878862  0.34309788  1
  In  In64  1  0.81788695  0.04084659  0.88021943  1
  In  In65  1  -0.01288295  0.50707930  0.82953906  1
  In  In66  1  0.66018928  0.32432992  0.31348071  1
  In  In67  1  0.01570438  0.84759003  0.16746044  1
  In  In68  1  -0.00118537  0.01076221  -0.00863758  1
  In  In69  1  0.65080428  0.80370474  0.48084422  1
  In  In70  1  -0.01204671  0.19279059  0.50389439  1
  In  In71  1  0.64521049  0.48178369  0.48225992  1
  Te  Te72  1  0.07937697  0.07761141  0.10320923  1
  Te  Te73  1  0.07183489  0.07741727  0.43135189  1
  Te  Te74  1  0.09339559  0.12832656  0.77129806  1
  Te  Te75  1  0.05595630  0.39749528  0.08305467  1
  Te  Te76  1  0.10424283  0.41777120  0.36869019  1
  Te  Te77  1  0.08214505  0.41504033  0.75131821  1
  Te  Te78  1  0.10327203  0.73712764  0.10538253  1
  Te  Te79  1  0.08295922  0.74888207  0.40859772  1
  Te  Te80  1  0.08656041  0.75421847  0.74292385  1
  Te  Te81  1  0.43334880  0.08222976  0.07876591  1
  Te  Te82  1  0.42777766  0.07878516  0.41894948  1
  Te  Te83  1  0.41534959  0.08595080  0.73782260  1
  Te  Te84  1  0.38918634  0.43520217  0.07402189  1
  Te  Te85  1  0.41358958  0.40558942  0.41037964  1
  Te  Te86  1  0.40281881  0.39913537  0.75119661  1
  Te  Te87  1  0.42479755  0.74803852  0.07060887  1
  Te  Te88  1  0.42628367  0.75284475  0.42853037  1
  Te  Te89  1  0.46391470  0.72639642  0.74657368  1
  Te  Te90  1  0.77632850  0.10449502  0.07385529  1
  Te  Te91  1  0.75635920  0.09875494  0.39713865  1
  Te  Te92  1  0.75916449  0.08947694  0.74652071  1
  Te  Te93  1  0.74238440  0.38664209  0.10627533  1
  Te  Te94  1  0.74818357  0.39116003  0.42175638  1
  Te  Te95  1  0.75314910  0.46597891  0.76084539  1
  Te  Te96  1  0.73962036  0.72944441  0.06761044  1
  Te  Te97  1  0.77216323  0.75314912  0.40286074  1
  Te  Te98  1  0.75709436  0.73850173  0.75054215  1
  Te  Te99  1  0.06690642  0.23875779  0.25050662  1
  Te  Te100  1  0.09930224  0.24323964  0.59317805  1
  Te  Te101  1  0.06831368  0.25662202  0.93869294  1
  Te  Te102  1  0.07076910  0.58764985  0.24054334  1
  Te  Te103  1  0.08228273  0.58204410  0.57609917  1
  Te  Te104  1  0.07663332  0.59718825  0.92607728  1
  Te  Te105  1  0.09803490  0.91393776  0.26902822  1
  Te  Te106  1  0.06970132  0.91346987  0.59322048  1
  Te  Te107  1  0.10481428  0.94064571  0.90286723  1
  Te  Te108  1  0.43810468  0.27927375  0.21703673  1
  Te  Te109  1  0.42251856  0.24862001  0.58923302  1
  Te  Te110  1  0.45661606  0.24915802  0.94380622  1
  Te  Te111  1  0.42065477  0.56111985  0.24966217  1
  Te  Te112  1  0.44465902  0.55052012  0.60392186  1
  Te  Te113  1  0.43340544  0.58856607  0.91960789  1
  Te  Te114  1  0.42828659  0.92940007  0.22953747  1
  Te  Te115  1  0.42698049  0.96184700  0.63402843  1
  Te  Te116  1  0.41212550  0.91344347  0.90667674  1
  Te  Te117  1  0.71832802  0.24002985  0.20316950  1
  Te  Te118  1  0.77185260  0.32032067  0.55988626  1
  Te  Te119  1  0.75196720  0.25074985  0.92966182  1
  Te  Te120  1  0.77380791  0.55853309  0.27379551  1
  Te  Te121  1  0.72376132  0.58985085  0.56167927  1
  Te  Te122  1  0.71093487  0.55180135  0.90243830  1
  Te  Te123  1  0.73030354  0.92633643  0.21431467  1
  Te  Te124  1  0.74808982  0.89224043  0.57718494  1
  Te  Te125  1  0.75315845  0.90663633  0.90213658  1
  Te  Te126  1  0.26095646  0.25501461  0.07996836  1
  Te  Te127  1  0.25973396  0.23839243  0.43294209  1
  Te  Te128  1  0.28147857  0.27787804  0.75724958  1
  Te  Te129  1  0.24919361  0.57683596  0.11352587  1
  Te  Te130  1  0.24216020  0.58739519  0.41642443  1
  Te  Te131  1  0.27053252  0.59275467  0.73896284  1
  Te  Te132  1  0.23717579  0.92798872  0.09670186  1
  Te  Te133  1  0.26411590  0.89515738  0.43150396  1
  Te  Te134  1  0.25434235  0.91446292  0.75931556  1
  Te  Te135  1  0.62097457  0.18163073  0.10536974  1
  Te  Te136  1  0.59504124  0.23745320  0.42342974  1
  Te  Te137  1  0.61096838  0.26594390  0.74187955  1
  Te  Te138  1  0.59400798  0.59080888  0.08903608  1
  Te  Te139  1  0.56175395  0.58006591  0.40002560  1
  Te  Te140  1  0.53403774  0.58648713  0.73798775  1
  Te  Te141  1  0.60927198  0.92029063  0.09101216  1
  Te  Te142  1  0.58214915  0.92638534  0.42759360  1
  Te  Te143  1  0.55099710  0.93491137  0.73750808  1
  Te  Te144  1  0.86991242  0.22338723  0.04893195  1
  Te  Te145  1  0.88882658  0.24095807  0.40790593  1
  Te  Te146  1  0.90316539  0.25723324  0.74157429  1
  Te  Te147  1  0.90346069  0.57517678  0.06463003  1
  Te  Te148  1  0.92997046  0.53412086  0.42492111  1
  Te  Te149  1  0.88643189  0.52966763  0.70495500  1
  Te  Te150  1  0.91396062  0.92840992  0.08816974  1
  Te  Te151  1  0.91456976  0.92112377  0.42355125  1
  Te  Te152  1  0.92331473  0.93848164  0.77189951  1
  Te  Te153  1  0.25039961  0.08354984  0.25481615  1
  Te  Te154  1  0.23717002  0.07853057  0.61480532  1
  Te  Te155  1  0.26442906  0.09842501  0.91579709  1
  Te  Te156  1  0.23602896  0.41625443  0.26349512  1
  Te  Te157  1  0.25347416  0.41398132  0.56860241  1
  Te  Te158  1  0.22586515  0.43194653  0.91640760  1
  Te  Te159  1  0.25672382  0.75801246  0.26323802  1
  Te  Te160  1  0.29354195  0.73996662  0.59346832  1
  Te  Te161  1  0.25356832  0.75791537  0.92207063  1
  Te  Te162  1  0.57257400  0.09242988  0.23580971  1
  Te  Te163  1  0.61786400  0.10425101  0.57019553  1
  Te  Te164  1  0.57682490  0.05524656  0.89531120  1
  Te  Te165  1  0.56709415  0.42680815  0.26142927  1
  Te  Te166  1  0.58244182  0.42322636  0.60267422  1
  Te  Te167  1  0.60341143  0.41276070  0.92303759  1
  Te  Te168  1  0.59638573  0.75995193  0.24634923  1
  Te  Te169  1  0.56624919  0.77410291  0.60406845  1
  Te  Te170  1  0.59121925  0.74957605  0.90985633  1
  Te  Te171  1  0.88716529  0.09769787  0.25903806  1
  Te  Te172  1  0.91079714  0.08527611  0.59292466  1
  Te  Te173  1  0.94254299  0.11584237  0.90319015  1
  Te  Te174  1  0.89150851  0.38165340  0.23192900  1
  Te  Te175  1  0.94268086  0.42398315  0.53702474  1
  Te  Te176  1  0.91340974  0.41157623  0.92116011  1
  Te  Te177  1  0.91240796  0.75445643  0.23937048  1
  Te  Te178  1  0.91208355  0.72591748  0.59974268  1
  Te  Te179  1  0.90642562  0.73006112  0.89431890  1
