# generated using pymatgen
data_In2Te3
_symmetry_space_group_name_H-M   'P 1'
_cell_length_a   18.90409015
_cell_length_b   18.90220747
_cell_length_c   18.88641576
_cell_angle_alpha   90.07051167
_cell_angle_beta   89.95272175
_cell_angle_gamma   90.04413087
_symmetry_Int_Tables_number   1
_chemical_formula_structural   In2Te3
_chemical_formula_sum   'In72 Te108'
_cell_volume   6748.65529458
_cell_formula_units_Z   36
loop_
 _symmetry_equiv_pos_site_id
 _symmetry_equiv_pos_as_xyz
  1  'x, y, z'
loop_
 _atom_site_type_symbol
 _atom_site_label
 _atom_site_symmetry_multiplicity
 _atom_site_fract_x
 _atom_site_fract_y
 _atom_site_fract_z
 _atom_site_occupancy
  In  In0  1  0.84719853  0.51424692  -0.00754594  1
  In  In1  1  0.66067890  0.79621839  0.51823954  1
  In  In2  1  0.84256103  0.65060195  0.82687506  1
  In  In3  1  0.49541966  0.16232032  0.63971930  1
  In  In4  1  0.19153219  0.33726191  0.85560085  1
  In  In5  1  0.67311344  -0.01634505  0.33196245  1
  In  In6  1  0.02024231  0.17557451  0.83117051  1
  In  In7  1  0.31920654  0.67289678  0.68469646  1
  In  In8  1  0.68827902  0.00781582  -0.02005189  1
  In  In9  1  0.81773073  0.14011156  0.67603996  1
  In  In10  1  0.15311761  0.33711477  0.52169750  1
  In  In11  1  0.00438487  0.67823979  0.33254976  1
  In  In12  1  0.50887502  0.65397029  0.15212609  1
  In  In13  1  -0.01590317  0.13137266  0.19680608  1
  In  In14  1  0.49720695  -0.02271623  0.20372385  1
  In  In15  1  -0.00756496  -0.01283372  0.62874296  1
  In  In16  1  0.68547101  0.17130407  0.80977423  1
  In  In17  1  0.65205220  0.82597341  0.82236121  1
  In  In18  1  0.03887623  0.14657855  0.47099327  1
  In  In19  1  0.48912127  -0.01610414  0.83016951  1
  In  In20  1  0.49583877  0.63321216  0.80018164  1
  In  In21  1  0.48505570  0.80431367  0.34413052  1
  In  In22  1  0.47597104  0.38823067  0.78498868  1
  In  In23  1  0.67465313  0.66663312  0.32148416  1
  In  In24  1  0.84375926  0.00067253  0.82118927  1
  In  In25  1  0.65716420  0.35538685  0.67242356  1
  In  In26  1  0.18438455  0.15347611  0.34262732  1
  In  In27  1  0.82163892  0.49858198  0.33526207  1
  In  In28  1  0.32111638  0.81259893  0.18851797  1
  In  In29  1  0.34373015  0.50917882  0.17616184  1
  In  In30  1  0.50436992  0.48976158  0.36819522  1
  In  In31  1  0.13656258  -0.06405919  0.86348505  1
  In  In32  1  0.14500708  -0.02124602  0.17483288  1
  In  In33  1  0.47589135  0.35042366  0.53013851  1
  In  In34  1  0.65277565  0.36682170  0.00217960  1
  In  In35  1  0.68547943  0.15744248  0.17553642  1
  In  In36  1  0.00236670  0.51008337  0.84250114  1
  In  In37  1  0.15950808  0.52531610  0.67328253  1
  In  In38  1  0.18648691  0.51530186  0.00505213  1
  In  In39  1  0.49192355  0.31783108  0.18476946  1
  In  In40  1  -0.02002566  0.34770430  0.66887318  1
  In  In41  1  0.84443354  0.81834124  0.65900213  1
  In  In42  1  0.81299933  0.36127872  0.83013677  1
  In  In43  1  0.67943060  0.32497034  0.33902834  1
  In  In44  1  0.14641436  0.80302816  0.68851671  1
  In  In45  1  0.18910684  0.16774081  0.01915632  1
  In  In46  1  0.30303498  0.66281530  0.34115478  1
  In  In47  1  0.81391414  -0.00954346  0.47455020  1
  In  In48  1  0.32853290  0.01650995  0.00207451  1
  In  In49  1  0.31363397  -0.01261807  0.64436145  1
  In  In50  1  0.65335931  0.16894443  0.49587695  1
  In  In51  1  0.81428703  0.65003186  0.51543399  1
  In  In52  1  0.02323457  0.83589391  0.48818187  1
  In  In53  1  0.69479297  0.49852779  0.16822790  1
  In  In54  1  -0.01500735  0.51296636  0.16555884  1
  In  In55  1  0.47460174  0.66259549  0.51516462  1
  In  In56  1  0.85176459  0.18471832  0.01249575  1
  In  In57  1  0.86792697  0.82148310  0.30046510  1
  In  In58  1  0.48011843  0.18133537  -0.01269364  1
  In  In59  1  0.34168600  0.17678969  0.84821508  1
  In  In60  1  0.87690624  0.82009042  0.00965796  1
  In  In61  1  0.50703138  0.51381094  -0.01523544  1
  In  In62  1  0.17226398  0.13456329  0.65927717  1
  In  In63  1  0.17901426  0.35143229  0.15570714  1
  In  In64  1  0.51658229  0.83997530  -0.02593415  1
  In  In65  1  0.30600144  0.69638347  -0.00146374  1
  In  In66  1  0.69810629  0.83392819  0.13275320  1
  In  In67  1  0.83787466  0.33520269  0.48656700  1
  In  In68  1  0.46219905  0.00813644  0.47621601  1
  In  In69  1  0.16856244  0.49418779  0.34554420  1
  In  In70  1  0.03156264  0.33791114  0.33480722  1
  In  In71  1  0.33031038  0.17825911  0.18028313  1
  Te  Te72  1  0.08205876  0.08229405  0.08321867  1
  Te  Te73  1  0.10663877  0.03377797  0.39603418  1
  Te  Te74  1  0.07003147  0.05959069  0.74561841  1
  Te  Te75  1  0.08028823  0.42976245  0.07475069  1
  Te  Te76  1  0.06700107  0.43652619  0.44573397  1
  Te  Te77  1  0.08750093  0.40374673  0.76030091  1
  Te  Te78  1  0.14732322  0.78835817  0.02992065  1
  Te  Te79  1  0.11152564  0.73854831  0.41862553  1
  Te  Te80  1  0.03649671  0.76832741  0.77957893  1
  Te  Te81  1  0.42978603  0.08326781  0.09718915  1
  Te  Te82  1  0.43624411  0.11133239  0.37900743  1
  Te  Te83  1  0.40511289  0.08106012  0.74611225  1
  Te  Te84  1  0.43733797  0.42626396  0.09066612  1
  Te  Te85  1  0.39130085  0.42813275  0.43530931  1
  Te  Te86  1  0.37120789  0.45851529  0.71005517  1
  Te  Te87  1  0.43003818  0.76583750  0.08558662  1
  Te  Te88  1  0.37884602  0.75537567  0.43971323  1
  Te  Te89  1  0.41559300  0.75099975  0.76618034  1
  Te  Te90  1  0.77587643  0.07263041  0.08578625  1
  Te  Te91  1  0.74758131  0.10289508  0.39676431  1
  Te  Te92  1  0.72044573  0.04109099  0.74095139  1
  Te  Te93  1  0.77515909  0.40480529  0.08233037  1
  Te  Te94  1  0.72939418  0.43203820  0.43560420  1
  Te  Te95  1  0.77149653  0.44147132  0.71405503  1
  Te  Te96  1  0.76308444  0.73495160  0.04829432  1
  Te  Te97  1  0.76822144  0.76190108  0.40599063  1
  Te  Te98  1  0.74565486  0.73646251  0.74119388  1
  Te  Te99  1  0.10749156  0.24523197  0.23967765  1
  Te  Te100  1  0.06182081  0.23334149  0.60182213  1
  Te  Te101  1  0.09191137  0.25524254  0.93861793  1
  Te  Te102  1  0.09168758  0.58196360  0.24919101  1
  Te  Te103  1  0.04704600  0.60352463  0.62171532  1
  Te  Te104  1  0.11212668  0.59504190  0.90041113  1
  Te  Te105  1  0.04110629  0.87432601  0.20947608  1
  Te  Te106  1  0.11828310  0.92026584  0.57539195  1
  Te  Te107  1  0.04832697  0.90032718  0.97848041  1
  Te  Te108  1  0.41319115  0.24328514  0.28764033  1
  Te  Te109  1  0.38847255  0.24732198  0.58983639  1
  Te  Te110  1  0.42767493  0.29172589  0.90028843  1
  Te  Te111  1  0.43260220  0.59736618  0.27126849  1
  Te  Te112  1  0.39330392  0.56878060  0.60076451  1
  Te  Te113  1  0.40090607  0.59971339  0.92238476  1
  Te  Te114  1  0.39060362  0.91033214  0.28655552  1
  Te  Te115  1  0.40908243  0.90740184  0.56771315  1
  Te  Te116  1  0.39072586  0.90625329  0.91606304  1
  Te  Te117  1  0.76834401  0.25663001  0.24541959  1
  Te  Te118  1  0.74397302  0.25122792  0.59077863  1
  Te  Te119  1  0.73651626  0.25506030  0.92529820  1
  Te  Te120  1  0.78127736  0.60531144  0.23202999  1
  Te  Te121  1  0.72536021  0.59406148  0.61815265  1
  Te  Te122  1  0.74899290  0.55611916  0.89117107  1
  Te  Te123  1  0.77175303  0.92077250  0.23318542  1
  Te  Te124  1  0.74681337  0.90795662  0.58247436  1
  Te  Te125  1  0.76587761  0.89780334  0.90985752  1
  Te  Te126  1  0.28298263  0.27444508  0.07303038  1
  Te  Te127  1  0.23794613  0.26109823  0.42783146  1
  Te  Te128  1  0.24295894  0.23823337  0.74958038  1
  Te  Te129  1  0.24982746  0.60773991  0.11131992  1
  Te  Te130  1  0.24780664  0.57165034  0.44203014  1
  Te  Te131  1  0.22272056  0.60723782  0.78220652  1
  Te  Te132  1  0.25434091  0.91244458  0.08670248  1
  Te  Te133  1  0.22796895  0.96733516  0.46660321  1
  Te  Te134  1  0.23836879  0.90893664  0.75247719  1
  Te  Te135  1  0.58773378  0.24578662  0.08504948  1
  Te  Te136  1  0.56935999  0.27296092  0.42783892  1
  Te  Te137  1  0.56974836  0.24713590  0.74647407  1
  Te  Te138  1  0.61505194  0.58461858  0.07132239  1
  Te  Te139  1  0.58959558  0.60098890  0.42816564  1
  Te  Te140  1  0.58918445  0.57938836  0.69500032  1
  Te  Te141  1  0.58796418  0.93497330  0.07815511  1
  Te  Te142  1  0.58405039  0.89429589  0.41874865  1
  Te  Te143  1  0.55717154  0.89553559  0.73429019  1
  Te  Te144  1  0.93838120  0.24435100  0.11414485  1
  Te  Te145  1  0.93632891  0.24691223  0.41086306  1
  Te  Te146  1  0.89851625  0.24172067  0.75975263  1
  Te  Te147  1  0.95126057  0.59977972  0.05161518  1
  Te  Te148  1  0.91350536  0.58792143  0.41638184  1
  Te  Te149  1  0.93852057  0.58306833  0.72654737  1
  Te  Te150  1  0.93861245  0.91918634  0.10384131  1
  Te  Te151  1  0.93268158  0.92837449  0.39929011  1
  Te  Te152  1  0.93656943  0.90287543  0.74981588  1
  Te  Te153  1  0.25740637  0.06219843  0.24250888  1
  Te  Te154  1  0.26634462  0.09395268  0.54642659  1
  Te  Te155  1  0.23109617  0.07669384  0.90145778  1
  Te  Te156  1  0.26819128  0.41121625  0.26340271  1
  Te  Te157  1  0.24233744  0.41507120  0.61459057  1
  Te  Te158  1  0.27837317  0.43165901  0.92564791  1
  Te  Te159  1  0.21465374  0.76873794  0.28180333  1
  Te  Te160  1  0.22895195  0.73808846  0.58694215  1
  Te  Te161  1  0.21194373  0.75592383  0.90031765  1
  Te  Te162  1  0.58073852  0.09044327  0.26579300  1
  Te  Te163  1  0.58125226  0.06039678  0.57001806  1
  Te  Te164  1  0.57485238  0.08592488  0.91084252  1
  Te  Te165  1  0.58735309  0.42672356  0.24841858  1
  Te  Te166  1  0.56819556  0.44891232  0.59708963  1
  Te  Te167  1  0.58803347  0.43470548  0.88188089  1
  Te  Te168  1  0.59340439  0.76351201  0.23505956  1
  Te  Te169  1  0.55370023  0.74931185  0.60745362  1
  Te  Te170  1  0.57934105  0.72207836  0.90501962  1
  Te  Te171  1  0.92229946  0.05733015  0.30537805  1
  Te  Te172  1  0.90436942  0.09134839  0.55862078  1
  Te  Te173  1  0.92338673  0.08873939  0.91487117  1
  Te  Te174  1  0.92052503  0.41225047  0.25906300  1
  Te  Te175  1  0.90663826  0.43181670  0.57366291  1
  Te  Te176  1  0.92719150  0.40068026  0.91816522  1
  Te  Te177  1  0.94640886  0.73513214  0.20660481  1
  Te  Te178  1  0.93379613  0.74035009  0.56653912  1
  Te  Te179  1  0.94360397  0.73716330  0.90188769  1
