# generated using pymatgen
data_In2Te3
_symmetry_space_group_name_H-M   'P 1'
_cell_length_a   18.98565669
_cell_length_b   18.96534427
_cell_length_c   18.97280672
_cell_angle_alpha   89.99448414
_cell_angle_beta   90.16409456
_cell_angle_gamma   89.99424683
_symmetry_Int_Tables_number   1
_chemical_formula_structural   In2Te3
_chemical_formula_sum   'In72 Te108'
_cell_volume   6831.50123757
_cell_formula_units_Z   36
loop_
 _symmetry_equiv_pos_site_id
 _symmetry_equiv_pos_as_xyz
  1  'x, y, z'
loop_
 _atom_site_type_symbol
 _atom_site_label
 _atom_site_symmetry_multiplicity
 _atom_site_fract_x
 _atom_site_fract_y
 _atom_site_fract_z
 _atom_site_occupancy
  In  In0  1  -0.00570889  0.32965508  0.64446680  1
  In  In1  1  0.17965119  0.51695713  0.01141777  1
  In  In2  1  0.32512012  0.80315910  0.51570168  1
  In  In3  1  0.36941373  0.33780417  0.35162153  1
  In  In4  1  0.49772524  0.31428730  0.82223180  1
  In  In5  1  0.34065307  0.48783068  0.83988265  1
  In  In6  1  0.31148980  0.81094115  0.84111850  1
  In  In7  1  0.67654860  0.17175317  0.50749519  1
  In  In8  1  0.32483639  0.67263662  0.65422123  1
  In  In9  1  0.00701181  0.00325894  0.00611329  1
  In  In10  1  0.49393609  0.66667607  0.49269639  1
  In  In11  1  0.65391538  0.36790201  0.32475261  1
  In  In12  1  0.02619731  0.33664153  -0.01141472  1
  In  In13  1  0.82749390  0.82468667  -0.01121413  1
  In  In14  1  0.64690942  -0.02957027  0.35325071  1
  In  In15  1  0.49960171  0.35463917  0.17672772  1
  In  In16  1  0.84143427  0.68038764  0.16959182  1
  In  In17  1  0.66909096  0.51511204  0.84303103  1
  In  In18  1  0.67503134  0.64031008  0.37033364  1
  In  In19  1  0.83314852  0.49598671  0.66524763  1
  In  In20  1  0.17495811  0.33503243  0.17667630  1
  In  In21  1  0.00527160  0.00440905  0.33478221  1
  In  In22  1  0.48279021  0.82766596  0.66734511  1
  In  In23  1  0.67450102  0.17854671  0.15451496  1
  In  In24  1  0.51084552  0.13058409  0.35403495  1
  In  In25  1  0.64810294  0.65861285  0.67604751  1
  In  In26  1  0.15472697  -0.02064774  0.83316530  1
  In  In27  1  0.47848880  -0.02130326  0.18780768  1
  In  In28  1  0.34251994  -0.04892448  0.02728592  1
  In  In29  1  0.84188986  0.33685409  0.15706668  1
  In  In30  1  0.15459918  0.32851088  0.80256519  1
  In  In31  1  0.01923818  0.33691838  0.34872505  1
  In  In32  1  0.33309107  0.68634360  0.04581698  1
  In  In33  1  0.36010153  0.01370778  0.64913554  1
  In  In34  1  0.83039490  -0.00483983  0.50070760  1
  In  In35  1  0.30072841  0.16172132  0.81741205  1
  In  In36  1  0.68277428  0.33775646  -0.00379021  1
  In  In37  1  0.68443721  -0.01298499  0.02361561  1
  In  In38  1  0.82584453  0.50433259  0.00365100  1
  In  In39  1  0.85993973  0.17688190  -0.02983980  1
  In  In40  1  0.64043525  0.82528280  0.20429319  1
  In  In41  1  0.83129479  0.83813907  0.33297481  1
  In  In42  1  0.16738627  0.49507382  0.32559402  1
  In  In43  1  0.64255578  0.81031700  0.84576342  1
  In  In44  1  0.83804914  0.68892500  0.51448759  1
  In  In45  1  0.00152392  0.00583497  0.66699861  1
  In  In46  1  0.47889845  -0.01364272  0.84094682  1
  In  In47  1  -0.01713136  0.48269545  0.80901134  1
  In  In48  1  0.37946736  0.53180683  0.18713081  1
  In  In49  1  0.19554505  0.82941601  0.03096667  1
  In  In50  1  0.17496695  0.34511056  0.51135449  1
  In  In51  1  0.47565559  0.17142595  -0.02379141  1
  In  In52  1  0.50488624  0.52670737  0.01701132  1
  In  In53  1  0.31577590  0.16401928  0.17807237  1
  In  In54  1  0.81107248  0.62985643  0.83538444  1
  In  In55  1  0.34939627  0.18405536  0.48145375  1
  In  In56  1  -0.00120258  0.67511974  0.00748073  1
  In  In57  1  0.85106055  0.84670309  0.65129906  1
  In  In58  1  0.86588379  0.16915047  0.34096353  1
  In  In59  1  0.03525517  0.66666561  0.38241812  1
  In  In60  1  0.19184853  0.00059551  0.48984521  1
  In  In61  1  0.65909390  0.12500551  0.80667197  1
  In  In62  1  0.50789507  0.21108704  0.61382113  1
  In  In63  1  0.13239414  0.65510159  0.80385391  1
  In  In64  1  0.81125989  0.33854129  0.79949959  1
  In  In65  1  0.82479416  0.17589868  0.66344620  1
  In  In66  1  0.83038930  0.48694297  0.34633740  1
  In  In67  1  0.17567752  0.13893572  -0.00530022  1
  In  In68  1  0.16267138  0.14844688  0.31915356  1
  In  In69  1  0.01170870  0.84883447  0.17407547  1
  In  In70  1  0.33557706  0.50928919  0.46798609  1
  In  In71  1  0.18790123  0.82191578  0.64493543  1
  Te  Te72  1  0.09597118  0.07617150  0.09909570  1
  Te  Te73  1  0.08295976  0.09212695  0.43272165  1
  Te  Te74  1  0.10198170  0.08182147  0.74556248  1
  Te  Te75  1  0.08734007  0.42752757  0.09363945  1
  Te  Te76  1  0.08164404  0.44261891  0.43785947  1
  Te  Te77  1  0.08829351  0.43508170  0.71658680  1
  Te  Te78  1  0.09189207  0.74023637  0.10485839  1
  Te  Te79  1  0.13262260  0.76447320  0.43490528  1
  Te  Te80  1  0.08434202  0.78266262  0.74711330  1
  Te  Te81  1  0.41567533  0.08146097  0.08337977  1
  Te  Te82  1  0.38862973  0.06521231  0.40118805  1
  Te  Te83  1  0.42696247  0.10009568  0.75508979  1
  Te  Te84  1  0.40949441  0.42497662  0.07706793  1
  Te  Te85  1  0.45476666  0.44956628  0.39893097  1
  Te  Te86  1  0.43111522  0.41975607  0.74611726  1
  Te  Te87  1  0.43838589  0.76959501  0.11363213  1
  Te  Te88  1  0.38183596  0.71560367  0.40256071  1
  Te  Te89  1  0.41580787  0.73268431  0.76249414  1
  Te  Te90  1  0.77282960  0.09873394  0.07328595  1
  Te  Te91  1  0.74518768  0.08065075  0.39858831  1
  Te  Te92  1  0.75673775  0.05962910  0.72276953  1
  Te  Te93  1  0.73481369  0.43122088  0.10206172  1
  Te  Te94  1  0.73947141  0.41325235  0.43472424  1
  Te  Te95  1  0.71327110  0.42499997  0.72651590  1
  Te  Te96  1  0.74179484  0.76837608  0.09998909  1
  Te  Te97  1  0.73902375  0.76669319  0.42818676  1
  Te  Te98  1  0.74893209  0.74376558  0.75365280  1
  Te  Te99  1  0.07406159  0.24352610  0.24123260  1
  Te  Te100  1  0.09575481  0.24545120  0.58172858  1
  Te  Te101  1  0.09256138  0.23102665  0.90521813  1
  Te  Te102  1  0.07162646  0.58811933  0.26423130  1
  Te  Te103  1  0.03877866  0.65690909  0.64397265  1
  Te  Te104  1  0.05940198  0.56335755  0.91463613  1
  Te  Te105  1  0.09876428  0.90749209  0.27522879  1
  Te  Te106  1  0.09696839  0.92332226  0.57878805  1
  Te  Te107  1  0.08960301  0.89528600  0.93730258  1
  Te  Te108  1  0.43083241  0.23710173  0.24811389  1
  Te  Te109  1  0.38649340  0.29928336  0.57317193  1
  Te  Te110  1  0.38111538  0.26247191  0.90608660  1
  Te  Te111  1  0.43806583  0.63709264  0.27287981  1
  Te  Te112  1  0.41691148  0.57558018  0.58671273  1
  Te  Te113  1  0.39416476  0.59160226  0.93627488  1
  Te  Te114  1  0.41782784  0.87974522  0.27692286  1
  Te  Te115  1  0.42432654  0.91321227  0.55667807  1
  Te  Te116  1  0.42413318  0.87360589  0.92490826  1
  Te  Te117  1  0.75289615  0.26052558  0.25483702  1
  Te  Te118  1  0.75947266  0.27228892  0.57309098  1
  Te  Te119  1  0.73461580  0.23674506  0.89553286  1
  Te  Te120  1  0.75791921  0.58663950  0.25423147  1
  Te  Te121  1  0.74571314  0.58959359  0.58309616  1
  Te  Te122  1  0.72333184  0.60632768  0.95870786  1
  Te  Te123  1  0.74631638  0.92825014  0.24647688  1
  Te  Te124  1  0.74073349  0.90987028  0.57788052  1
  Te  Te125  1  0.74145090  0.91603868  0.90391950  1
  Te  Te126  1  0.24793000  0.25114035  0.07425917  1
  Te  Te127  1  0.24283760  0.26055660  0.39225581  1
  Te  Te128  1  0.26252514  0.26770795  0.72458307  1
  Te  Te129  1  0.24989547  0.58649930  0.12601431  1
  Te  Te130  1  0.26272036  0.59943279  0.37311515  1
  Te  Te131  1  0.25066042  0.58148738  0.75240791  1
  Te  Te132  1  0.22878967  0.94342462  0.12214756  1
  Te  Te133  1  0.24598928  0.88305525  0.41432992  1
  Te  Te134  1  0.27714381  0.91646979  0.73549108  1
  Te  Te135  1  0.57083111  0.25431663  0.07055321  1
  Te  Te136  1  0.58236133  0.25254340  0.40221779  1
  Te  Te137  1  0.59864652  0.24292981  0.73504842  1
  Te  Te138  1  0.54392742  0.65589877  0.08022892  1
  Te  Te139  1  0.58036594  0.55426992  0.44542831  1
  Te  Te140  1  0.56333942  0.58297281  0.76769622  1
  Te  Te141  1  0.57588304  0.90866175  0.09127461  1
  Te  Te142  1  0.53364748  0.88200997  0.37429625  1
  Te  Te143  1  0.57536316  0.91447400  0.75028276  1
  Te  Te144  1  0.93773217  0.25054696  0.07746145  1
  Te  Te145  1  0.92532194  0.26313001  0.43292913  1
  Te  Te146  1  0.92379581  0.25132606  0.75499481  1
  Te  Te147  1  0.92280618  0.57602877  0.09413723  1
  Te  Te148  1  0.91271392  0.59010096  0.42822050  1
  Te  Te149  1  0.92508733  0.60772716  0.72988514  1
  Te  Te150  1  0.90913521  0.91225356  0.08268404  1
  Te  Te151  1  0.92834121  0.90845605  0.42499675  1
  Te  Te152  1  0.92053687  0.92138828  0.75571921  1
  Te  Te153  1  0.27423233  0.06091463  0.27583814  1
  Te  Te154  1  0.26215022  0.10320835  0.57894013  1
  Te  Te155  1  0.27257396  0.04387019  0.91855828  1
  Te  Te156  1  0.28249415  0.41560307  0.24658162  1
  Te  Te157  1  0.24297124  0.46052258  0.57080429  1
  Te  Te158  1  0.22563800  0.41657104  0.91023804  1
  Te  Te159  1  0.30066035  0.79288290  0.16425847  1
  Te  Te160  1  0.20781870  0.69602870  0.55282472  1
  Te  Te161  1  0.22487840  0.71938434  0.92361796  1
  Te  Te162  1  0.58996688  0.07960612  0.23268618  1
  Te  Te163  1  0.56809339  0.08862277  0.55989297  1
  Te  Te164  1  0.58033876  0.06912479  0.93249224  1
  Te  Te165  1  0.58072315  0.46029386  0.23598982  1
  Te  Te166  1  0.52893681  0.33691598  0.53637550  1
  Te  Te167  1  0.57534596  0.41607287  0.92276511  1
  Te  Te168  1  0.57600689  0.71188620  0.27926041  1
  Te  Te169  1  0.58210044  0.75552827  0.57940953  1
  Te  Te170  1  0.58790356  0.71713104  0.94318831  1
  Te  Te171  1  0.91861338  0.07876152  0.24224733  1
  Te  Te172  1  0.91708437  0.09343262  0.57424988  1
  Te  Te173  1  0.92536454  0.06729822  0.90152198  1
  Te  Te174  1  0.92680298  0.41632225  0.25304735  1
  Te  Te175  1  0.92497279  0.43553215  0.57026171  1
  Te  Te176  1  0.89679980  0.40318928  0.91609663  1
  Te  Te177  1  0.93422655  0.74632755  0.26984552  1
  Te  Te178  1  0.95290932  0.76740127  0.57240662  1
  Te  Te179  1  0.90904548  0.73247751  0.90136570  1
