# generated using pymatgen
data_In2Te3
_symmetry_space_group_name_H-M   'P 1'
_cell_length_a   18.97302107
_cell_length_b   19.01195043
_cell_length_c   18.98883266
_cell_angle_alpha   90.26096732
_cell_angle_beta   89.86167778
_cell_angle_gamma   89.89173954
_symmetry_Int_Tables_number   1
_chemical_formula_structural   In2Te3
_chemical_formula_sum   'In72 Te108'
_cell_volume   6849.43699037
_cell_formula_units_Z   36
loop_
 _symmetry_equiv_pos_site_id
 _symmetry_equiv_pos_as_xyz
  1  'x, y, z'
loop_
 _atom_site_type_symbol
 _atom_site_label
 _atom_site_symmetry_multiplicity
 _atom_site_fract_x
 _atom_site_fract_y
 _atom_site_fract_z
 _atom_site_occupancy
  In  In0  1  -0.00692854  0.51674493  0.15864528  1
  In  In1  1  0.79329158  0.48207137  0.34305840  1
  In  In2  1  0.51324622  0.02453610  0.47564959  1
  In  In3  1  0.64326051  0.66954348  0.33589259  1
  In  In4  1  0.16064523  0.00134674  0.81560527  1
  In  In5  1  0.36461930  0.81686775  0.45917944  1
  In  In6  1  0.01205271  0.85145822  0.49554129  1
  In  In7  1  -0.00772071  0.03528328  0.01584762  1
  In  In8  1  0.82190269  0.81766329  0.00038517  1
  In  In9  1  0.00275057  0.37593516  0.68374798  1
  In  In10  1  -0.00173262  0.49790704  0.85837732  1
  In  In11  1  0.81946055  0.17795930  0.00319929  1
  In  In12  1  0.81348942  0.50084935  0.66268385  1
  In  In13  1  0.01871525  -0.02210018  0.32930259  1
  In  In14  1  -0.01181357  0.49963616  0.48910391  1
  In  In15  1  0.17390096  0.15557864  0.66521465  1
  In  In16  1  0.16380404  0.81557157  0.65595198  1
  In  In17  1  0.36002410  0.17894723  0.85052536  1
  In  In18  1  0.15656987  0.32787614  0.15906791  1
  In  In19  1  0.50897183  0.17055996  0.01106884  1
  In  In20  1  0.14797245  0.21790917  -0.02870219  1
  In  In21  1  0.66484266  0.67077518  0.66930599  1
  In  In22  1  0.66382841  0.18187287  0.48734750  1
  In  In23  1  0.48262705  0.66486195  0.15399885  1
  In  In24  1  0.69883893  0.01639720  0.65867078  1
  In  In25  1  0.31600479  0.50924453  0.51016814  1
  In  In26  1  0.83175357  0.83496453  0.67758680  1
  In  In27  1  0.17392790  0.53543262  0.70268489  1
  In  In28  1  0.67294397  0.00323657  0.30611608  1
  In  In29  1  0.47684702  0.83610031  0.68529623  1
  In  In30  1  0.64540489  0.82633085  0.50144960  1
  In  In31  1  -0.01037700  0.83317932  0.84280866  1
  In  In32  1  0.65769583  0.33111542  0.69477969  1
  In  In33  1  0.67761991  0.83467316  0.85183100  1
  In  In34  1  0.84444055  0.69091403  0.50593228  1
  In  In35  1  0.34496304  0.81175132  0.85075939  1
  In  In36  1  0.00136252  0.16331918  0.16349650  1
  In  In37  1  0.54122377  0.01916535  0.82758263  1
  In  In38  1  0.16885746  0.49387151  -0.00573171  1
  In  In39  1  0.16816443  0.65855173  0.15880471  1
  In  In40  1  0.49577782  0.50829356  0.66085382  1
  In  In41  1  0.84988031  0.68597094  0.16315681  1
  In  In42  1  0.33814376  0.33191331  0.67232852  1
  In  In43  1  0.15552130  0.80867917  0.00042479  1
  In  In44  1  0.32269619  -0.02825795  -0.00936150  1
  In  In45  1  0.50060461  0.33166668  0.51006196  1
  In  In46  1  0.16338974  0.31678123  0.49827307  1
  In  In47  1  0.81691606  0.33662921  0.18635536  1
  In  In48  1  0.02891243  0.64653670  0.68914344  1
  In  In49  1  0.15543845  0.16675489  0.31930947  1
  In  In50  1  0.35687135  -0.02517627  0.33512440  1
  In  In51  1  0.50741498  0.82191386  0.00538257  1
  In  In52  1  0.34612991  0.49970073  0.84206712  1
  In  In53  1  0.69824706  0.53504946  0.86862878  1
  In  In54  1  0.84539670  0.17970603  0.67879971  1
  In  In55  1  0.50317798  0.19882897  0.68181089  1
  In  In56  1  0.13504534  -0.02143558  0.17325051  1
  In  In57  1  0.52732986  0.53079710  0.30487212  1
  In  In58  1  0.66780741  0.49232313  0.15781735  1
  In  In59  1  -0.00482534  -0.00536782  0.67454770  1
  In  In60  1  0.32006324  0.16920940  0.16897507  1
  In  In61  1  0.32545994  0.00051201  0.65004437  1
  In  In62  1  0.81920257  -0.01241305  0.14763806  1
  In  In63  1  0.81455813  0.16580957  0.32117071  1
  In  In64  1  0.33373289  0.34197899  0.31367101  1
  In  In65  1  0.49832947  0.48303071  0.03210261  1
  In  In66  1  -0.02129580  0.17586923  0.49029099  1
  In  In67  1  0.18929860  0.68028501  0.49078990  1
  In  In68  1  0.16984226  0.50700805  0.34348427  1
  In  In69  1  0.49865783  -0.01579698  0.17023164  1
  In  In70  1  0.65529891  0.33176643  0.00884936  1
  In  In71  1  0.16077292  0.82209192  0.32983425  1
  Te  Te72  1  0.11703170  0.10237332  0.07691521  1
  Te  Te73  1  0.07955385  0.08538133  0.42191060  1
  Te  Te74  1  0.06491162  0.10219104  0.75681599  1
  Te  Te75  1  0.06596202  0.41338535  0.07401590  1
  Te  Te76  1  0.07850733  0.40568113  0.41009072  1
  Te  Te77  1  0.11244783  0.42151738  0.77823857  1
  Te  Te78  1  0.06714431  0.70321410  0.05500059  1
  Te  Te79  1  0.07023687  0.73551806  0.41752226  1
  Te  Te80  1  0.10059483  0.74940801  0.77607744  1
  Te  Te81  1  0.39766040  0.07587945  0.07424795  1
  Te  Te82  1  0.42080618  0.09581580  0.38765721  1
  Te  Te83  1  0.41798161  0.07861244  0.74449909  1
  Te  Te84  1  0.41224994  0.36536670  0.05420311  1
  Te  Te85  1  0.40264243  0.41562966  0.42741116  1
  Te  Te86  1  0.43792973  0.40483418  0.75470913  1
  Te  Te87  1  0.39558138  0.74052003  0.05881346  1
  Te  Te88  1  0.46154468  0.74070975  0.38248971  1
  Te  Te89  1  0.44353896  0.72917502  0.77898547  1
  Te  Te90  1  0.74769890  0.11238580  0.11651641  1
  Te  Te91  1  0.74776734  0.07485355  0.42086799  1
  Te  Te92  1  0.75625638  0.09879782  0.76349420  1
  Te  Te93  1  0.76592623  0.41800216  0.06946098  1
  Te  Te94  1  0.76418960  0.35642816  0.40885486  1
  Te  Te95  1  0.74892324  0.42308847  0.77334879  1
  Te  Te96  1  0.73782289  0.77024460  0.11323950  1
  Te  Te97  1  0.74633926  0.75686129  0.41191645  1
  Te  Te98  1  0.76347686  0.73460040  0.76340921  1
  Te  Te99  1  0.06032645  0.26608917  0.25930013  1
  Te  Te100  1  0.06413044  0.25486514  0.59604291  1
  Te  Te101  1  0.02365672  0.26670409  0.91509358  1
  Te  Te102  1  0.07406964  0.59086838  0.26323708  1
  Te  Te103  1  0.09790158  0.57582721  0.56684865  1
  Te  Te104  1  0.07828305  0.59763859  0.93345707  1
  Te  Te105  1  0.04832396  0.86130501  0.22235062  1
  Te  Te106  1  0.10245920  0.93417380  0.58553126  1
  Te  Te107  1  0.08459895  0.92723986  0.92303675  1
  Te  Te108  1  0.41889368  0.26115205  0.22456570  1
  Te  Te109  1  0.40242420  0.23497731  0.57529302  1
  Te  Te110  1  0.43956936  0.27996159  0.93115311  1
  Te  Te111  1  0.41597850  0.54705965  0.21229049  1
  Te  Te112  1  0.41633716  0.59403224  0.57296260  1
  Te  Te113  1  0.42853379  0.57176043  0.93945026  1
  Te  Te114  1  0.39883369  0.89154537  0.22363690  1
  Te  Te115  1  0.42789586  0.92393301  0.56589649  1
  Te  Te116  1  0.43706853  0.92887364  0.89902461  1
  Te  Te117  1  0.71801888  0.23712892  0.23482620  1
  Te  Te118  1  0.74337122  0.25428578  0.59412421  1
  Te  Te119  1  0.72340362  0.24257967  0.91061416  1
  Te  Te120  1  0.74770226  0.59470654  0.24423874  1
  Te  Te121  1  0.74423697  0.59288456  0.56516935  1
  Te  Te122  1  0.79455021  0.61329658  0.94868248  1
  Te  Te123  1  0.74166369  0.89419667  0.23149172  1
  Te  Te124  1  0.75721953  0.90822345  0.56978505  1
  Te  Te125  1  0.75671113  0.92882653  0.93002778  1
  Te  Te126  1  0.25934269  0.26531047  0.06472460  1
  Te  Te127  1  0.25497064  0.24489162  0.40197202  1
  Te  Te128  1  0.25339216  0.24275982  0.76052667  1
  Te  Te129  1  0.25598215  0.55970577  0.09271014  1
  Te  Te130  1  0.27621266  0.60222020  0.39418312  1
  Te  Te131  1  0.29054282  0.60431823  0.75167790  1
  Te  Te132  1  0.23686230  0.89862685  0.09232323  1
  Te  Te133  1  0.24835380  0.90810122  0.41881374  1
  Te  Te134  1  0.25892896  0.90286331  0.75211533  1
  Te  Te135  1  0.58151893  0.25319243  0.10978243  1
  Te  Te136  1  0.57063288  0.25657265  0.40548177  1
  Te  Te137  1  0.59833735  0.23268436  0.78891057  1
  Te  Te138  1  0.59621341  0.59734310  0.07893858  1
  Te  Te139  1  0.60035777  0.56314652  0.42703102  1
  Te  Te140  1  0.59438900  0.57269754  0.75772301  1
  Te  Te141  1  0.58848990  0.93095394  0.06468910  1
  Te  Te142  1  0.58220853  0.91567639  0.39802676  1
  Te  Te143  1  0.60127032  0.91295544  0.73247599  1
  Te  Te144  1  0.91289102  0.26061702  0.09308070  1
  Te  Te145  1  0.88908284  0.26391473  0.40793466  1
  Te  Te146  1  0.90786178  0.29004081  0.76143935  1
  Te  Te147  1  0.89296929  0.57889741  0.06421466  1
  Te  Te148  1  0.89344319  0.58334686  0.40981249  1
  Te  Te149  1  0.91526779  0.57132260  0.75245839  1
  Te  Te150  1  0.92524592  0.91359852  0.06903335  1
  Te  Te151  1  0.91404527  0.91253114  0.40801111  1
  Te  Te152  1  0.89826262  0.93242748  0.77303249  1
  Te  Te153  1  0.23870637  0.05971962  0.25110418  1
  Te  Te154  1  0.25361773  0.09088304  0.56185513  1
  Te  Te155  1  0.25410621  0.08160477  0.90490026  1
  Te  Te156  1  0.24111094  0.42987012  0.23267065  1
  Te  Te157  1  0.23337596  0.41117423  0.59649108  1
  Te  Te158  1  0.24244203  0.40930149  0.89634197  1
  Te  Te159  1  0.25179726  0.74164116  0.24912643  1
  Te  Te160  1  0.28092923  0.75830779  0.58045514  1
  Te  Te161  1  0.27210411  0.72940389  0.94980270  1
  Te  Te162  1  0.55909078  0.08317091  0.25995943  1
  Te  Te163  1  0.58099952  0.09245045  0.59693711  1
  Te  Te164  1  0.59776718  0.06300420  0.95646169  1
  Te  Te165  1  0.59602881  0.41102088  0.25564288  1
  Te  Te166  1  0.59582771  0.41904387  0.58757082  1
  Te  Te167  1  0.59426343  0.43754722  0.91859256  1
  Te  Te168  1  0.54951243  0.75593369  0.25513952  1
  Te  Te169  1  0.55849469  0.74281134  0.59034035  1
  Te  Te170  1  0.58507010  0.73932961  0.91110513  1
  Te  Te171  1  0.92117799  0.06771853  0.24827129  1
  Te  Te172  1  0.90813338  0.07790577  0.58195703  1
  Te  Te173  1  0.92724461  0.11841128  0.91621595  1
  Te  Te174  1  0.91120837  0.43312307  0.25547955  1
  Te  Te175  1  0.90155018  0.41198784  0.57588432  1
  Te  Te176  1  0.91849013  0.37938373  0.89488023  1
  Te  Te177  1  0.93646832  0.75929169  0.25406959  1
  Te  Te178  1  0.94495365  0.75369988  0.60942042  1
  Te  Te179  1  0.90298260  0.73170562  0.90719525  1
