# generated using pymatgen
data_In2Te3
_symmetry_space_group_name_H-M   'P 1'
_cell_length_a   18.91020066
_cell_length_b   18.89801780
_cell_length_c   18.91921261
_cell_angle_alpha   89.84544246
_cell_angle_beta   90.13240935
_cell_angle_gamma   89.99522533
_symmetry_Int_Tables_number   1
_chemical_formula_structural   In2Te3
_chemical_formula_sum   'In72 Te108'
_cell_volume   6761.02757526
_cell_formula_units_Z   36
loop_
 _symmetry_equiv_pos_site_id
 _symmetry_equiv_pos_as_xyz
  1  'x, y, z'
loop_
 _atom_site_type_symbol
 _atom_site_label
 _atom_site_symmetry_multiplicity
 _atom_site_fract_x
 _atom_site_fract_y
 _atom_site_fract_z
 _atom_site_occupancy
  In  In0  1  0.84161078  0.64544153  0.48773818  1
  In  In1  1  0.65727599  0.00205028  0.65317864  1
  In  In2  1  0.66268916  0.81481330  0.84947505  1
  In  In3  1  0.46803484  0.30839059  0.85458402  1
  In  In4  1  0.49642055  0.33890589  0.48946807  1
  In  In5  1  0.50309011  0.51147786  0.31222627  1
  In  In6  1  0.67888459  0.67343519  0.29961964  1
  In  In7  1  0.31842141  0.65759831  0.34150535  1
  In  In8  1  0.66279712  0.67196515  0.67320391  1
  In  In9  1  0.01969327  0.64814857  0.64656501  1
  In  In10  1  0.51431497  0.50541583  0.01762793  1
  In  In11  1  0.32749249  0.33255183  0.31603039  1
  In  In12  1  0.83634822  0.00305107  0.81780680  1
  In  In13  1  0.36053127  0.82448198  0.13005656  1
  In  In14  1  0.81207734  -0.01057766  0.15063625  1
  In  In15  1  0.15949287  0.33519338  0.15264795  1
  In  In16  1  0.83174143  0.50948177  0.67870289  1
  In  In17  1  0.83296411  0.35112134  0.17453618  1
  In  In18  1  0.17141342  0.01336914  0.50029313  1
  In  In19  1  0.48593882  0.17144936  0.66895646  1
  In  In20  1  0.49968957  0.01484226  0.15239099  1
  In  In21  1  0.66492889  0.83646852  0.49155246  1
  In  In22  1  0.01350942  0.14583035  0.84145002  1
  In  In23  1  0.19644630  0.17387578  0.00015274  1
  In  In24  1  0.82616666  0.16163478  0.32244605  1
  In  In25  1  0.67005313  0.33402148  0.01841589  1
  In  In26  1  0.16325306  0.00293530  0.18644652  1
  In  In27  1  -0.02371081  0.81178115  0.48290091  1
  In  In28  1  0.16262965  0.83311453  0.33694534  1
  In  In29  1  0.51373693  0.67275216  0.85560969  1
  In  In30  1  0.68227891  0.65970659  0.03020011  1
  In  In31  1  0.00470342  -0.00376369  -0.01099717  1
  In  In32  1  0.15665932  0.65681153  0.17345627  1
  In  In33  1  0.18903326  -0.01211441  0.86103390  1
  In  In34  1  0.45555595  0.63311832  0.51405005  1
  In  In35  1  0.22484083  0.50609750  0.65387760  1
  In  In36  1  0.16069617  0.81271818  0.65966012  1
  In  In37  1  0.50154322  0.31854755  0.17197714  1
  In  In38  1  0.18704428  0.34171965  0.81956352  1
  In  In39  1  -0.07089224  0.63120075  0.26197225  1
  In  In40  1  0.50534631  0.82251946  0.68948283  1
  In  In41  1  0.32999652  0.50098090  0.83509292  1
  In  In42  1  0.18302119  0.16248309  0.33144472  1
  In  In43  1  0.33019003  0.01389090  0.66498238  1
  In  In44  1  0.17116132  0.19888614  0.65588951  1
  In  In45  1  0.66810863  -0.00250099  0.30526996  1
  In  In46  1  0.85558371  0.33493288  0.83577304  1
  In  In47  1  -0.00178205  0.34724511  0.00990548  1
  In  In48  1  0.03376848  0.16869796  0.50780272  1
  In  In49  1  0.64534176  0.00414857  0.02102143  1
  In  In50  1  0.83843067  -0.01490466  0.50545920  1
  In  In51  1  0.67227277  0.14836140  0.84540627  1
  In  In52  1  -0.00560712  0.17889785  0.17152898  1
  In  In53  1  -0.02868743  0.66686801  0.04280554  1
  In  In54  1  0.33998199  0.49960468  0.17420409  1
  In  In55  1  0.66005371  0.33790232  0.65165615  1
  In  In56  1  0.82911524  0.82875127  0.00560161  1
  In  In57  1  -0.00346309  0.31088698  0.65350083  1
  In  In58  1  0.33296578  0.87234800  0.49425808  1
  In  In59  1  0.50111268  0.83926522  0.32169190  1
  In  In60  1  0.65081305  0.47949608  0.47190514  1
  In  In61  1  0.14783717  0.82100307  -0.00477535  1
  In  In62  1  0.86041366  0.35793248  0.46356253  1
  In  In63  1  0.18901523  0.65372738  0.51135871  1
  In  In64  1  0.01005143  0.51011078  0.84736515  1
  In  In65  1  0.65877633  0.32692918  0.34270436  1
  In  In66  1  0.66520654  0.19391844  0.50109231  1
  In  In67  1  0.33852900  0.01033679  0.00419449  1
  In  In68  1  0.00022163  -0.00586392  0.66723414  1
  In  In69  1  0.66539727  0.52571991  0.85847371  1
  In  In70  1  0.16641562  0.49542221  0.00652121  1
  In  In71  1  0.34450140  0.82777045  0.86949348  1
  Te  Te72  1  0.08727706  0.09420801  0.07346146  1
  Te  Te73  1  0.07615304  0.07253990  0.39875293  1
  Te  Te74  1  0.10428089  0.08065852  0.73713269  1
  Te  Te75  1  0.06028101  0.44612412  0.10729950  1
  Te  Te76  1  -0.02140169  0.42407427  0.39005844  1
  Te  Te77  1  0.06653527  0.40480886  0.75380898  1
  Te  Te78  1  0.06824079  0.76365571  0.11090387  1
  Te  Te79  1  0.09026660  0.73285056  0.42298054  1
  Te  Te80  1  0.09178988  0.72294681  0.75226547  1
  Te  Te81  1  0.42893063  0.11591577  0.06053258  1
  Te  Te82  1  0.38327702  0.00546680  0.44356906  1
  Te  Te83  1  0.42547817  0.07254169  0.75947546  1
  Te  Te84  1  0.41558960  0.40826040  0.08129510  1
  Te  Te85  1  0.41334338  0.43053410  0.40146342  1
  Te  Te86  1  0.42041418  0.41088140  0.76173211  1
  Te  Te87  1  0.43576264  0.74265995  0.03783191  1
  Te  Te88  1  0.41249470  0.75552792  0.41595877  1
  Te  Te89  1  0.40880753  0.73466959  0.76244373  1
  Te  Te90  1  0.73066509  0.09816142  0.09562815  1
  Te  Te91  1  0.74272135  0.08340958  0.42665675  1
  Te  Te92  1  0.75251284  0.09426004  0.72722286  1
  Te  Te93  1  0.75705158  0.43569194  0.07859854  1
  Te  Te94  1  0.75979045  0.43806100  0.37785807  1
  Te  Te95  1  0.74273540  0.41666137  0.76106935  1
  Te  Te96  1  0.77193945  0.74876793  0.12082562  1
  Te  Te97  1  0.75575153  0.74594738  0.41125796  1
  Te  Te98  1  0.75443597  0.74500330  0.75960109  1
  Te  Te99  1  0.08251262  0.25987973  0.26267209  1
  Te  Te100  1  0.10838259  0.29513817  0.55214328  1
  Te  Te101  1  0.08438586  0.25759081  0.91963966  1
  Te  Te102  1  0.07658159  0.59643873  0.27929258  1
  Te  Te103  1  0.09957908  0.54424996  0.57303238  1
  Te  Te104  1  0.07671832  0.60168285  0.94678970  1
  Te  Te105  1  0.06967670  0.91356345  0.25464703  1
  Te  Te106  1  0.08360572  0.90452534  0.56307627  1
  Te  Te107  1  0.06945959  0.90253275  0.88906383  1
  Te  Te108  1  0.41616654  0.23150236  0.25568928  1
  Te  Te109  1  0.40682598  0.27063603  0.58815204  1
  Te  Te110  1  0.39510986  0.21568306  0.94013277  1
  Te  Te111  1  0.42057441  0.61347183  0.23661839  1
  Te  Te112  1  0.36761577  0.54715236  0.60091994  1
  Te  Te113  1  0.41634600  0.58389965  0.93199211  1
  Te  Te114  1  0.40692029  0.92218811  0.23431971  1
  Te  Te115  1  0.43750273  0.92272268  0.59814514  1
  Te  Te116  1  0.43236515  0.93026001  0.92504025  1
  Te  Te117  1  0.73697276  0.24928369  0.23792927  1
  Te  Te118  1  0.77074752  0.27899328  0.56853247  1
  Te  Te119  1  0.75504389  0.25433421  0.91636810  1
  Te  Te120  1  0.78262370  0.57795094  0.25039907  1
  Te  Te121  1  0.73561780  0.56937674  0.57331641  1
  Te  Te122  1  0.76563989  0.61349207  0.91830245  1
  Te  Te123  1  0.77084327  0.89819650  0.26347725  1
  Te  Te124  1  0.75404125  0.89815523  0.59805130  1
  Te  Te125  1  0.74782888  0.92814198  0.91995448  1
  Te  Te126  1  0.26807219  0.24863042  0.10417605  1
  Te  Te127  1  0.25852097  0.25238076  0.41968403  1
  Te  Te128  1  0.27703306  0.26112561  0.73758147  1
  Te  Te129  1  0.25829563  0.59088212  0.08269543  1
  Te  Te130  1  0.24209559  0.55626320  0.41380358  1
  Te  Te131  1  0.22443999  0.58691556  0.77608646  1
  Te  Te132  1  0.23940529  0.91879070  0.07537128  1
  Te  Te133  1  0.25685437  0.95010750  0.38116809  1
  Te  Te134  1  0.25038428  0.90681454  0.74884619  1
  Te  Te135  1  0.57552049  0.23641090  0.07341230  1
  Te  Te136  1  0.55545553  0.23032754  0.40102735  1
  Te  Te137  1  0.58897450  0.25003137  0.75310425  1
  Te  Te138  1  0.59654570  0.57695223  0.11587757  1
  Te  Te139  1  0.58333439  0.60103808  0.40667355  1
  Te  Te140  1  0.57202677  0.57821824  0.75013911  1
  Te  Te141  1  0.59329296  0.90275646  0.11756865  1
  Te  Te142  1  0.57943287  0.93292776  0.41388447  1
  Te  Te143  1  0.59111189  0.92156711  0.76453233  1
  Te  Te144  1  0.90250024  0.24998583  0.07536036  1
  Te  Te145  1  0.92564339  0.22955203  0.41290905  1
  Te  Te146  1  0.91767965  0.22544268  0.75082329  1
  Te  Te147  1  0.88801355  0.57466324  0.12498396  1
  Te  Te148  1  0.94963949  0.57892569  0.41108738  1
  Te  Te149  1  0.92164347  0.59719121  0.75968669  1
  Te  Te150  1  0.92928785  0.91264262  0.08685187  1
  Te  Te151  1  0.91255846  0.91472106  0.40091868  1
  Te  Te152  1  0.92012335  0.90418882  0.74948903  1
  Te  Te153  1  0.26501256  0.10226934  0.22315851  1
  Te  Te154  1  0.26331700  0.11151360  0.56786619  1
  Te  Te155  1  0.26835651  0.11159902  0.88276596  1
  Te  Te156  1  0.22901442  0.43104612  0.25020473  1
  Te  Te157  1  0.30792847  0.40324457  0.58780925  1
  Te  Te158  1  0.26126623  0.40197121  0.93621872  1
  Te  Te159  1  0.25871463  0.76241593  0.24054121  1
  Te  Te160  1  0.27585260  0.75362813  0.58321638  1
  Te  Te161  1  0.24648419  0.73714785  0.92822486  1
  Te  Te162  1  0.57798661  0.09693370  0.24790191  1
  Te  Te163  1  0.57121064  0.09468203  0.56878998  1
  Te  Te164  1  0.56771364  0.07477238  0.91584033  1
  Te  Te165  1  0.59563603  0.41942972  0.23837055  1
  Te  Te166  1  0.56302025  0.43550775  0.58859571  1
  Te  Te167  1  0.57722404  0.41181390  0.91130545  1
  Te  Te168  1  0.59047123  0.77036507  0.22522708  1
  Te  Te169  1  0.57066188  0.74442635  0.57340940  1
  Te  Te170  1  0.57463505  0.76272103  0.96455711  1
  Te  Te171  1  0.91346725  0.07122979  0.23915368  1
  Te  Te172  1  0.92165677  0.08910247  0.57927880  1
  Te  Te173  1  0.90117307  0.08885266  0.92757103  1
  Te  Te174  1  0.95798841  0.39305462  0.24350487  1
  Te  Te175  1  0.92039975  0.42760880  0.58998635  1
  Te  Te176  1  0.90455050  0.44085239  0.93273639  1
  Te  Te177  1  0.87115303  0.76945362  0.23289253  1
  Te  Te178  1  0.90545972  0.73645717  0.59210354  1
  Te  Te179  1  0.91679272  0.74161906  0.92710804  1
