# generated using pymatgen
data_In2Te3
_symmetry_space_group_name_H-M   'P 1'
_cell_length_a   18.86577368
_cell_length_b   18.84674490
_cell_length_c   18.85823916
_cell_angle_alpha   90.00155861
_cell_angle_beta   90.04571999
_cell_angle_gamma   90.02030324
_symmetry_Int_Tables_number   1
_chemical_formula_structural   In2Te3
_chemical_formula_sum   'In72 Te108'
_cell_volume   6705.20323594
_cell_formula_units_Z   36
loop_
 _symmetry_equiv_pos_site_id
 _symmetry_equiv_pos_as_xyz
  1  'x, y, z'
loop_
 _atom_site_type_symbol
 _atom_site_label
 _atom_site_symmetry_multiplicity
 _atom_site_fract_x
 _atom_site_fract_y
 _atom_site_fract_z
 _atom_site_occupancy
  In  In0  1  0.80852610  0.17314726  0.00283914  1
  In  In1  1  0.68633320  0.81717446  0.51385728  1
  In  In2  1  0.33863428  0.00038944  0.34241806  1
  In  In3  1  0.35428839  0.18438710  0.19282511  1
  In  In4  1  0.17695448  0.51196290  0.66452628  1
  In  In5  1  0.81005591  0.17767174  0.66717426  1
  In  In6  1  0.52137561  0.34389163  0.83784371  1
  In  In7  1  0.47827825  0.00022891  0.51569652  1
  In  In8  1  0.34447794  0.18155164  0.82286785  1
  In  In9  1  0.66055895  0.00751911  0.66439099  1
  In  In10  1  0.03195254  0.13319995  0.49599476  1
  In  In11  1  0.16382017  0.14366317  0.34806550  1
  In  In12  1  -0.00651951  0.65955101  0.68881642  1
  In  In13  1  0.51163558  0.47719375  0.33937068  1
  In  In14  1  0.66842264  0.36008076  0.02385074  1
  In  In15  1  0.81285007  0.48331061  0.33847847  1
  In  In16  1  0.34929320  0.51347777  0.82313050  1
  In  In17  1  -0.01048544  0.32610770  0.68014129  1
  In  In18  1  0.66730540  0.64043189  0.69074141  1
  In  In19  1  0.53254082  0.03182462  0.85400942  1
  In  In20  1  0.49400751  0.67386640  0.16897461  1
  In  In21  1  -0.00332559  0.31827912  0.32163449  1
  In  In22  1  -0.00627639  0.48521977  0.53321982  1
  In  In23  1  0.53316587  0.46791819  0.66637869  1
  In  In24  1  0.17819669  0.49687390  0.31227200  1
  In  In25  1  0.00581417  -0.01084410  0.68513276  1
  In  In26  1  0.34761357  0.48993693  0.14780619  1
  In  In27  1  0.16965007  0.02972030  0.47086917  1
  In  In28  1  0.35212858  0.49505624  0.47764733  1
  In  In29  1  0.48639482  0.00172890  0.16488102  1
  In  In30  1  0.52811629  0.64149436  0.50534634  1
  In  In31  1  0.17673162  0.13936385  0.66946752  1
  In  In32  1  0.15118230  0.18932703  0.00475299  1
  In  In33  1  0.34127865  0.84100918  0.50311503  1
  In  In34  1  0.32925813  0.66460922  -0.00592682  1
  In  In35  1  0.83199031  0.82031718  0.00189412  1
  In  In36  1  0.31444598  -0.00970739  0.01225762  1
  In  In37  1  0.83724533  0.00248479  0.49064768  1
  In  In38  1  0.32326506  0.82747201  0.82874282  1
  In  In39  1  0.17205733  0.37047253  0.16679189  1
  In  In40  1  0.84144179  0.15929571  0.33051199  1
  In  In41  1  0.33487687  0.67348979  0.67116710  1
  In  In42  1  0.51312251  0.84810601  -0.00168428  1
  In  In43  1  0.64886690  0.83596169  0.15616174  1
  In  In44  1  0.84185268  0.00279353  0.82429448  1
  In  In45  1  0.79336880  0.31625949  0.47866635  1
  In  In46  1  0.16688685  0.33241185  0.82894002  1
  In  In47  1  0.15623947  -0.00278862  0.84232854  1
  In  In48  1  -0.00334637  0.14211284  0.17220801  1
  In  In49  1  -0.00502649  0.83550015  0.48436893  1
  In  In50  1  0.68255021  -0.00125063  0.32693110  1
  In  In51  1  0.67086574  0.64512356  -0.01424620  1
  In  In52  1  0.51093433  0.18576401  0.68395664  1
  In  In53  1  0.81414811  0.32865008  0.14705604  1
  In  In54  1  0.13058272  0.82514786  0.28720054  1
  In  In55  1  0.51248958  0.84508829  0.33020122  1
  In  In56  1  -0.02305654  -0.00189986  0.00764269  1
  In  In57  1  0.16473258  0.82486154  0.66218669  1
  In  In58  1  0.35565144  0.33221925  -0.01895506  1
  In  In59  1  0.18145363  0.33050902  0.49182535  1
  In  In60  1  0.66660785  0.17547300  0.17702149  1
  In  In61  1  0.68082381  0.83620962  0.84712464  1
  In  In62  1  -0.01715751  0.52101435  0.13518860  1
  In  In63  1  0.34922426  0.18112999  0.51043232  1
  In  In64  1  0.14966460  0.52167304  0.00209521  1
  In  In65  1  0.83252692  0.65614946  0.51314031  1
  In  In66  1  0.13014345  0.82132527  0.03015152  1
  In  In67  1  0.82551314  0.65000925  0.82821878  1
  In  In68  1  0.67705339  0.51471159  0.18751599  1
  In  In69  1  -0.02539471  0.67331775  0.31766962  1
  In  In70  1  -0.03792206  0.49204117  0.86645103  1
  In  In71  1  0.31374620  0.68215408  0.33284020  1
  Te  Te72  1  0.09368544  0.07015074  0.07894157  1
  Te  Te73  1  0.04433168  0.04020960  0.36992207  1
  Te  Te74  1  0.06910253  0.10086086  0.76869856  1
  Te  Te75  1  0.06424207  0.41160121  0.06603145  1
  Te  Te76  1  0.08119374  0.41321646  0.41185311  1
  Te  Te77  1  0.07587885  0.43202398  0.75006858  1
  Te  Te78  1  0.03430089  0.72703601  0.10112862  1
  Te  Te79  1  0.08191380  0.73968685  0.40427026  1
  Te  Te80  1  0.07775999  0.75796606  0.75903570  1
  Te  Te81  1  0.40489885  0.09560851  0.07680139  1
  Te  Te82  1  0.43123084  0.10031114  0.40807680  1
  Te  Te83  1  0.42517733  0.07770229  0.74870404  1
  Te  Te84  1  0.44272311  0.40668464  0.07357244  1
  Te  Te85  1  0.44696828  0.38433337  0.43987354  1
  Te  Te86  1  0.41387928  0.40228200  0.74631734  1
  Te  Te87  1  0.41361298  0.76492204  0.07764478  1
  Te  Te88  1  0.43135342  0.74260408  0.42040623  1
  Te  Te89  1  0.42333408  0.73937183  0.76793314  1
  Te  Te90  1  0.76574932  0.08222954  0.11270758  1
  Te  Te91  1  0.73904085  0.10102721  0.42860959  1
  Te  Te92  1  0.73235254  0.09347884  0.76813646  1
  Te  Te93  1  0.77458450  0.45800861  0.08107283  1
  Te  Te94  1  0.70644123  0.43280708  0.43457050  1
  Te  Te95  1  0.74036544  0.50182004  0.72919237  1
  Te  Te96  1  0.74101672  0.73265059  0.08795456  1
  Te  Te97  1  0.76657923  0.74432793  0.41420121  1
  Te  Te98  1  0.75701996  0.75592095  0.74369089  1
  Te  Te99  1  0.10153912  0.24671181  0.23880854  1
  Te  Te100  1  0.09355401  0.24845201  0.58588500  1
  Te  Te101  1  0.06699442  0.26204552  0.90994386  1
  Te  Te102  1  0.07512765  0.58186110  0.24160828  1
  Te  Te103  1  0.08416818  0.59739492  0.57959283  1
  Te  Te104  1  0.06791493  0.59028898  0.90045341  1
  Te  Te105  1  0.07135949  0.95201513  0.24653707  1
  Te  Te106  1  0.08833770  0.93000186  0.57077934  1
  Te  Te107  1  0.06317537  0.90754515  0.91919995  1
  Te  Te108  1  0.46128611  0.27150824  0.24547758  1
  Te  Te109  1  0.43925647  0.27114766  0.58410052  1
  Te  Te110  1  0.45112042  0.23252753  0.91753154  1
  Te  Te111  1  0.41434204  0.58142855  0.26171452  1
  Te  Te112  1  0.42138201  0.57058917  0.59192197  1
  Te  Te113  1  0.42205063  0.56445090  0.93993959  1
  Te  Te114  1  0.40227074  0.90121525  0.24345791  1
  Te  Te115  1  0.42805178  0.89706863  0.60685185  1
  Te  Te116  1  0.41519322  0.93024122  0.91292620  1
  Te  Te117  1  0.75327080  0.26684011  0.27118656  1
  Te  Te118  1  0.71084667  0.26343343  0.59202051  1
  Te  Te119  1  0.74867686  0.28260651  0.91798696  1
  Te  Te120  1  0.78655075  0.59592080  0.24685229  1
  Te  Te121  1  0.74015119  0.56015386  0.58371776  1
  Te  Te122  1  0.74038098  0.54497784  0.89627302  1
  Te  Te123  1  0.74731973  0.89170675  0.25050241  1
  Te  Te124  1  0.76456859  0.91993583  0.59704065  1
  Te  Te125  1  0.75774333  0.93428917  0.93307562  1
  Te  Te126  1  0.25770741  0.26480264  0.08646707  1
  Te  Te127  1  0.26585316  0.24695741  0.39902402  1
  Te  Te128  1  0.25382657  0.25793135  0.72754158  1
  Te  Te129  1  0.24318094  0.59104463  0.09955079  1
  Te  Te130  1  0.23960239  0.58283130  0.42237552  1
  Te  Te131  1  0.23943980  0.60314245  0.76909392  1
  Te  Te132  1  0.23303610  0.90390859  0.09732706  1
  Te  Te133  1  0.23986702  0.90315119  0.40631859  1
  Te  Te134  1  0.24700543  0.92778679  0.74179594  1
  Te  Te135  1  0.58723763  0.24521877  0.07390032  1
  Te  Te136  1  0.56666555  0.29808217  0.35572590  1
  Te  Te137  1  0.61524114  0.26014265  0.75874620  1
  Te  Te138  1  0.57768561  0.57731957  0.08782233  1
  Te  Te139  1  0.60626907  0.57791193  0.39835325  1
  Te  Te140  1  0.56055225  0.57182824  0.76732957  1
  Te  Te141  1  0.59769902  0.95992478  0.06547635  1
  Te  Te142  1  0.59159662  0.92120547  0.43570035  1
  Te  Te143  1  0.58394255  0.92028107  0.76348986  1
  Te  Te144  1  0.92358001  0.24368083  0.08587171  1
  Te  Te145  1  0.93006321  0.24065240  0.43348243  1
  Te  Te146  1  0.88552488  0.26361262  0.76657543  1
  Te  Te147  1  0.93530158  0.62264519  0.03702136  1
  Te  Te148  1  0.92627274  0.56136262  0.41950747  1
  Te  Te149  1  0.89710228  0.54863170  0.73109616  1
  Te  Te150  1  0.91503597  0.89778952  0.09947300  1
  Te  Te151  1  0.88848262  0.89697371  0.40146509  1
  Te  Te152  1  0.92110537  0.89656143  0.76013217  1
  Te  Te153  1  0.25573156  0.07829113  0.24199854  1
  Te  Te154  1  0.27391055  0.06729814  0.57831487  1
  Te  Te155  1  0.24859730  0.10085694  0.91175050  1
  Te  Te156  1  0.28723258  0.40438497  0.26087487  1
  Te  Te157  1  0.26435467  0.41888994  0.58207207  1
  Te  Te158  1  0.24808721  0.42499258  0.92218231  1
  Te  Te159  1  0.23714713  0.74480393  0.22438592  1
  Te  Te160  1  0.24617796  0.73905442  0.56656634  1
  Te  Te161  1  0.23084500  0.75963738  0.92775800  1
  Te  Te162  1  0.57419865  0.08225870  0.25988894  1
  Te  Te163  1  0.57838723  0.09783674  0.57491606  1
  Te  Te164  1  0.61225441  0.07975146  0.96648316  1
  Te  Te165  1  0.59044068  0.39506327  0.23662002  1
  Te  Te166  1  0.61746430  0.40431210  0.56379714  1
  Te  Te167  1  0.60581828  0.44163550  0.91267136  1
  Te  Te168  1  0.59533739  0.73769507  0.26310209  1
  Te  Te169  1  0.58423707  0.74537034  0.59946961  1
  Te  Te170  1  0.57896255  0.74187885  0.91098503  1
  Te  Te171  1  0.88624562  0.06013790  0.23025327  1
  Te  Te172  1  0.91643413  0.09005419  0.59948357  1
  Te  Te173  1  0.91311424  0.10138317  0.91689248  1
  Te  Te174  1  0.92000640  0.41798747  0.23984444  1
  Te  Te175  1  0.89061224  0.38711654  0.57954109  1
  Te  Te176  1  0.87642450  0.37407760  0.89170336  1
  Te  Te177  1  0.94376731  0.77721127  0.21697480  1
  Te  Te178  1  0.92054901  0.75408427  0.58977301  1
  Te  Te179  1  0.91604526  0.73276003  0.91467709  1
