# generated using pymatgen
data_In2Te3
_symmetry_space_group_name_H-M   'P 1'
_cell_length_a   18.81321802
_cell_length_b   18.80673711
_cell_length_c   18.79905271
_cell_angle_alpha   90.05819471
_cell_angle_beta   90.04617362
_cell_angle_gamma   89.98438270
_symmetry_Int_Tables_number   1
_chemical_formula_structural   In2Te3
_chemical_formula_sum   'In72 Te108'
_cell_volume   6651.38561381
_cell_formula_units_Z   36
loop_
 _symmetry_equiv_pos_site_id
 _symmetry_equiv_pos_as_xyz
  1  'x, y, z'
loop_
 _atom_site_type_symbol
 _atom_site_label
 _atom_site_symmetry_multiplicity
 _atom_site_fract_x
 _atom_site_fract_y
 _atom_site_fract_z
 _atom_site_occupancy
  In  In0  1  -0.00359986  0.51324872  0.17497119  1
  In  In1  1  0.65155690  0.32754847  0.66897478  1
  In  In2  1  0.51260378  0.14655419  0.00785997  1
  In  In3  1  0.35510085  0.32851457  0.66237206  1
  In  In4  1  0.82752324  0.52247375  0.01633771  1
  In  In5  1  0.29735776  0.67276452  0.65942401  1
  In  In6  1  0.16312134  0.69276932  0.16126593  1
  In  In7  1  -0.00711757  0.70789975  0.31034107  1
  In  In8  1  0.48253918  0.34884205  0.49513906  1
  In  In9  1  0.50367750  0.34195801  0.82825131  1
  In  In10  1  -0.02343250  0.32992908  0.65567740  1
  In  In11  1  -0.00823251  0.32287869  0.01643294  1
  In  In12  1  0.33656894  0.66993636  0.01762909  1
  In  In13  1  0.49176283  0.32367791  0.16606709  1
  In  In14  1  0.31695616  0.01348015  0.00273829  1
  In  In15  1  0.65316403  0.33603378  0.01653271  1
  In  In16  1  0.66132500  0.50413376  0.17657061  1
  In  In17  1  0.49721604  0.49276199  0.67693740  1
  In  In18  1  0.16764810  0.34210026  0.84275585  1
  In  In19  1  0.84873146  -0.01584916  0.81637939  1
  In  In20  1  0.68016254  -0.00610698  0.66078633  1
  In  In21  1  0.66409170  0.84535510  0.84744677  1
  In  In22  1  0.69790945  -0.02386410  0.03133780  1
  In  In23  1  0.02611310  0.68747587  0.68280102  1
  In  In24  1  0.01664015  0.13324585  0.81452013  1
  In  In25  1  0.16466898  0.33511031  0.47375997  1
  In  In26  1  0.83660375  0.84674807  0.65841875  1
  In  In27  1  0.16947064  0.16611027  0.33425332  1
  In  In28  1  0.48611675  0.52211730  0.34256467  1
  In  In29  1  0.14952312  0.83567586  0.00231518  1
  In  In30  1  0.32905204  0.50761823  0.48256900  1
  In  In31  1  0.85341108  0.69144897  0.86898491  1
  In  In32  1  0.00699098  0.34087401  0.33618443  1
  In  In33  1  0.84406047  0.33394521  0.49201871  1
  In  In34  1  -0.00261964  -0.04111112  0.33079704  1
  In  In35  1  0.66530307  0.65895131  0.66277018  1
  In  In36  1  0.81766263  0.16211844  0.00778692  1
  In  In37  1  0.83401812  0.67532941  0.49919677  1
  In  In38  1  0.50465521  0.16006691  0.32191356  1
  In  In39  1  0.31089380  0.65889724  0.32361042  1
  In  In40  1  0.50740507  0.83134644  0.30655358  1
  In  In41  1  0.30734364  0.84657440  0.82867132  1
  In  In42  1  0.50324385  0.50347565  0.01804012  1
  In  In43  1  0.84312818  0.48059229  0.65716496  1
  In  In44  1  -0.01590926  0.14722179  0.49308235  1
  In  In45  1  0.50869606  0.69506431  0.86125340  1
  In  In46  1  0.19672240  0.15514202  -0.00735486  1
  In  In47  1  0.83073153  0.51473682  0.33558781  1
  In  In48  1  0.31668044  0.35259308  0.01232688  1
  In  In49  1  0.17234245  0.53358586  0.65431567  1
  In  In50  1  0.00582458  0.52744030  0.81920761  1
  In  In51  1  0.51455321  0.67156654  0.49286186  1
  In  In52  1  0.84159616  0.13328316  0.65323392  1
  In  In53  1  0.82722256  0.34230403  0.84767945  1
  In  In54  1  0.33667094  0.15880965  0.85782470  1
  In  In55  1  0.50613768  0.82763070  0.02899880  1
  In  In56  1  0.15479740  -0.01547485  0.17469130  1
  In  In57  1  0.31036572  -0.01087156  0.67421003  1
  In  In58  1  0.51354204  0.00353340  0.48549657  1
  In  In59  1  0.19362104  0.35360265  0.20367869  1
  In  In60  1  0.50477204  0.81224713  0.64870322  1
  In  In61  1  -0.02516623  -0.04677292  0.01384796  1
  In  In62  1  0.68682592  0.69039438  0.31623870  1
  In  In63  1  0.69705513  0.31018486  0.30501722  1
  In  In64  1  0.48656420  0.01614495  0.84442605  1
  In  In65  1  0.16802778  0.14336264  0.66409853  1
  In  In66  1  0.68800169  -0.00812228  0.32068736  1
  In  In67  1  0.67464143  0.14704309  0.47453121  1
  In  In68  1  -0.01483695  0.12757861  0.17082834  1
  In  In69  1  0.30449763  0.83290593  0.49473685  1
  In  In70  1  0.13503408  0.53516774  0.00388069  1
  In  In71  1  0.34193795  -0.01583896  0.33208334  1
  Te  Te72  1  0.08390340  0.07213464  0.06666936  1
  Te  Te73  1  0.08143471  0.06753594  0.40813507  1
  Te  Te74  1  0.05923537  0.04736079  0.70127801  1
  Te  Te75  1  0.09160700  0.41044196  0.09324316  1
  Te  Te76  1  0.10272792  0.44038140  0.39120724  1
  Te  Te77  1  0.07651085  0.41347775  0.74059678  1
  Te  Te78  1  0.04762398  0.74943158  0.07904865  1
  Te  Te79  1  0.09167442  0.78909428  0.39783895  1
  Te  Te80  1  0.08821570  0.79350519  0.76529455  1
  Te  Te81  1  0.41151998  0.08148323  0.09252560  1
  Te  Te82  1  0.40847668  0.09015678  0.42098969  1
  Te  Te83  1  0.40779363  0.09079209  0.73884913  1
  Te  Te84  1  0.40211148  0.43413905  0.10900827  1
  Te  Te85  1  0.38642659  0.40285108  0.38320644  1
  Te  Te86  1  0.39345989  0.43014936  0.76957648  1
  Te  Te87  1  0.41617180  0.74652471  0.11584082  1
  Te  Te88  1  0.41650808  0.75724369  0.41464029  1
  Te  Te89  1  0.40864263  0.75057582  0.74999927  1
  Te  Te90  1  0.75540397  0.08393555  0.12122238  1
  Te  Te91  1  0.78020463  0.06388674  0.41483611  1
  Te  Te92  1  0.74692599  0.08580093  0.76305855  1
  Te  Te93  1  0.75747640  0.41306832  0.09635830  1
  Te  Te94  1  0.74379766  0.41249104  0.40918943  1
  Te  Te95  1  0.73866262  0.42362979  0.75357680  1
  Te  Te96  1  0.78769750  0.79716743  0.10753246  1
  Te  Te97  1  0.76892238  0.77259531  0.40843188  1
  Te  Te98  1  0.74636161  0.75633465  0.75267072  1
  Te  Te99  1  0.07897699  0.24473710  0.23580743  1
  Te  Te100  1  0.07647215  0.24494077  0.57731047  1
  Te  Te101  1  0.07883707  0.24210975  0.91822450  1
  Te  Te102  1  0.08991110  0.59803749  0.25796069  1
  Te  Te103  1  0.06782469  0.59654558  0.57321334  1
  Te  Te104  1  0.06881225  0.62839231  0.90812075  1
  Te  Te105  1  0.07517154  0.87338971  0.23420252  1
  Te  Te106  1  0.08399668  0.87504128  0.52364784  1
  Te  Te107  1  0.07301691  0.92166002  0.90725627  1
  Te  Te108  1  0.40363697  0.23849497  0.24711963  1
  Te  Te109  1  0.42659995  0.23727438  0.57328427  1
  Te  Te110  1  0.42027035  0.26260116  0.94019424  1
  Te  Te111  1  0.42399345  0.60792625  0.24089939  1
  Te  Te112  1  0.41971138  0.59126002  0.58540747  1
  Te  Te113  1  0.41903210  0.58633194  0.91965922  1
  Te  Te114  1  0.43148561  0.93151321  0.22585450  1
  Te  Te115  1  0.41582255  0.91385258  0.57706059  1
  Te  Te116  1  0.41663843  0.90526108  0.92308613  1
  Te  Te117  1  0.75356544  0.20302914  0.22624058  1
  Te  Te118  1  0.76159869  0.24639105  0.58709258  1
  Te  Te119  1  0.72936524  0.24754926  0.91597993  1
  Te  Te120  1  0.77193571  0.59945792  0.22494961  1
  Te  Te121  1  0.74995440  0.56947946  0.57269816  1
  Te  Te122  1  0.75321229  0.59241544  0.91107776  1
  Te  Te123  1  0.75702232  0.88452898  0.23512227  1
  Te  Te124  1  0.75887650  0.92419873  0.55888637  1
  Te  Te125  1  0.78184611  0.90051067  0.92656706  1
  Te  Te126  1  0.25032218  0.24849468  0.10049024  1
  Te  Te127  1  0.26174473  0.23766683  0.42514122  1
  Te  Te128  1  0.24962938  0.24595994  0.75659839  1
  Te  Te129  1  0.24499104  0.57848148  0.09981583  1
  Te  Te130  1  0.23249575  0.60864813  0.43826965  1
  Te  Te131  1  0.23834344  0.59543510  0.77001818  1
  Te  Te132  1  0.25499176  0.90433714  0.08844399  1
  Te  Te133  1  0.22675614  0.91584846  0.39807382  1
  Te  Te134  1  0.20810697  0.88907071  0.72377341  1
  Te  Te135  1  0.59589294  0.22843454  0.10682994  1
  Te  Te136  1  0.59048557  0.25912791  0.41522136  1
  Te  Te137  1  0.57265442  0.23641726  0.75322260  1
  Te  Te138  1  0.59157119  0.59969047  0.08803576  1
  Te  Te139  1  0.60669252  0.58733866  0.40704000  1
  Te  Te140  1  0.57458349  0.59195911  0.76429181  1
  Te  Te141  1  0.58021529  0.92910016  0.10970324  1
  Te  Te142  1  0.59573151  0.90402975  0.40886572  1
  Te  Te143  1  0.56812296  0.91463151  0.74695816  1
  Te  Te144  1  0.90177995  0.24559107  0.10797562  1
  Te  Te145  1  0.90903117  0.23761840  0.39454011  1
  Te  Te146  1  0.91158531  0.24239537  0.76301286  1
  Te  Te147  1  0.92980162  0.60745204  0.08157869  1
  Te  Te148  1  0.93249329  0.60178763  0.40627883  1
  Te  Te149  1  0.89940280  0.60122333  0.73701815  1
  Te  Te150  1  0.88699973  0.91474639  0.12994290  1
  Te  Te151  1  0.95390426  0.86993715  0.44519393  1
  Te  Te152  1  0.94394282  0.88519666  0.75717538  1
  Te  Te153  1  0.25272520  0.07840350  0.24131896  1
  Te  Te154  1  0.24380185  0.06439597  0.56647981  1
  Te  Te155  1  0.22819744  0.05398443  0.88155467  1
  Te  Te156  1  0.26247393  0.44496737  0.29362759  1
  Te  Te157  1  0.25188549  0.41399491  0.58644901  1
  Te  Te158  1  0.23889825  0.44805804  0.92269096  1
  Te  Te159  1  0.24887306  0.77258749  0.25177775  1
  Te  Te160  1  0.20443521  0.75700431  0.57683686  1
  Te  Te161  1  0.24343631  0.74419973  0.92142374  1
  Te  Te162  1  0.58162172  0.06115303  0.24304433  1
  Te  Te163  1  0.58728102  0.09131349  0.58667853  1
  Te  Te164  1  0.60605813  0.05811544  0.92727265  1
  Te  Te165  1  0.57628915  0.41113311  0.26287509  1
  Te  Te166  1  0.58810656  0.42872748  0.57249857  1
  Te  Te167  1  0.59187897  0.43148978  0.91507308  1
  Te  Te168  1  0.58542070  0.73926214  0.21886043  1
  Te  Te169  1  0.61777748  0.76311004  0.56108526  1
  Te  Te170  1  0.61634798  0.74851267  0.95535629  1
  Te  Te171  1  0.90351529  0.06165208  0.27530556  1
  Te  Te172  1  0.93317417  0.03951542  0.58452978  1
  Te  Te173  1  0.91802401  0.08225034  0.92421463  1
  Te  Te174  1  0.90604594  0.41377504  0.24739670  1
  Te  Te175  1  0.94295187  0.43453796  0.54935632  1
  Te  Te176  1  0.93257447  0.42779428  0.92066107  1
  Te  Te177  1  0.87942598  0.77960689  0.23722491  1
  Te  Te178  1  0.93576553  0.75937231  0.57764409  1
  Te  Te179  1  0.95572266  0.75922939  0.95020821  1
