# generated using pymatgen
data_In2Te3
_symmetry_space_group_name_H-M   'P 1'
_cell_length_a   18.75544711
_cell_length_b   18.76444428
_cell_length_c   18.76470250
_cell_angle_alpha   90.04148880
_cell_angle_beta   90.06358947
_cell_angle_gamma   89.93547609
_symmetry_Int_Tables_number   1
_chemical_formula_structural   In2Te3
_chemical_formula_sum   'In72 Te108'
_cell_volume   6603.95577019
_cell_formula_units_Z   36
loop_
 _symmetry_equiv_pos_site_id
 _symmetry_equiv_pos_as_xyz
  1  'x, y, z'
loop_
 _atom_site_type_symbol
 _atom_site_label
 _atom_site_symmetry_multiplicity
 _atom_site_fract_x
 _atom_site_fract_y
 _atom_site_fract_z
 _atom_site_occupancy
  In  In0  1  0.34329532  0.65784447  0.64972003  1
  In  In1  1  0.20044160  -0.02987798  0.44689530  1
  In  In2  1  0.48347344  0.35365631  0.47042059  1
  In  In3  1  0.17611084  0.51494031  0.65666104  1
  In  In4  1  0.66241752  0.50369816  0.82473092  1
  In  In5  1  0.65628668  0.63753356  0.00569665  1
  In  In6  1  0.65591093  0.18540414  0.48703614  1
  In  In7  1  0.00965731  0.33841832  0.01317265  1
  In  In8  1  0.51202812  0.34276363  0.81874569  1
  In  In9  1  0.82713631  0.01718071  0.17000243  1
  In  In10  1  0.50562320  -0.01725441  0.82187504  1
  In  In11  1  0.18019605  0.15545309  0.67729895  1
  In  In12  1  0.33447826  0.32863049  0.00619064  1
  In  In13  1  0.80938036  0.16055610  0.00874336  1
  In  In14  1  0.17326540  0.50296351  0.33645538  1
  In  In15  1  0.50101950  0.17546332  0.03280210  1
  In  In16  1  -0.00525466  0.65447044  0.00524457  1
  In  In17  1  0.34145954  0.83405783  0.16847842  1
  In  In18  1  0.35827698  -0.01323403  0.65362578  1
  In  In19  1  0.16945428  0.35297622  0.17338436  1
  In  In20  1  0.00551822  0.17687631  0.18308843  1
  In  In21  1  0.50447632  0.65868367  0.48122999  1
  In  In22  1  0.47830781  0.82865762  -0.00330683  1
  In  In23  1  0.79185334  0.78725526  0.68035017  1
  In  In24  1  0.64243767  0.83290254  0.50011240  1
  In  In25  1  0.16694977  0.17246614  0.32682724  1
  In  In26  1  0.49377943  -0.00600748  0.47830537  1
  In  In27  1  0.66956406  0.17701261  0.84594279  1
  In  In28  1  0.65291133  0.80732685  0.16844455  1
  In  In29  1  0.31922548  0.67275019  0.01090586  1
  In  In30  1  0.15938297  0.81675482  0.67179482  1
  In  In31  1  0.80581047  0.34974852  0.18395733  1
  In  In32  1  0.84294869  -0.01193519  0.85092156  1
  In  In33  1  0.50721893  0.01669086  0.19713514  1
  In  In34  1  -0.02675361  0.33717365  0.66491879  1
  In  In35  1  0.01674230  0.82637462  0.18970362  1
  In  In36  1  0.15659320  0.33670510  0.85536963  1
  In  In37  1  0.51537414  0.35362145  0.18764924  1
  In  In38  1  0.33183732  0.81510388  0.84246211  1
  In  In39  1  0.82468768  0.49901250  0.66801967  1
  In  In40  1  -0.01100190  0.18996654  0.47305886  1
  In  In41  1  0.32911744  0.14050813  0.83623123  1
  In  In42  1  0.65832746  0.65931989  0.32739648  1
  In  In43  1  0.16592546  0.01035440  0.84264985  1
  In  In44  1  -0.00712430  0.51104765  0.83737429  1
  In  In45  1  0.16532297  0.66662162  0.50163931  1
  In  In46  1  0.34572545  0.18737695  0.17895767  1
  In  In47  1  0.81243971  0.19039201  0.67208838  1
  In  In48  1  0.50066368  0.50283641  0.02001963  1
  In  In49  1  0.68599691  -0.00578615  0.01058805  1
  In  In50  1  0.81786650  0.83116817  -0.01326149  1
  In  In51  1  0.32682181  0.47763551  0.82552268  1
  In  In52  1  0.82570790  0.65584907  0.51653167  1
  In  In53  1  0.84247804  0.84039449  0.32338577  1
  In  In54  1  -0.00210050  0.66932004  0.33879065  1
  In  In55  1  0.50879208  0.65402177  0.81751436  1
  In  In56  1  0.01208504  0.82442126  0.81667050  1
  In  In57  1  0.16907886  0.66217964  0.16361583  1
  In  In58  1  0.65857348  -0.01736793  0.65603302  1
  In  In59  1  0.18432660  -0.02468351  0.17281209  1
  In  In60  1  0.36415244  0.65992344  0.31276607  1
  In  In61  1  0.34866338  0.16538647  0.48954665  1
  In  In62  1  0.65640574  0.35063948  0.64820649  1
  In  In63  1  0.16675438  0.34036223  0.49587554  1
  In  In64  1  0.80941540  0.49108163  0.33823315  1
  In  In65  1  0.82300429  0.02056420  0.48964552  1
  In  In66  1  0.81734037  0.18260313  0.32824230  1
  In  In67  1  0.01664204  0.00519624  0.66296608  1
  In  In68  1  0.00201775  0.00293894  0.00831388  1
  In  In69  1  -0.01570333  0.81705862  0.49610012  1
  In  In70  1  0.82685033  0.49602281  0.00535160  1
  In  In71  1  0.34800910  0.34475743  0.65493498  1
  Te  Te72  1  0.09170986  0.08295675  0.10074481  1
  Te  Te73  1  0.09245711  0.08687703  0.42817822  1
  Te  Te74  1  0.06858952  0.10335575  0.76817905  1
  Te  Te75  1  0.08577707  0.44033013  0.08762331  1
  Te  Te76  1  0.07653428  0.42930714  0.42137880  1
  Te  Te77  1  0.09216046  0.41419522  0.73991147  1
  Te  Te78  1  0.08800593  0.75876831  0.07598828  1
  Te  Te79  1  0.09598222  0.76519337  0.40531405  1
  Te  Te80  1  0.08254407  0.71551388  0.74493623  1
  Te  Te81  1  0.40785768  0.07284104  0.09281134  1
  Te  Te82  1  0.42541328  0.09147464  0.38754914  1
  Te  Te83  1  0.43377084  0.09037687  0.73741140  1
  Te  Te84  1  0.40271754  0.42148112  0.10539501  1
  Te  Te85  1  0.38898850  0.41095688  0.37238264  1
  Te  Te86  1  0.44000560  0.44300195  0.72894507  1
  Te  Te87  1  0.43072042  0.72851522  0.10002362  1
  Te  Te88  1  0.41338255  0.76107796  0.41527451  1
  Te  Te89  1  0.42463321  0.75565857  0.73849454  1
  Te  Te90  1  0.70813994  0.10841784  0.11498794  1
  Te  Te91  1  0.72069582  0.07754425  0.39584742  1
  Te  Te92  1  0.74863310  0.07248966  0.75015851  1
  Te  Te93  1  0.72354199  0.43337911  0.09143428  1
  Te  Te94  1  0.76816068  0.38077363  0.43073410  1
  Te  Te95  1  0.75081418  0.39760593  0.75852151  1
  Te  Te96  1  0.75324566  0.73149726  0.08188784  1
  Te  Te97  1  0.75796889  0.75414409  0.41825702  1
  Te  Te98  1  0.73099880  0.71257304  0.78994597  1
  Te  Te99  1  0.07472839  0.28051935  0.27040705  1
  Te  Te100  1  0.08759348  0.24154012  0.58906532  1
  Te  Te101  1  0.08700467  0.23655708  0.93677619  1
  Te  Te102  1  0.07276608  0.57556951  0.24443698  1
  Te  Te103  1  0.07164742  0.58000109  0.57504911  1
  Te  Te104  1  0.09259651  0.57577679  0.92473431  1
  Te  Te105  1  0.08670585  0.92492748  0.27327340  1
  Te  Te106  1  0.09176239  0.91154339  0.56951761  1
  Te  Te107  1  0.08559267  0.90778961  0.92250818  1
  Te  Te108  1  0.44981975  0.24403148  0.27056721  1
  Te  Te109  1  0.43809151  0.24858147  0.58054158  1
  Te  Te110  1  0.42392350  0.25089304  0.90750093  1
  Te  Te111  1  0.46772304  0.56234301  0.25541371  1
  Te  Te112  1  0.41930423  0.56587131  0.56395139  1
  Te  Te113  1  0.41618272  0.57687068  0.91361710  1
  Te  Te114  1  0.41323846  0.92194797  0.26973786  1
  Te  Te115  1  0.43366209  0.89269884  0.57052041  1
  Te  Te116  1  0.39737019  0.93149563  0.91772585  1
  Te  Te117  1  0.70902214  0.26439066  0.26385096  1
  Te  Te118  1  0.76368913  0.27556762  0.55301729  1
  Te  Te119  1  0.74968947  0.26872777  0.92764776  1
  Te  Te120  1  0.74990675  0.58479451  0.23830948  1
  Te  Te121  1  0.72230422  0.57716713  0.58812110  1
  Te  Te122  1  0.76381375  0.59667689  0.89615356  1
  Te  Te123  1  0.73751239  0.91520092  0.24138518  1
  Te  Te124  1  0.76853875  0.90651898  0.57684508  1
  Te  Te125  1  0.72195902  0.90402517  0.89151610  1
  Te  Te126  1  0.23647800  0.24496093  0.08786001  1
  Te  Te127  1  0.26311917  0.26154913  0.40645594  1
  Te  Te128  1  0.26220932  0.26321780  0.75364330  1
  Te  Te129  1  0.26722607  0.56945304  0.10244853  1
  Te  Te130  1  0.26783376  0.59342056  0.41477018  1
  Te  Te131  1  0.25505673  0.59546169  0.75967817  1
  Te  Te132  1  0.25223995  0.89666337  0.06817525  1
  Te  Te133  1  0.31587294  0.89397209  0.39529922  1
  Te  Te134  1  0.24899253  0.92444504  0.74625152  1
  Te  Te135  1  0.58950217  0.28368632  0.07729986  1
  Te  Te136  1  0.57200351  0.26099425  0.38759567  1
  Te  Te137  1  0.58757318  0.24127688  0.73318362  1
  Te  Te138  1  0.57578927  0.58407721  0.12169816  1
  Te  Te139  1  0.59151554  0.55247492  0.41257621  1
  Te  Te140  1  0.60274576  0.59167802  0.71784497  1
  Te  Te141  1  0.57250497  0.91872294  0.08360773  1
  Te  Te142  1  0.58832551  0.91535427  0.39164364  1
  Te  Te143  1  0.57797525  0.88760780  0.73531836  1
  Te  Te144  1  0.90165315  0.24910096  0.09751813  1
  Te  Te145  1  0.90140214  0.28749034  0.39939466  1
  Te  Te146  1  0.91241129  0.24705580  0.76411300  1
  Te  Te147  1  0.91715170  0.56901261  0.09722440  1
  Te  Te148  1  0.91527506  0.57639597  0.42386054  1
  Te  Te149  1  0.91136072  0.59269257  0.74566867  1
  Te  Te150  1  0.90574119  0.91213597  0.08736283  1
  Te  Te151  1  0.92483307  0.93222033  0.41392479  1
  Te  Te152  1  0.91477227  0.91518274  0.73650122  1
  Te  Te153  1  0.26344288  0.08083960  0.25421775  1
  Te  Te154  1  0.25430367  0.07268427  0.57169731  1
  Te  Te155  1  0.24315146  0.08890794  0.94212704  1
  Te  Te156  1  0.27498231  0.41439337  0.26411756  1
  Te  Te157  1  0.26751148  0.43523960  0.56288673  1
  Te  Te158  1  0.23957070  0.43173778  0.94184767  1
  Te  Te159  1  0.24924140  0.75000411  0.25853623  1
  Te  Te160  1  0.26187211  0.76304032  0.57326106  1
  Te  Te161  1  0.22921978  0.73825621  0.91346343  1
  Te  Te162  1  0.61071539  0.11302251  0.23848870  1
  Te  Te163  1  0.58096905  0.08408714  0.57519028  1
  Te  Te164  1  0.58008910  0.08129742  0.92682046  1
  Te  Te165  1  0.57239373  0.45283953  0.28783800  1
  Te  Te166  1  0.57632510  0.43514925  0.55671597  1
  Te  Te167  1  0.58939817  0.41649862  0.92767049  1
  Te  Te168  1  0.56039623  0.75646088  0.27124780  1
  Te  Te169  1  0.59293375  0.72392987  0.58508438  1
  Te  Te170  1  0.57962275  0.74262728  0.92145062  1
  Te  Te171  1  0.92239428  0.08235290  0.26944780  1
  Te  Te172  1  0.91488042  0.09935733  0.58374204  1
  Te  Te173  1  0.91977430  0.09887449  0.92145282  1
  Te  Te174  1  0.91319911  0.42427629  0.25220459  1
  Te  Te175  1  0.91279914  0.42908746  0.56864608  1
  Te  Te176  1  0.91345495  0.40679220  0.91463639  1
  Te  Te177  1  0.90470026  0.73333673  0.23418224  1
  Te  Te178  1  0.91918591  0.73722898  0.60751083  1
  Te  Te179  1  0.91621352  0.74677821  0.90794388  1
