# generated using pymatgen
data_In2Te3
_symmetry_space_group_name_H-M   'P 1'
_cell_length_a   18.76215249
_cell_length_b   18.75424546
_cell_length_c   18.76105244
_cell_angle_alpha   90.06177589
_cell_angle_beta   89.95078925
_cell_angle_gamma   90.00360693
_symmetry_Int_Tables_number   1
_chemical_formula_structural   In2Te3
_chemical_formula_sum   'In72 Te108'
_cell_volume   6601.44548331
_cell_formula_units_Z   36
loop_
 _symmetry_equiv_pos_site_id
 _symmetry_equiv_pos_as_xyz
  1  'x, y, z'
loop_
 _atom_site_type_symbol
 _atom_site_label
 _atom_site_symmetry_multiplicity
 _atom_site_fract_x
 _atom_site_fract_y
 _atom_site_fract_z
 _atom_site_occupancy
  In  In0  1  0.66009923  0.18688816  0.51561176  1
  In  In1  1  0.16281568  0.17346539  -0.01247275  1
  In  In2  1  0.66037702  0.83553310  0.48843098  1
  In  In3  1  0.18277643  0.02734235  0.54901423  1
  In  In4  1  0.67471401  0.15871431  0.15245156  1
  In  In5  1  0.80490799  0.49307779  0.01085639  1
  In  In6  1  0.49903155  0.00161567  0.84763869  1
  In  In7  1  0.51659244  0.49639391  0.32061389  1
  In  In8  1  -0.02869027  0.32157084  0.33098387  1
  In  In9  1  0.65473068  0.67810370  0.32997487  1
  In  In10  1  0.33034674  0.31926609  0.31726807  1
  In  In11  1  -0.04037715  0.17435795  0.14668169  1
  In  In12  1  0.14929479  0.30348579  0.82430046  1
  In  In13  1  0.36494078  0.65599916  0.33167216  1
  In  In14  1  0.35553977  0.33916768  -0.00733573  1
  In  In15  1  0.16519068  0.17643610  0.35282469  1
  In  In16  1  -0.02817224  0.01655027  0.31632671  1
  In  In17  1  0.37042313  0.15954997  0.15459829  1
  In  In18  1  0.65083453  0.02173949  0.66475495  1
  In  In19  1  0.83498291  0.65636165  0.82218450  1
  In  In20  1  0.15242159  0.03627764  0.77842274  1
  In  In21  1  0.33757606  0.49480505  0.52076579  1
  In  In22  1  0.50104099  0.83769867  0.65677562  1
  In  In23  1  0.02492997  0.67449069  0.32435964  1
  In  In24  1  0.33923701  0.66208542  0.67229486  1
  In  In25  1  -0.00813145  0.17749739  0.48908550  1
  In  In26  1  0.35905146  0.67328690  -0.00217097  1
  In  In27  1  0.82970833  0.48950101  0.33694542  1
  In  In28  1  -0.02420305  -0.01538036  -0.00549808  1
  In  In29  1  0.18162707  0.82586716  -0.00917383  1
  In  In30  1  0.66362185  0.33336658  0.66791346  1
  In  In31  1  0.65222573  0.66083807  0.00005335  1
  In  In32  1  0.80356202  0.65026232  0.52792497  1
  In  In33  1  0.49112043  0.31689495  0.51715746  1
  In  In34  1  0.82290384  0.32252413  0.82029039  1
  In  In35  1  0.49346911  0.31907776  0.83176450  1
  In  In36  1  0.50708178  0.48843230  0.00737019  1
  In  In37  1  -0.01274147  0.33056248  0.65655657  1
  In  In38  1  0.66299388  0.33311858  0.00664152  1
  In  In39  1  0.34843363  0.84759677  0.49449649  1
  In  In40  1  0.82920250  0.66402297  0.17920970  1
  In  In41  1  0.82336498  0.00243740  0.83767803  1
  In  In42  1  0.17054184  0.82885675  0.34424266  1
  In  In43  1  0.84153099  0.01961826  0.50183313  1
  In  In44  1  0.34267828  0.49405945  0.82566303  1
  In  In45  1  0.33884338  0.83628647  0.82888724  1
  In  In46  1  0.16888064  0.49340526  0.33390693  1
  In  In47  1  -0.01290567  0.49910753  0.83441882  1
  In  In48  1  0.14901113  0.49057235  0.00668636  1
  In  In49  1  0.16467230  0.34738063  0.17170047  1
  In  In50  1  0.36764253  0.83761012  0.17480333  1
  In  In51  1  0.64944199  0.86049855  0.16463363  1
  In  In52  1  0.68433912  0.33254298  0.32697476  1
  In  In53  1  0.16870547  0.00710905  0.17813988  1
  In  In54  1  0.35760699  0.02283381  0.00624581  1
  In  In55  1  0.83437080  0.86837036  0.00996903  1
  In  In56  1  0.37188318  0.02546430  0.36123509  1
  In  In57  1  -0.01165543  0.65401820  -0.00782217  1
  In  In58  1  0.82600594  0.83437229  0.69382252  1
  In  In59  1  0.69360722  0.82671405  0.85829997  1
  In  In60  1  0.65965397  -0.00086347  0.32911405  1
  In  In61  1  0.16043387  0.84661011  0.66403834  1
  In  In62  1  -0.02630091  0.49376785  0.51199833  1
  In  In63  1  0.48489483  0.65205611  0.48924136  1
  In  In64  1  0.00890656  0.83835963  0.81679007  1
  In  In65  1  0.34628596  0.16953477  0.82755140  1
  In  In66  1  0.18259571  0.33684204  0.51268459  1
  In  In67  1  0.17414543  0.63807197  0.16358526  1
  In  In68  1  0.14079517  0.66799672  0.50161200  1
  In  In69  1  -0.02826313  0.84501392  0.13491416  1
  In  In70  1  0.66181856  0.18015867  0.83395615  1
  In  In71  1  -0.00074701  0.65681288  0.66090001  1
  Te  Te72  1  0.07364225  0.08044420  0.08462951  1
  Te  Te73  1  0.08081432  0.06724290  0.41663272  1
  Te  Te74  1  0.04964797  0.12098845  0.71539960  1
  Te  Te75  1  0.05812888  0.39074118  0.07342483  1
  Te  Te76  1  0.07775762  0.40385497  0.41838208  1
  Te  Te77  1  0.07934914  0.41527884  0.74560775  1
  Te  Te78  1  0.08648466  0.74427039  0.08216194  1
  Te  Te79  1  0.05894737  0.77768872  0.43630209  1
  Te  Te80  1  0.09777691  0.73516108  0.74883224  1
  Te  Te81  1  0.46765219  0.04820411  0.10883243  1
  Te  Te82  1  0.44225035  0.11384667  0.45784739  1
  Te  Te83  1  0.42444803  0.07517150  0.74306534  1
  Te  Te84  1  0.43530227  0.39674211  0.10127038  1
  Te  Te85  1  0.41129386  0.41927769  0.41098130  1
  Te  Te86  1  0.41443855  0.40016628  0.73585872  1
  Te  Te87  1  0.44899303  0.74823670  0.08923080  1
  Te  Te88  1  0.43987018  0.76942051  0.40018826  1
  Te  Te89  1  0.43747972  0.74191030  0.75858268  1
  Te  Te90  1  0.76025148  0.06303265  0.07245299  1
  Te  Te91  1  0.73994900  0.09567579  0.42011158  1
  Te  Te92  1  0.75606010  0.10073755  0.74009615  1
  Te  Te93  1  0.73711942  0.40937234  0.11260792  1
  Te  Te94  1  0.74976307  0.41289545  0.43481542  1
  Te  Te95  1  0.73834958  0.42810879  0.75793267  1
  Te  Te96  1  0.75647708  0.75320603  0.07728174  1
  Te  Te97  1  0.76163405  0.74739460  0.41512313  1
  Te  Te98  1  0.72297460  0.72670653  0.73483863  1
  Te  Te99  1  0.07925106  0.23729573  0.24302951  1
  Te  Te100  1  0.09422514  0.23791534  0.58956700  1
  Te  Te101  1  0.05030916  0.23701907  0.91413813  1
  Te  Te102  1  0.06788564  0.55530909  0.23652267  1
  Te  Te103  1  0.09196618  0.55493705  0.58897761  1
  Te  Te104  1  0.09212140  0.58803663  0.90294152  1
  Te  Te105  1  0.07690018  0.90599686  0.24558766  1
  Te  Te106  1  0.07518588  0.92944844  0.57788471  1
  Te  Te107  1  0.09556995  0.92351452  0.90992941  1
  Te  Te108  1  0.43994917  0.24038661  0.25675400  1
  Te  Te109  1  0.40082960  0.21597252  0.58061456  1
  Te  Te110  1  0.43765182  0.22275143  0.93943142  1
  Te  Te111  1  0.43926533  0.58474067  0.22729308  1
  Te  Te112  1  0.44099437  0.56627435  0.60826062  1
  Te  Te113  1  0.43974744  0.58151652  0.90383438  1
  Te  Te114  1  0.43703796  0.93551314  0.26182880  1
  Te  Te115  1  0.41294366  0.93735278  0.59243199  1
  Te  Te116  1  0.42352423  0.90160797  0.93780067  1
  Te  Te117  1  0.76935164  0.24210856  0.23938742  1
  Te  Te118  1  0.76840914  0.25462101  0.59304239  1
  Te  Te119  1  0.76155170  0.23927252  0.93383237  1
  Te  Te120  1  0.73220847  0.57211593  0.24925991  1
  Te  Te121  1  0.72634180  0.55177990  0.60779720  1
  Te  Te122  1  0.73425278  0.57414739  0.90203172  1
  Te  Te123  1  0.75342917  0.90517787  0.25991478  1
  Te  Te124  1  0.74616210  0.91768932  0.59078584  1
  Te  Te125  1  0.72243112  0.95704267  0.94698317  1
  Te  Te126  1  0.25269703  0.24492102  0.08958728  1
  Te  Te127  1  0.27388313  0.23975534  0.43589072  1
  Te  Te128  1  0.25040209  0.23785919  0.73450761  1
  Te  Te129  1  0.26742053  0.56679943  0.06769377  1
  Te  Te130  1  0.25078592  0.59420037  0.41780747  1
  Te  Te131  1  0.24661342  0.57281328  0.74386009  1
  Te  Te132  1  0.25827267  0.91902415  0.08790855  1
  Te  Te133  1  0.24908393  0.93815216  0.41757579  1
  Te  Te134  1  0.26284248  0.93122210  0.73785933  1
  Te  Te135  1  0.57228724  0.24321295  0.08205307  1
  Te  Te136  1  0.57586317  0.25397193  0.40653531  1
  Te  Te137  1  0.56443945  0.23049743  0.72855177  1
  Te  Te138  1  0.58438069  0.57628226  0.09988575  1
  Te  Te139  1  0.59866291  0.57197128  0.42602167  1
  Te  Te140  1  0.63533569  0.59811019  0.71438482  1
  Te  Te141  1  0.57629821  0.94368660  0.06772530  1
  Te  Te142  1  0.56584869  0.92639173  0.42178087  1
  Te  Te143  1  0.60150684  0.91104721  0.75923497  1
  Te  Te144  1  0.93603180  0.29112086  0.06192366  1
  Te  Te145  1  0.88098745  0.25679238  0.42975569  1
  Te  Te146  1  0.92919467  0.23446202  0.75719577  1
  Te  Te147  1  0.91479176  0.56969357  0.09167446  1
  Te  Te148  1  0.91992065  0.59788166  0.41513755  1
  Te  Te149  1  0.89960846  0.55917771  0.72372022  1
  Te  Te150  1  0.87568396  0.97055383  0.12219231  1
  Te  Te151  1  0.90249700  0.92305952  0.40685072  1
  Te  Te152  1  0.92726913  0.93874376  0.73945789  1
  Te  Te153  1  0.26476420  0.09396362  0.25828183  1
  Te  Te154  1  0.27710616  0.12144755  0.61229794  1
  Te  Te155  1  0.24646537  0.06866827  0.90921280  1
  Te  Te156  1  0.27154423  0.43671680  0.23658438  1
  Te  Te157  1  0.26176420  0.40992900  0.61508924  1
  Te  Te158  1  0.23910615  0.39994766  0.91519290  1
  Te  Te159  1  0.25264155  0.74520866  0.24357848  1
  Te  Te160  1  0.25387021  0.75221923  0.57210843  1
  Te  Te161  1  0.25378378  0.72892936  0.89890835  1
  Te  Te162  1  0.57802952  0.09660544  0.25056889  1
  Te  Te163  1  0.56368330  0.07369864  0.55326701  1
  Te  Te164  1  0.58338322  0.09441723  0.92715870  1
  Te  Te165  1  0.59464470  0.40531626  0.23198445  1
  Te  Te166  1  0.58013009  0.41830061  0.57737309  1
  Te  Te167  1  0.58953539  0.41554995  0.89917453  1
  Te  Te168  1  0.56978403  0.75650612  0.23742603  1
  Te  Te169  1  0.58245536  0.73682546  0.57607245  1
  Te  Te170  1  0.57756770  0.75513397  0.91308727  1
  Te  Te171  1  0.88196702  0.12762187  0.26794839  1
  Te  Te172  1  0.93064036  0.09201078  0.59797046  1
  Te  Te173  1  0.91712877  0.09145139  0.91205607  1
  Te  Te174  1  0.90169213  0.40849350  0.23472757  1
  Te  Te175  1  0.88055760  0.39292022  0.57003944  1
  Te  Te176  1  0.90392648  0.41128995  0.92361382  1
  Te  Te177  1  0.91875941  0.76131749  0.25409163  1
  Te  Te178  1  0.90409048  0.75217595  0.58939536  1
  Te  Te179  1  0.91040983  0.76587929  0.91172976  1
