# generated using pymatgen
data_In2Te3
_symmetry_space_group_name_H-M   'P 1'
_cell_length_a   19.03278490
_cell_length_b   19.02947797
_cell_length_c   18.99817636
_cell_angle_alpha   90.09528738
_cell_angle_beta   89.85002806
_cell_angle_gamma   90.19856435
_symmetry_Int_Tables_number   1
_chemical_formula_structural   In2Te3
_chemical_formula_sum   'In72 Te108'
_cell_volume   6880.76046120
_cell_formula_units_Z   36
loop_
 _symmetry_equiv_pos_site_id
 _symmetry_equiv_pos_as_xyz
  1  'x, y, z'
loop_
 _atom_site_type_symbol
 _atom_site_label
 _atom_site_symmetry_multiplicity
 _atom_site_fract_x
 _atom_site_fract_y
 _atom_site_fract_z
 _atom_site_occupancy
  In  In0  1  0.15343713  0.50458077  0.66309282  1
  In  In1  1  0.18231545  0.31113280  0.82592339  1
  In  In2  1  0.67419495  0.03959906  0.32876579  1
  In  In3  1  0.33915369  0.35998381  0.00693426  1
  In  In4  1  0.84258237  0.67947345  0.52640376  1
  In  In5  1  0.17713204  0.20946679  0.34507710  1
  In  In6  1  -0.00386802  0.16816444  0.48887893  1
  In  In7  1  0.64425107  0.67219817  0.64252574  1
  In  In8  1  -0.00155251  0.81963797  0.14341558  1
  In  In9  1  0.66372732  0.00148739  0.68404644  1
  In  In10  1  0.67011329  0.81246364  0.18504339  1
  In  In11  1  0.83272141  0.83489148  -0.02245620  1
  In  In12  1  0.01842127  0.34853891  0.33392663  1
  In  In13  1  0.14576678  0.01811677  0.85892650  1
  In  In14  1  0.32236112  0.81512877  0.80062009  1
  In  In15  1  0.72395525  0.17675212  0.14208416  1
  In  In16  1  0.86687935  0.66320531  0.76915895  1
  In  In17  1  0.54083335  0.33147344  0.19132898  1
  In  In18  1  0.49997576  0.16786457  -0.00931095  1
  In  In19  1  0.85540902  0.20757898  0.31783287  1
  In  In20  1  0.68639258  0.67611963  -0.03164683  1
  In  In21  1  0.51982993  0.16644784  0.35153771  1
  In  In22  1  -0.01234167  -0.01264615  -0.00491521  1
  In  In23  1  0.64448153  0.82691206  0.82484029  1
  In  In24  1  0.18291831  0.16287290  0.67444818  1
  In  In25  1  0.67189020  0.50376993  0.17919534  1
  In  In26  1  0.35673108  0.67737196  0.36764205  1
  In  In27  1  0.65743894  0.47541529  0.51556785  1
  In  In28  1  0.50002179  0.50412266  -0.01737229  1
  In  In29  1  0.67378702  0.18026552  0.84096196  1
  In  In30  1  -0.01976564  0.36134757  0.65295526  1
  In  In31  1  0.48629775  0.15878975  0.62589932  1
  In  In32  1  0.15245006  0.66068514  0.52279971  1
  In  In33  1  0.64361935  0.63952879  0.35476139  1
  In  In34  1  0.84393835  0.50543079  0.01149642  1
  In  In35  1  0.15738059  0.01048198  0.19434163  1
  In  In36  1  0.15813416  0.00245329  0.51310769  1
  In  In37  1  0.49804137  -0.02492797  0.50444542  1
  In  In38  1  0.34203199  0.48641150  0.80643765  1
  In  In39  1  0.83831292  0.01422405  0.83992702  1
  In  In40  1  0.68538677  0.21002950  0.53234736  1
  In  In41  1  0.33574989  0.65786138  0.63012027  1
  In  In42  1  0.83133674  0.84333976  0.33521426  1
  In  In43  1  0.35682133  0.47315018  0.48303970  1
  In  In44  1  0.33765526  0.00997619  0.31365923  1
  In  In45  1  0.48906591  0.64070021  0.16983248  1
  In  In46  1  0.33296144  0.80522235  0.16520075  1
  In  In47  1  0.81551001  -0.00085394  0.49897444  1
  In  In48  1  0.67281074  0.51384422  0.78607280  1
  In  In49  1  0.31606271  -0.01218695  -0.01990297  1
  In  In50  1  0.49963151  -0.01031319  0.83855618  1
  In  In51  1  0.50848170  -0.03993947  0.17726964  1
  In  In52  1  0.83343206  0.49670176  0.35393203  1
  In  In53  1  0.16560593  0.18410251  0.00764721  1
  In  In54  1  0.84236274  0.35744567  0.81366979  1
  In  In55  1  0.31523342  0.48224495  0.18585771  1
  In  In56  1  0.15340647  0.84702073  -0.00928716  1
  In  In57  1  0.00764656  0.66285914  0.33620920  1
  In  In58  1  0.34339864  -0.01340863  0.67165325  1
  In  In59  1  -0.02500314  -0.00865445  0.34460937  1
  In  In60  1  -0.00302152  0.65883762  -0.00129181  1
  In  In61  1  0.13455997  0.47526608  0.02937682  1
  In  In62  1  0.18064313  0.33340028  0.49534656  1
  In  In63  1  0.67903345  0.36885066  0.00016716  1
  In  In64  1  0.17616875  0.81252484  0.34585910  1
  In  In65  1  0.66004431  0.84718566  0.49530540  1
  In  In66  1  -0.03831495  0.19574953  0.14326613  1
  In  In67  1  0.13427873  0.67200222  0.83243742  1
  In  In68  1  -0.00061105  -0.01036954  0.67312752  1
  In  In69  1  0.36156412  0.19418694  0.13919986  1
  In  In70  1  0.16672928  0.49441636  0.33500134  1
  In  In71  1  0.49003230  0.33033128  0.79923656  1
  Te  Te72  1  0.08409994  0.07403841  0.07959364  1
  Te  Te73  1  0.08783673  0.08502972  0.39883464  1
  Te  Te74  1  0.07201025  0.09674770  0.75477232  1
  Te  Te75  1  0.03271880  0.42322187  0.12667844  1
  Te  Te76  1  0.07995387  0.43270582  0.44416257  1
  Te  Te77  1  0.08502829  0.40505196  0.75154895  1
  Te  Te78  1  0.10568145  0.73601225  0.08137205  1
  Te  Te79  1  0.07122559  0.75724095  0.43803245  1
  Te  Te80  1  0.05480828  0.72218479  0.71906754  1
  Te  Te81  1  0.41457649  0.06750681  0.07124961  1
  Te  Te82  1  0.42042841  0.07687483  0.42083629  1
  Te  Te83  1  0.42567893  0.08594825  0.74980697  1
  Te  Te84  1  0.44771104  0.41638047  0.09716712  1
  Te  Te85  1  0.45462352  0.36522021  0.46109925  1
  Te  Te86  1  0.43870054  0.43360209  0.70764019  1
  Te  Te87  1  0.41505458  0.72476484  0.07728295  1
  Te  Te88  1  0.43123427  0.76590737  0.45768689  1
  Te  Te89  1  0.41655732  0.72886717  0.73161415  1
  Te  Te90  1  0.79687437  0.10754271  0.04034748  1
  Te  Te91  1  0.76903760  0.11851110  0.41889303  1
  Te  Te92  1  0.75888207  0.10197076  0.74321035  1
  Te  Te93  1  0.76984874  0.41083675  0.11079035  1
  Te  Te94  1  0.74057396  0.40333817  0.41828413  1
  Te  Te95  1  0.71865812  0.38045932  0.71881042  1
  Te  Te96  1  0.76162875  0.74700847  0.07858428  1
  Te  Te97  1  0.74640063  0.74461325  0.41802498  1
  Te  Te98  1  0.73672796  0.74065754  0.74283826  1
  Te  Te99  1  0.07254951  0.24111769  0.24170607  1
  Te  Te100  1  0.08763315  0.24527494  0.58202193  1
  Te  Te101  1  0.07762305  0.24652421  0.90799008  1
  Te  Te102  1  0.08505084  0.57741739  0.24748124  1
  Te  Te103  1  0.04772892  0.59995646  0.61766054  1
  Te  Te104  1  0.07332958  0.55996707  0.91387778  1
  Te  Te105  1  0.07245623  0.90199402  0.25829728  1
  Te  Te106  1  0.09574060  0.90595826  0.60130388  1
  Te  Te107  1  0.05409840  0.89928320  0.89149013  1
  Te  Te108  1  0.42929126  0.25315109  0.25946679  1
  Te  Te109  1  0.40559720  0.25975547  0.56129975  1
  Te  Te110  1  0.41384914  0.26532183  0.91501351  1
  Te  Te111  1  0.40643940  0.56663126  0.27285725  1
  Te  Te112  1  0.43709970  0.57444553  0.55743212  1
  Te  Te113  1  0.39126575  0.57167665  0.91508924  1
  Te  Te114  1  0.41261281  0.88678182  0.26524741  1
  Te  Te115  1  0.39135471  0.89234219  0.56595712  1
  Te  Te116  1  0.40751753  0.89398024  0.90978944  1
  Te  Te117  1  0.73086026  0.25924694  0.26004485  1
  Te  Te118  1  0.78446783  0.28500889  0.61212724  1
  Te  Te119  1  0.76292641  0.27387966  0.91913015  1
  Te  Te120  1  0.75610812  0.59591793  0.26464273  1
  Te  Te121  1  0.75011709  0.57689892  0.58810918  1
  Te  Te122  1  0.76397462  0.57039214  0.89330720  1
  Te  Te123  1  0.74763918  0.93216294  0.24872062  1
  Te  Te124  1  0.75009101  0.90727298  0.60017397  1
  Te  Te125  1  0.73417607  0.91993803  0.90358034  1
  Te  Te126  1  0.24407054  0.28022374  0.09454338  1
  Te  Te127  1  0.28258871  0.23864442  0.44175874  1
  Te  Te128  1  0.27835286  0.25844634  0.72893701  1
  Te  Te129  1  0.24310963  0.55652800  0.08445169  1
  Te  Te130  1  0.25026241  0.58217227  0.43347256  1
  Te  Te131  1  0.24229106  0.59472798  0.74858307  1
  Te  Te132  1  0.24329608  0.91840881  0.10020551  1
  Te  Te133  1  0.24580080  0.93018709  0.40661107  1
  Te  Te134  1  0.23765800  0.93440337  0.76560906  1
  Te  Te135  1  0.59852035  0.25135326  0.06906907  1
  Te  Te136  1  0.58835425  0.26888246  0.43584816  1
  Te  Te137  1  0.57437147  0.22251004  0.73521695  1
  Te  Te138  1  0.60189778  0.58153394  0.06885133  1
  Te  Te139  1  0.55643047  0.56519708  0.44851669  1
  Te  Te140  1  0.56929000  0.61257211  0.75563258  1
  Te  Te141  1  0.59704909  0.89247884  0.08551532  1
  Te  Te142  1  0.58878977  0.92903444  0.39172089  1
  Te  Te143  1  0.55623709  0.90452959  0.72712227  1
  Te  Te144  1  0.97558988  0.31028370  0.04887503  1
  Te  Te145  1  0.91830231  0.28361893  0.43146126  1
  Te  Te146  1  0.90887993  0.25507101  0.72886537  1
  Te  Te147  1  0.91549724  0.59532087  0.10120458  1
  Te  Te148  1  0.92361739  0.58775545  0.43707109  1
  Te  Te149  1  0.91206622  0.52644680  0.71931056  1
  Te  Te150  1  0.89655332  0.91750880  0.09219921  1
  Te  Te151  1  0.91673932  0.89706166  0.44866015  1
  Te  Te152  1  0.90536003  0.91497568  0.75732195  1
  Te  Te153  1  0.25954045  0.11506941  0.23631948  1
  Te  Te154  1  0.26774611  0.08053400  0.57933365  1
  Te  Te155  1  0.25744884  0.10683933  0.91127970  1
  Te  Te156  1  0.24692302  0.38693727  0.27424524  1
  Te  Te157  1  0.25742918  0.42580774  0.58843603  1
  Te  Te158  1  0.24103709  0.42300518  0.91270456  1
  Te  Te159  1  0.25254759  0.71874669  0.25893852  1
  Te  Te160  1  0.23907780  0.75885589  0.58846975  1
  Te  Te161  1  0.23771714  0.74942700  0.91190105  1
  Te  Te162  1  0.57249157  0.08744183  0.22632022  1
  Te  Te163  1  0.60568712  0.07620266  0.56156174  1
  Te  Te164  1  0.59521580  0.07425189  0.92143500  1
  Te  Te165  1  0.58213425  0.44115749  0.27718206  1
  Te  Te166  1  0.59400901  0.42021347  0.63725986  1
  Te  Te167  1  0.58688985  0.41610237  0.88808950  1
  Te  Te168  1  0.56661008  0.73174658  0.26319096  1
  Te  Te169  1  0.55668113  0.75374880  0.55082960  1
  Te  Te170  1  0.56772846  0.73748615  0.91201811  1
  Te  Te171  1  0.91563509  0.08797951  0.24594592  1
  Te  Te172  1  0.91454020  0.08059614  0.58018986  1
  Te  Te173  1  0.91371543  0.10264963  0.93629906  1
  Te  Te174  1  0.91914175  0.42328903  0.25486686  1
  Te  Te175  1  0.87399649  0.44880736  0.59983770  1
  Te  Te176  1  0.92411210  0.41586163  0.92324907  1
  Te  Te177  1  0.91614118  0.75090824  0.25050089  1
  Te  Te178  1  0.91774073  0.73692348  0.64187596  1
  Te  Te179  1  0.91419711  0.73665426  0.89868153  1
