# generated using pymatgen
data_In2Te3
_symmetry_space_group_name_H-M   'P 1'
_cell_length_a   18.78301917
_cell_length_b   18.78019110
_cell_length_c   18.77750862
_cell_angle_alpha   90.01265384
_cell_angle_beta   89.93912615
_cell_angle_gamma   89.95079979
_symmetry_Int_Tables_number   1
_chemical_formula_structural   In2Te3
_chemical_formula_sum   'In72 Te108'
_cell_volume   6623.73521410
_cell_formula_units_Z   36
loop_
 _symmetry_equiv_pos_site_id
 _symmetry_equiv_pos_as_xyz
  1  'x, y, z'
loop_
 _atom_site_type_symbol
 _atom_site_label
 _atom_site_symmetry_multiplicity
 _atom_site_fract_x
 _atom_site_fract_y
 _atom_site_fract_z
 _atom_site_occupancy
  In  In0  1  0.30645728  0.00373386  0.32582751  1
  In  In1  1  0.66322716  0.67258860  0.66229518  1
  In  In2  1  0.69157059  0.50177599  0.16330787  1
  In  In3  1  0.14598369  0.70648524  0.47477241  1
  In  In4  1  0.34572207  0.03521347  0.00821561  1
  In  In5  1  0.67775641  0.65156329  0.00092479  1
  In  In6  1  0.48522781  0.17408816  0.33764384  1
  In  In7  1  0.48658338  0.84070132  0.32556887  1
  In  In8  1  0.49348950  0.33417138  0.50999175  1
  In  In9  1  0.67325605  0.15405314  0.81684578  1
  In  In10  1  0.33363751  0.83610139  0.83244607  1
  In  In11  1  0.52804267  0.02422260  0.53520041  1
  In  In12  1  0.84964237  0.33512565  0.15812697  1
  In  In13  1  -0.00323637  0.01806395  0.33152412  1
  In  In14  1  -0.01632809  0.29157485  0.68746232  1
  In  In15  1  0.66476875  0.49604877  0.49973007  1
  In  In16  1  0.50693666  0.66341724  0.83915821  1
  In  In17  1  0.32773755  0.31960799  0.67842176  1
  In  In18  1  0.16062017  0.00421152  0.15364531  1
  In  In19  1  0.01332405  0.48786912  0.17094115  1
  In  In20  1  0.31372991  0.14946064  0.50359277  1
  In  In21  1  0.51243350  0.29993516  0.15119391  1
  In  In22  1  0.50417739  0.50120622  0.35283393  1
  In  In23  1  0.31538250  0.48459170  0.16954741  1
  In  In24  1  0.82447314  0.86180725  -0.01976334  1
  In  In25  1  0.14950536  0.87561703  0.66364105  1
  In  In26  1  0.67150147  0.15753542  0.14168752  1
  In  In27  1  0.18121182  0.68493081  0.80729298  1
  In  In28  1  -0.00417225  0.31767490  -0.01218843  1
  In  In29  1  0.84311009  0.16413037  0.34425020  1
  In  In30  1  -0.00594693  0.67583575  0.66505582  1
  In  In31  1  0.82779906  0.30498930  0.52759137  1
  In  In32  1  0.85711520  0.66573412  0.50857975  1
  In  In33  1  0.68178067  0.83288239  0.51726162  1
  In  In34  1  0.51157797  0.48096820  0.66984867  1
  In  In35  1  0.67384320  0.00728178  -0.02214610  1
  In  In36  1  0.63896092  0.87312385  0.80789961  1
  In  In37  1  0.66701334  0.34031242  0.34467886  1
  In  In38  1  0.50624839  0.31192863  0.83179488  1
  In  In39  1  0.32584364  0.84615108  0.49906845  1
  In  In40  1  0.82577394  0.66655204  0.19220397  1
  In  In41  1  0.80287630  0.44702902  0.69546650  1
  In  In42  1  0.83205063  0.46843280  0.00044166  1
  In  In43  1  0.85409447  0.86091580  0.68252089  1
  In  In44  1  -0.00975617  0.68535618  0.01367022  1
  In  In45  1  -0.01949485  0.16349398  0.51997849  1
  In  In46  1  0.30815215  0.30248721  0.01825233  1
  In  In47  1  0.32503721  0.66457989  0.33194759  1
  In  In48  1  0.18321573  0.49409534  0.66116135  1
  In  In49  1  0.34196647  0.48485702  0.51762848  1
  In  In50  1  -0.00618106  0.84040164  0.16153549  1
  In  In51  1  0.15777309  0.48834626  0.00023737  1
  In  In52  1  0.50276241  0.70026927  0.16565630  1
  In  In53  1  0.17615082  0.31775160  0.83802884  1
  In  In54  1  0.67427161  0.00119641  0.32460455  1
  In  In55  1  0.82924189  0.01233056  0.52456255  1
  In  In56  1  0.49689699  0.48520113  -0.02977606  1
  In  In57  1  0.83518765  0.67668882  0.85749570  1
  In  In58  1  0.83303853  0.84333927  0.32996765  1
  In  In59  1  0.49029389  0.84216386  -0.00508531  1
  In  In60  1  0.34586729  0.67059326  0.66933748  1
  In  In61  1  0.00192941  0.49283447  0.48834738  1
  In  In62  1  0.18006613  0.47655196  0.33102369  1
  In  In63  1  0.34329506  0.01051342  0.66248099  1
  In  In64  1  0.00768116  0.16373296  0.16271363  1
  In  In65  1  0.34317646  0.16178894  0.82369019  1
  In  In66  1  0.15868131  0.16872564  0.32938969  1
  In  In67  1  0.64777997  0.83848181  0.16541623  1
  In  In68  1  0.15811038  0.68022145  0.16903220  1
  In  In69  1  0.00098188  0.01581495  -0.03868594  1
  In  In70  1  0.32338816  0.84342458  0.15739650  1
  In  In71  1  -0.00690363  0.49886853  0.84397983  1
  Te  Te72  1  0.09431947  0.09990478  0.05590370  1
  Te  Te73  1  0.08898401  0.08154629  0.43420271  1
  Te  Te74  1  0.05945765  0.04883037  0.80133685  1
  Te  Te75  1  0.09008324  0.38433361  0.08818496  1
  Te  Te76  1  0.09358116  0.39851732  0.42240736  1
  Te  Te77  1  0.08547557  0.41703032  0.75276416  1
  Te  Te78  1  0.09844380  0.77821146  0.06766390  1
  Te  Te79  1  0.04189546  0.76091270  0.39128580  1
  Te  Te80  1  0.07239149  0.77422261  0.75086871  1
  Te  Te81  1  0.43786627  0.06057612  0.11867103  1
  Te  Te82  1  0.41622660  0.05959766  0.41936614  1
  Te  Te83  1  0.44696620  0.07773279  0.75026115  1
  Te  Te84  1  0.41790333  0.41063480  0.07962353  1
  Te  Te85  1  0.40221520  0.40049115  0.40469904  1
  Te  Te86  1  0.41152166  0.41370712  0.76327451  1
  Te  Te87  1  0.39716691  0.74347009  0.06582627  1
  Te  Te88  1  0.41637874  0.74588284  0.42325283  1
  Te  Te89  1  0.43909148  0.76433117  0.74638971  1
  Te  Te90  1  0.77035619  0.08225604  0.06201596  1
  Te  Te91  1  0.73924746  0.09196355  0.42875546  1
  Te  Te92  1  0.78542482  0.10508448  0.72140966  1
  Te  Te93  1  0.72876515  0.38424008  0.07462378  1
  Te  Te94  1  0.77068126  0.41224938  0.42859991  1
  Te  Te95  1  0.71682809  0.36074259  0.78117834  1
  Te  Te96  1  0.76411716  0.75428785  0.08095518  1
  Te  Te97  1  0.75800296  0.74457663  0.41908868  1
  Te  Te98  1  0.75540945  0.75727760  0.75338244  1
  Te  Te99  1  0.05291957  0.25414916  0.26997306  1
  Te  Te100  1  0.08553697  0.23654732  0.59720824  1
  Te  Te101  1  0.07846582  0.22802257  0.90292926  1
  Te  Te102  1  0.09016318  0.58170840  0.26341506  1
  Te  Te103  1  0.09087578  0.58973885  0.58338007  1
  Te  Te104  1  0.08176364  0.59856712  0.91768583  1
  Te  Te105  1  0.08571456  0.91982610  0.25557329  1
  Te  Te106  1  0.09416281  0.96523691  0.56171945  1
  Te  Te107  1  0.09009477  0.92543120  0.88376841  1
  Te  Te108  1  0.40653686  0.25683094  0.24428826  1
  Te  Te109  1  0.41323004  0.23076283  0.58905411  1
  Te  Te110  1  0.41674380  0.23823266  0.93485684  1
  Te  Te111  1  0.41912342  0.58506842  0.24183915  1
  Te  Te112  1  0.43801958  0.58409184  0.58209719  1
  Te  Te113  1  0.40863428  0.59172129  0.92175625  1
  Te  Te114  1  0.41987115  0.94015786  0.22742366  1
  Te  Te115  1  0.43155095  0.91263590  0.58572429  1
  Te  Te116  1  0.42093077  0.93902396  0.90460378  1
  Te  Te117  1  0.74826639  0.24802412  0.25236627  1
  Te  Te118  1  0.74781694  0.20751655  0.60558957  1
  Te  Te119  1  0.74762201  0.25952605  0.89363058  1
  Te  Te120  1  0.74604285  0.57665831  0.27710608  1
  Te  Te121  1  0.76327382  0.57578312  0.59423844  1
  Te  Te122  1  0.75019429  0.55869772  0.90481157  1
  Te  Te123  1  0.75998903  0.92537317  0.22339116  1
  Te  Te124  1  0.73442914  0.93396538  0.61701530  1
  Te  Te125  1  0.76145449  0.94326786  0.86775939  1
  Te  Te126  1  0.23837767  0.23176950  0.12504531  1
  Te  Te127  1  0.25564890  0.24622457  0.40970419  1
  Te  Te128  1  0.22978006  0.21712551  0.73540964  1
  Te  Te129  1  0.24300299  0.58658127  0.08152632  1
  Te  Te130  1  0.25032293  0.58004522  0.43481257  1
  Te  Te131  1  0.27136005  0.57086491  0.75930591  1
  Te  Te132  1  0.24580059  0.92385856  0.05527344  1
  Te  Te133  1  0.22732391  0.91393017  0.41283315  1
  Te  Te134  1  0.24810132  0.94076960  0.76053019  1
  Te  Te135  1  0.58166763  0.22498305  0.04246041  1
  Te  Te136  1  0.58772878  0.24187109  0.42933403  1
  Te  Te137  1  0.56903513  0.22575884  0.72532248  1
  Te  Te138  1  0.57603497  0.58118842  0.08828180  1
  Te  Te139  1  0.58207316  0.59707026  0.43157894  1
  Te  Te140  1  0.59833458  0.57155487  0.75767287  1
  Te  Te141  1  0.57324664  0.93817815  0.08055051  1
  Te  Te142  1  0.58632485  0.91664652  0.41695890  1
  Te  Te143  1  0.56664010  0.97478661  0.73269391  1
  Te  Te144  1  0.90229067  0.22634829  0.06681574  1
  Te  Te145  1  0.92878927  0.26548200  0.41668632  1
  Te  Te146  1  0.88280729  0.22035325  0.77094761  1
  Te  Te147  1  0.90819014  0.57577576  0.08385187  1
  Te  Te148  1  0.92028125  0.58154294  0.40436714  1
  Te  Te149  1  0.90627337  0.58437235  0.75071614  1
  Te  Te150  1  0.91981036  0.93743692  0.07288005  1
  Te  Te151  1  0.91409554  0.92969385  0.42542791  1
  Te  Te152  1  0.95479121  0.94158319  0.75582615  1
  Te  Te153  1  0.26020556  0.10395098  0.21768593  1
  Te  Te154  1  0.22287704  0.06333954  0.58789658  1
  Te  Te155  1  0.24752424  0.10458152  0.92221262  1
  Te  Te156  1  0.23544925  0.37725775  0.23278605  1
  Te  Te157  1  0.23916064  0.38513823  0.57083600  1
  Te  Te158  1  0.26299888  0.41216970  0.92006501  1
  Te  Te159  1  0.23990573  0.77009513  0.26281137  1
  Te  Te160  1  0.24012827  0.75525050  0.59760450  1
  Te  Te161  1  0.24717641  0.75297764  0.91899512  1
  Te  Te162  1  0.57949873  0.09085586  0.24619766  1
  Te  Te163  1  0.61039245  0.12917785  0.60241413  1
  Te  Te164  1  0.57460929  0.10077704  0.91829838  1
  Te  Te165  1  0.57715288  0.41577626  0.24553892  1
  Te  Te166  1  0.60850767  0.39031761  0.59479185  1
  Te  Te167  1  0.60123509  0.40866325  0.89835940  1
  Te  Te168  1  0.59996996  0.74307780  0.27345287  1
  Te  Te169  1  0.57325949  0.76290569  0.58932279  1
  Te  Te170  1  0.60633825  0.76324296  0.92189152  1
  Te  Te171  1  0.89923981  0.07783843  0.23243342  1
  Te  Te172  1  0.92833093  0.06755628  0.62460329  1
  Te  Te173  1  0.92196205  0.11208160  0.87916592  1
  Te  Te174  1  0.91029966  0.42577536  0.25623104  1
  Te  Te175  1  0.92214517  0.41148908  0.60287099  1
  Te  Te176  1  0.90067323  0.38722182  0.89027317  1
  Te  Te177  1  0.94077966  0.74042258  0.26590778  1
  Te  Te178  1  0.93222397  0.78212259  0.57495759  1
  Te  Te179  1  0.93351505  0.78054294  0.90799495  1
