# generated using pymatgen
data_In2Te3
_symmetry_space_group_name_H-M   'P 1'
_cell_length_a   18.98613658
_cell_length_b   19.00091739
_cell_length_c   18.98033767
_cell_angle_alpha   89.93113083
_cell_angle_beta   90.23465389
_cell_angle_gamma   89.88476733
_symmetry_Int_Tables_number   1
_chemical_formula_structural   In2Te3
_chemical_formula_sum   'In72 Te108'
_cell_volume   6847.15669071
_cell_formula_units_Z   36
loop_
 _symmetry_equiv_pos_site_id
 _symmetry_equiv_pos_as_xyz
  1  'x, y, z'
loop_
 _atom_site_type_symbol
 _atom_site_label
 _atom_site_symmetry_multiplicity
 _atom_site_fract_x
 _atom_site_fract_y
 _atom_site_fract_z
 _atom_site_occupancy
  In  In0  1  0.52999324  0.34330006  0.13133458  1
  In  In1  1  0.49379406  0.14669436  -0.00966636  1
  In  In2  1  0.01794815  0.33783923  0.01298505  1
  In  In3  1  0.01878781  0.67166165  0.64892084  1
  In  In4  1  0.33726259  0.15754757  0.83221318  1
  In  In5  1  0.84476092  0.50475546  0.01556371  1
  In  In6  1  0.66248802  0.16382690  0.16536837  1
  In  In7  1  0.33152175  0.32111289  0.68861820  1
  In  In8  1  0.18258879  0.67830316  0.47642433  1
  In  In9  1  0.84319291  0.67826532  0.12505978  1
  In  In10  1  -0.00096216  0.00338842  0.67783402  1
  In  In11  1  0.53407969  0.80118876  0.68701143  1
  In  In12  1  0.14991191  0.50784051  0.34140166  1
  In  In13  1  0.35541127  0.32146704  0.32100553  1
  In  In14  1  0.66656330  0.64681844  0.27776661  1
  In  In15  1  0.15819581  0.51375455  0.66510776  1
  In  In16  1  0.84972573  0.15583035  0.70143384  1
  In  In17  1  0.48424333  0.16120288  0.35161029  1
  In  In18  1  0.16934472  0.83357620  -0.02370119  1
  In  In19  1  0.49924206  0.82878418  -0.01196189  1
  In  In20  1  0.81237315  0.19710967  -0.03244215  1
  In  In21  1  0.01021761  0.17297882  0.47843348  1
  In  In22  1  0.29718372  0.02114728  0.31587297  1
  In  In23  1  0.51214196  0.51222608  0.68402185  1
  In  In24  1  0.29582481  0.34465606  0.02042707  1
  In  In25  1  -0.01011818  0.16418288  0.14412791  1
  In  In26  1  0.31573626  0.16561184  0.51112547  1
  In  In27  1  0.00355897  -0.00805935  0.01774321  1
  In  In28  1  0.01425416  0.00739213  0.31856889  1
  In  In29  1  0.00866507  0.83093398  0.50239103  1
  In  In30  1  0.68822584  0.81961119  0.15372199  1
  In  In31  1  0.82601729  0.83749477  0.31809817  1
  In  In32  1  0.66356742  0.51043402  0.49048530  1
  In  In33  1  0.79563737  0.34014941  0.52179080  1
  In  In34  1  0.83375436  -0.01882923  0.84719780  1
  In  In35  1  0.18446704  0.00857418  0.82665992  1
  In  In36  1  0.66108650  0.31762722  0.33849839  1
  In  In37  1  0.81313171  -0.01742468  0.52224678  1
  In  In38  1  0.02433218  0.18537265  0.86316036  1
  In  In39  1  0.79818821  0.50159095  0.66699752  1
  In  In40  1  -0.00884292  0.38646074  0.25292420  1
  In  In41  1  0.16888935  0.65206563  0.83925218  1
  In  In42  1  0.34507187  -0.01978802  -0.00674426  1
  In  In43  1  0.15253920  0.84458380  0.68676308  1
  In  In44  1  0.32960057  0.51979161  0.53716056  1
  In  In45  1  0.81586140  0.66905235  0.49064918  1
  In  In46  1  0.15118031  0.31556977  0.17346969  1
  In  In47  1  0.78363419  0.83626948  0.67148432  1
  In  In48  1  0.67527100  0.14101252  0.52092993  1
  In  In49  1  0.51042221  0.63631037  0.11959567  1
  In  In50  1  0.34969949  0.82540277  0.16491055  1
  In  In51  1  0.34875319  0.83752622  0.48992384  1
  In  In52  1  0.48320465  0.33266811  0.53896736  1
  In  In53  1  -0.00840963  0.51071083  0.83106966  1
  In  In54  1  0.66895119  0.00231582  -0.00416672  1
  In  In55  1  0.34048530  -0.00813660  0.66338830  1
  In  In56  1  0.50349715  0.00529721  0.19418921  1
  In  In57  1  0.35390047  0.68168675  0.67283167  1
  In  In58  1  0.50069041  0.62011318  0.88659525  1
  In  In59  1  0.16938209  0.68363456  0.14886754  1
  In  In60  1  0.15498069  0.33368771  0.47124739  1
  In  In61  1  0.86075515  0.70323807  0.85881989  1
  In  In62  1  -0.03758309  0.65092536  0.31194753  1
  In  In63  1  0.50111911  0.35727022  0.87200949  1
  In  In64  1  0.53017261  0.83154863  0.35742437  1
  In  In65  1  0.50123750  0.48655374  0.30756548  1
  In  In66  1  0.30671504  0.50864504  0.15731176  1
  In  In67  1  0.17254135  0.84425964  0.30996906  1
  In  In68  1  0.65925257  -0.01981199  0.66425375  1
  In  In69  1  0.00162991  0.34786540  0.66177542  1
  In  In70  1  0.66183023  0.32744340  0.74100925  1
  In  In71  1  0.84401098  0.17093543  0.32354500  1
  Te  Te72  1  0.09624788  0.08089789  0.08827518  1
  Te  Te73  1  0.10039832  0.08465750  0.40729397  1
  Te  Te74  1  0.08715570  0.09994744  0.75167412  1
  Te  Te75  1  0.07794825  0.42952558  0.11377128  1
  Te  Te76  1  0.04875616  0.41273050  0.39882552  1
  Te  Te77  1  0.09418311  0.41916756  0.76115973  1
  Te  Te78  1  0.07990496  0.77287544  0.07527775  1
  Te  Te79  1  0.07374796  0.74669029  0.39508924  1
  Te  Te80  1  0.06885036  0.74970129  0.76748013  1
  Te  Te81  1  0.41315087  0.07477396  0.09542111  1
  Te  Te82  1  0.39732795  0.06796530  0.42758989  1
  Te  Te83  1  0.42150063  0.05105594  0.77343527  1
  Te  Te84  1  0.41582733  0.42862526  0.08148914  1
  Te  Te85  1  0.42645583  0.41308926  0.42302581  1
  Te  Te86  1  0.41541017  0.42336266  0.76042271  1
  Te  Te87  1  0.40570940  0.73303897  0.06004160  1
  Te  Te88  1  0.42840513  0.74323845  0.41427398  1
  Te  Te89  1  0.44469787  0.72462934  0.78292079  1
  Te  Te90  1  0.76002423  0.09552470  0.07214730  1
  Te  Te91  1  0.76127580  0.07885180  0.41497522  1
  Te  Te92  1  0.74436283  0.06793143  0.75993520  1
  Te  Te93  1  0.71693544  0.42684560  0.04267483  1
  Te  Te94  1  0.75088429  0.42352128  0.40203103  1
  Te  Te95  1  0.76978565  0.41788095  0.78470673  1
  Te  Te96  1  0.72015846  0.71890037  0.05001727  1
  Te  Te97  1  0.73461819  0.73660474  0.38229497  1
  Te  Te98  1  0.74066462  0.75025891  0.78161272  1
  Te  Te99  1  0.04947854  0.24731486  0.25992061  1
  Te  Te100  1  0.08883256  0.25263824  0.58146775  1
  Te  Te101  1  0.12179026  0.26185776  0.94124132  1
  Te  Te102  1  0.07999621  0.59228772  0.23849498  1
  Te  Te103  1  0.08752688  0.57983524  0.55003102  1
  Te  Te104  1  0.05851891  0.60239421  0.92728919  1
  Te  Te105  1  0.08222029  0.91949346  0.22411690  1
  Te  Te106  1  0.09030925  0.93202222  0.57923716  1
  Te  Te107  1  0.07820601  0.93023199  0.89951897  1
  Te  Te108  1  0.45460684  0.25143643  0.23289215  1
  Te  Te109  1  0.41629392  0.22086196  0.61279674  1
  Te  Te110  1  0.39599305  0.26172332  0.93941885  1
  Te  Te111  1  0.41739281  0.58538564  0.22970449  1
  Te  Te112  1  0.44448650  0.60418492  0.57817566  1
  Te  Te113  1  0.39623729  0.53470402  0.95005945  1
  Te  Te114  1  0.40934781  0.91662509  0.27216875  1
  Te  Te115  1  0.43344118  0.88751111  0.60268194  1
  Te  Te116  1  0.43919425  0.92638138  0.89332121  1
  Te  Te117  1  0.75767429  0.26010178  0.23631676  1
  Te  Te118  1  0.74308948  0.23972318  0.62172599  1
  Te  Te119  1  0.73188181  0.26812963  0.86709395  1
  Te  Te120  1  0.78504005  0.57554077  0.22191157  1
  Te  Te121  1  0.71296062  0.61496009  0.59816730  1
  Te  Te122  1  0.78659430  0.58849429  0.90632708  1
  Te  Te123  1  0.73602191  0.92437874  0.24221983  1
  Te  Te124  1  0.70145992  0.87669325  0.53899004  1
  Te  Te125  1  0.76728352  0.89564278  0.95194054  1
  Te  Te126  1  0.26758215  0.23674740  0.12515676  1
  Te  Te127  1  0.25022338  0.24225648  0.39675985  1
  Te  Te128  1  0.23856798  0.25118544  0.77503426  1
  Te  Te129  1  0.23440119  0.58753648  0.05401215  1
  Te  Te130  1  0.27186522  0.57617761  0.41030157  1
  Te  Te131  1  0.26700513  0.57836423  0.74481457  1
  Te  Te132  1  0.25182037  0.90845596  0.08735481  1
  Te  Te133  1  0.24159471  0.91884715  0.42164879  1
  Te  Te134  1  0.26726990  0.89777665  0.76585624  1
  Te  Te135  1  0.60089205  0.23989148  0.04875283  1
  Te  Te136  1  0.57878471  0.24821036  0.44551599  1
  Te  Te137  1  0.54284215  0.25318955  0.77672767  1
  Te  Te138  1  0.61371793  0.54402176  0.06481419  1
  Te  Te139  1  0.58021400  0.58667230  0.39097854  1
  Te  Te140  1  0.59805101  0.56236963  0.79080101  1
  Te  Te141  1  0.57389052  0.92017092  0.09039901  1
  Te  Te142  1  0.59276218  0.92976396  0.44175913  1
  Te  Te143  1  0.62468619  0.88442928  0.77183983  1
  Te  Te144  1  0.89942769  0.26389575  0.07338803  1
  Te  Te145  1  0.89489329  0.25977097  0.43444530  1
  Te  Te146  1  0.93149515  0.26368360  0.76607086  1
  Te  Te147  1  0.95015697  0.60832799  0.04787630  1
  Te  Te148  1  0.90315254  0.57576944  0.42039576  1
  Te  Te149  1  0.91739110  0.58629049  0.72155882  1
  Te  Te150  1  0.88908854  0.91186863  0.06425414  1
  Te  Te151  1  0.91426807  0.91900391  0.42140662  1
  Te  Te152  1  0.90623081  0.90374434  0.73918984  1
  Te  Te153  1  0.24416975  0.11095218  0.21579430  1
  Te  Te154  1  0.24110223  0.08147443  0.60387682  1
  Te  Te155  1  0.25189330  0.08610793  0.93680780  1
  Te  Te156  1  0.24665739  0.41568036  0.26470598  1
  Te  Te157  1  0.24808664  0.40110850  0.57794468  1
  Te  Te158  1  0.25846717  0.46473231  0.94112002  1
  Te  Te159  1  0.26457596  0.73843442  0.25543633  1
  Te  Te160  1  0.23880726  0.75145845  0.59559531  1
  Te  Te161  1  0.26098184  0.74680346  0.90151324  1
  Te  Te162  1  0.59712260  0.08741561  0.27978777  1
  Te  Te163  1  0.56936176  0.06680377  0.58731463  1
  Te  Te164  1  0.58676056  0.07782269  0.90126959  1
  Te  Te165  1  0.61328496  0.41877296  0.23374137  1
  Te  Te166  1  0.59610097  0.41890261  0.59214238  1
  Te  Te167  1  0.59962987  0.44813055  0.93991774  1
  Te  Te168  1  0.56544250  0.74618807  0.22067873  1
  Te  Te169  1  0.61070960  0.73233993  0.58423962  1
  Te  Te170  1  0.59485534  0.72602241  0.94130104  1
  Te  Te171  1  0.90676512  0.06996920  0.23164484  1
  Te  Te172  1  0.91460644  0.08882508  0.57927677  1
  Te  Te173  1  0.91834430  0.09071701  0.91785615  1
  Te  Te174  1  0.88393293  0.45936148  0.18573207  1
  Te  Te175  1  0.90256920  0.43018642  0.58124860  1
  Te  Te176  1  0.92350648  0.41006387  0.91975729  1
  Te  Te177  1  0.92101249  0.76726605  0.22492432  1
  Te  Te178  1  0.90328399  0.75907623  0.58397127  1
  Te  Te179  1  0.90864563  0.80573696  0.95379962  1
