# generated using pymatgen
data_In2Te3
_symmetry_space_group_name_H-M   'P 1'
_cell_length_a   18.80703637
_cell_length_b   18.81791656
_cell_length_c   18.81763801
_cell_angle_alpha   90.08247233
_cell_angle_beta   89.98071807
_cell_angle_gamma   90.03735287
_symmetry_Int_Tables_number   1
_chemical_formula_structural   In2Te3
_chemical_formula_sum   'In72 Te108'
_cell_volume   6659.72729426
_cell_formula_units_Z   36
loop_
 _symmetry_equiv_pos_site_id
 _symmetry_equiv_pos_as_xyz
  1  'x, y, z'
loop_
 _atom_site_type_symbol
 _atom_site_label
 _atom_site_symmetry_multiplicity
 _atom_site_fract_x
 _atom_site_fract_y
 _atom_site_fract_z
 _atom_site_occupancy
  In  In0  1  0.49519424  0.81967379  0.01643953  1
  In  In1  1  0.81613701  0.48026982  0.01270745  1
  In  In2  1  0.17958883  0.85705707  0.34423041  1
  In  In3  1  0.83738717  0.64176708  0.82884373  1
  In  In4  1  -0.03276564  0.50008955  0.83558356  1
  In  In5  1  0.65901015  0.18191282  0.82136810  1
  In  In6  1  0.00932739  0.51554458  0.48764283  1
  In  In7  1  -0.01275185  0.82834719  0.49021239  1
  In  In8  1  0.33257590  0.65687676  0.33547123  1
  In  In9  1  0.52387965  0.46822711  0.31237684  1
  In  In10  1  0.67030603  0.49590477  0.50122955  1
  In  In11  1  0.00697305  0.83214370  0.84062456  1
  In  In12  1  0.17202869  0.34682949  0.47956987  1
  In  In13  1  0.65672155  0.48336053  0.84847458  1
  In  In14  1  0.84070630  0.83569845  0.65928131  1
  In  In15  1  0.83995914  -0.01701819  0.50198600  1
  In  In16  1  0.35034389  0.47552134  0.13397257  1
  In  In17  1  0.80505513  0.53506770  0.66495702  1
  In  In18  1  0.63375115  0.33609694  0.67475110  1
  In  In19  1  0.84819604  0.33032774  0.84383503  1
  In  In20  1  0.67402834  0.01215094  -0.00881781  1
  In  In21  1  0.31685316  0.00218710  -0.00195207  1
  In  In22  1  0.62012092  0.34284066  0.00821870  1
  In  In23  1  0.83002142  0.33538280  0.48790218  1
  In  In24  1  0.49071054  0.83985987  0.34679397  1
  In  In25  1  0.51226560  0.01113805  0.82034607  1
  In  In26  1  0.35844558  -0.02825727  0.65383385  1
  In  In27  1  0.16508143  0.52402199  0.66907950  1
  In  In28  1  0.66137748  0.84652125  0.85394436  1
  In  In29  1  0.81583790  0.81672759  0.36210791  1
  In  In30  1  0.19239666  0.01144829  0.17147859  1
  In  In31  1  0.16036601  0.32365936  0.84680890  1
  In  In32  1  0.20646190  0.81925186  0.63640885  1
  In  In33  1  0.81390880  0.16868031  0.69224921  1
  In  In34  1  0.33724544  0.16690598  0.16508638  1
  In  In35  1  0.50668195  0.65544533  0.49166943  1
  In  In36  1  -0.01046790  0.16091872  0.48023607  1
  In  In37  1  0.32923849  0.33372207  0.33327467  1
  In  In38  1  0.33642670  0.83438412  0.81813664  1
  In  In39  1  -0.01899911  0.33149751  0.66532528  1
  In  In40  1  0.82818993  0.50071732  0.27905108  1
  In  In41  1  0.49218968  0.66633235  0.82792947  1
  In  In42  1  0.52569827  0.65942103  0.16735770  1
  In  In43  1  0.67195172  0.81256822  0.15809208  1
  In  In44  1  0.64261669  0.15486992  0.49511533  1
  In  In45  1  0.65066228  -0.00513707  0.34648324  1
  In  In46  1  0.18237220  0.17037463  -0.00815439  1
  In  In47  1  0.64836688  0.67975277  0.66033514  1
  In  In48  1  0.65789257  -0.00010576  0.64780615  1
  In  In49  1  0.17760755  0.64846250  0.17925525  1
  In  In50  1  0.34376184  0.50878548  0.84689860  1
  In  In51  1  -0.01474109  0.67446481  0.33753770  1
  In  In52  1  -0.01328251  0.63194838  -0.00279655  1
  In  In53  1  0.00140659  0.17971751  0.17531817  1
  In  In54  1  0.82209913  0.00684678  0.14876726  1
  In  In55  1  0.49865084  0.18240004  0.34040167  1
  In  In56  1  -0.00100200  0.82151956  0.17924133  1
  In  In57  1  0.34896863  0.33398595  0.66315079  1
  In  In58  1  0.35123441  0.16156414  0.50320236  1
  In  In59  1  0.15894825  0.51141753  0.34177393  1
  In  In60  1  -0.01206630  -0.01106184  0.00196323  1
  In  In61  1  0.16057448  0.31670278  0.15803306  1
  In  In62  1  0.17404673  0.82640663  -0.00445279  1
  In  In63  1  0.15448639  0.48075608  0.01436438  1
  In  In64  1  0.84905342  0.17542359  0.01831229  1
  In  In65  1  0.16620592  0.01108567  0.48869848  1
  In  In66  1  0.49679500  0.01116191  0.19364383  1
  In  In67  1  0.35447566  0.51363731  0.47803668  1
  In  In68  1  0.17489425  0.68987987  0.82668020  1
  In  In69  1  0.01892803  0.00881356  0.68522193  1
  In  In70  1  0.17279417  0.18570450  0.68535195  1
  In  In71  1  0.80858096  0.18478249  0.29917244  1
  Te  Te72  1  0.08530259  0.07865638  0.08274863  1
  Te  Te73  1  0.08082723  0.08592732  0.39330324  1
  Te  Te74  1  0.09074286  0.10109414  0.77422106  1
  Te  Te75  1  0.06131401  0.42149790  0.11598476  1
  Te  Te76  1  0.06065168  0.40498501  0.39484967  1
  Te  Te77  1  0.08078486  0.41529967  0.74743745  1
  Te  Te78  1  0.08211283  0.73537703  0.07942997  1
  Te  Te79  1  0.09262780  0.74981395  0.41300560  1
  Te  Te80  1  0.08875823  0.76711915  0.72976172  1
  Te  Te81  1  0.42379373  0.07849398  0.07578667  1
  Te  Te82  1  0.41560243  0.07479237  0.40146495  1
  Te  Te83  1  0.41220085  0.08118517  0.73804390  1
  Te  Te84  1  0.47054552  0.41880009  0.06824947  1
  Te  Te85  1  0.43603581  0.39973260  0.41974884  1
  Te  Te86  1  0.42718696  0.42161722  0.75679888  1
  Te  Te87  1  0.41610723  0.73752101  0.10846520  1
  Te  Te88  1  0.39421037  0.75454828  0.43467557  1
  Te  Te89  1  0.42074661  0.75162197  0.73078762  1
  Te  Te90  1  0.72997307  0.11358027  0.09228396  1
  Te  Te91  1  0.76165477  0.08869503  0.42103883  1
  Te  Te92  1  0.73819944  0.05971982  0.76462058  1
  Te  Te93  1  0.73877585  0.38275521  0.10185186  1
  Te  Te94  1  0.75155468  0.42332023  0.39445632  1
  Te  Te95  1  0.75907338  0.41197461  0.74932601  1
  Te  Te96  1  0.73797129  0.69707967  0.09401652  1
  Te  Te97  1  0.72165113  0.74045853  0.44143297  1
  Te  Te98  1  0.74986451  0.74973720  0.75818964  1
  Te  Te99  1  0.10642435  0.23206006  0.26569305  1
  Te  Te100  1  0.08039216  0.25666348  0.57433344  1
  Te  Te101  1  0.07226147  0.25654361  0.94380914  1
  Te  Te102  1  0.06127510  0.57931002  0.24499073  1
  Te  Te103  1  0.07896323  0.60525929  0.58153034  1
  Te  Te104  1  0.09655129  0.57774292  0.89976050  1
  Te  Te105  1  0.08456466  0.92681680  0.24546925  1
  Te  Te106  1  0.07865685  0.91773443  0.57779186  1
  Te  Te107  1  0.10009238  0.92955142  0.91367854  1
  Te  Te108  1  0.42677658  0.27064491  0.23457944  1
  Te  Te109  1  0.43797664  0.25826515  0.57239957  1
  Te  Te110  1  0.45690131  0.29145137  0.97687493  1
  Te  Te111  1  0.41338290  0.56159818  0.24897736  1
  Te  Te112  1  0.43025255  0.57316456  0.58910788  1
  Te  Te113  1  0.43729227  0.58194893  0.93554445  1
  Te  Te114  1  0.40423381  0.91338099  0.25211908  1
  Te  Te115  1  0.45916237  0.90632004  0.56806467  1
  Te  Te116  1  0.42732025  0.91658137  0.91732008  1
  Te  Te117  1  0.72165655  0.28725234  0.23745331  1
  Te  Te118  1  0.74414728  0.25713648  0.58926399  1
  Te  Te119  1  0.74092002  0.25988788  0.92445037  1
  Te  Te120  1  0.72745615  0.59272183  0.21142949  1
  Te  Te121  1  0.74692502  0.62837733  0.55191836  1
  Te  Te122  1  0.73803200  0.58320423  0.92855991  1
  Te  Te123  1  0.74550177  0.91850320  0.25452103  1
  Te  Te124  1  0.73460044  0.89437211  0.56535502  1
  Te  Te125  1  0.76307760  0.90471689  0.94244126  1
  Te  Te126  1  0.27287134  0.26719908  0.06907440  1
  Te  Te127  1  0.24738073  0.23352572  0.41296374  1
  Te  Te128  1  0.27716847  0.25479294  0.77298113  1
  Te  Te129  1  0.25835138  0.58062678  0.07014642  1
  Te  Te130  1  0.23151418  0.60065787  0.44309554  1
  Te  Te131  1  0.27016835  0.60174273  0.74608126  1
  Te  Te132  1  0.26371007  0.89835547  0.09552663  1
  Te  Te133  1  0.27181121  0.91985521  0.44008531  1
  Te  Te134  1  0.23916781  0.92298966  0.74306918  1
  Te  Te135  1  0.54419776  0.24183553  0.08776178  1
  Te  Te136  1  0.59640764  0.26681239  0.41328198  1
  Te  Te137  1  0.54514096  0.24257621  0.74844224  1
  Te  Te138  1  0.61978136  0.56461755  0.10372397  1
  Te  Te139  1  0.59470324  0.57677619  0.39387880  1
  Te  Te140  1  0.58473717  0.57275124  0.74700319  1
  Te  Te141  1  0.58732660  0.92373408  0.09212207  1
  Te  Te142  1  0.55808695  0.93372642  0.44718553  1
  Te  Te143  1  0.57910275  0.90104236  0.74033197  1
  Te  Te144  1  0.90403369  0.27691317  0.11662255  1
  Te  Te145  1  0.91312559  0.25633816  0.38807540  1
  Te  Te146  1  0.93324082  0.22894148  0.76780134  1
  Te  Te147  1  0.89911616  0.57141013  0.09881908  1
  Te  Te148  1  0.89521235  0.57357216  0.40476849  1
  Te  Te149  1  0.93631872  0.59727333  0.72302783  1
  Te  Te150  1  0.90245348  0.89230861  0.08368929  1
  Te  Te151  1  0.92587636  0.92513287  0.39174157  1
  Te  Te152  1  0.91459448  0.92432820  0.75953918  1
  Te  Te153  1  0.28378808  0.07476671  0.26936371  1
  Te  Te154  1  0.24839666  0.08622790  0.59709514  1
  Te  Te155  1  0.26589879  0.09436664  0.89619804  1
  Te  Te156  1  0.24681189  0.42893332  0.24630694  1
  Te  Te157  1  0.25110125  0.42792315  0.58034121  1
  Te  Te158  1  0.25841451  0.40875778  0.92799211  1
  Te  Te159  1  0.25405780  0.75651024  0.25087718  1
  Te  Te160  1  0.27684753  0.72356597  0.55289281  1
  Te  Te161  1  0.27887781  0.74122053  0.92591001  1
  Te  Te162  1  0.60143959  0.10376651  0.25354571  1
  Te  Te163  1  0.55947783  0.10156665  0.60406898  1
  Te  Te164  1  0.57314496  0.10425537  0.92418488  1
  Te  Te165  1  0.61911148  0.40450416  0.21486723  1
  Te  Te166  1  0.56798062  0.43731321  0.58975710  1
  Te  Te167  1  0.54502153  0.38717309  0.87783215  1
  Te  Te168  1  0.59099345  0.75167364  0.27313100  1
  Te  Te169  1  0.55582627  0.76733876  0.58115360  1
  Te  Te170  1  0.58999438  0.73760406  0.93076762  1
  Te  Te171  1  0.90989941  0.08021249  0.24843929  1
  Te  Te172  1  0.91103304  0.08962027  0.59350595  1
  Te  Te173  1  0.90195241  0.07754744  0.92179901  1
  Te  Te174  1  0.92785707  0.41150886  0.21519842  1
  Te  Te175  1  0.90298958  0.43360725  0.58246724  1
  Te  Te176  1  0.93635343  0.40015956  0.94432614  1
  Te  Te177  1  0.88587577  0.74383990  0.24605188  1
  Te  Te178  1  0.91357241  0.73664763  0.57797365  1
  Te  Te179  1  0.91263035  0.74088967  0.91954927  1
