# generated using pymatgen
data_In2Te3
_symmetry_space_group_name_H-M   'P 1'
_cell_length_a   18.98533670
_cell_length_b   18.97495200
_cell_length_c   18.98356874
_cell_angle_alpha   89.83359766
_cell_angle_beta   90.11127289
_cell_angle_gamma   89.61999903
_symmetry_Int_Tables_number   1
_chemical_formula_structural   In2Te3
_chemical_formula_sum   'In72 Te108'
_cell_volume   6838.55950151
_cell_formula_units_Z   36
loop_
 _symmetry_equiv_pos_site_id
 _symmetry_equiv_pos_as_xyz
  1  'x, y, z'
loop_
 _atom_site_type_symbol
 _atom_site_label
 _atom_site_symmetry_multiplicity
 _atom_site_fract_x
 _atom_site_fract_y
 _atom_site_fract_z
 _atom_site_occupancy
  In  In0  1  0.52396218  0.86297525  0.34581221  1
  In  In1  1  0.33987745  0.50138496  0.82745047  1
  In  In2  1  0.00464558  0.68264883  0.68727776  1
  In  In3  1  0.66003320  0.48964785  0.48292797  1
  In  In4  1  -0.03368326  0.27753246  0.66781199  1
  In  In5  1  0.32541632  -0.01001941  0.33039445  1
  In  In6  1  0.66006190  0.50208943  0.16895090  1
  In  In7  1  0.82933892  0.33009979  0.82881741  1
  In  In8  1  0.80090039  0.85238815  0.31277200  1
  In  In9  1  0.02128124  0.34884992  -0.00162151  1
  In  In10  1  0.85242131  0.49733177  0.66232600  1
  In  In11  1  0.74304132  0.06520505  0.61686245  1
  In  In12  1  -0.06039888  -0.01754684  0.67968781  1
  In  In13  1  0.35332252  0.14828154  0.49264792  1
  In  In14  1  0.51175762  0.81824688  0.68367033  1
  In  In15  1  0.81913522  0.15936219  -0.02382462  1
  In  In16  1  0.36502927  0.76697419  0.20545337  1
  In  In17  1  0.14326433  0.15461688  0.66623691  1
  In  In18  1  -0.00293809  0.46538169  0.49534349  1
  In  In19  1  0.52390959  0.33030129  0.16085349  1
  In  In20  1  0.00180557  0.68859638  0.34028966  1
  In  In21  1  0.84008729  0.52806862  0.02498938  1
  In  In22  1  0.34046819  0.66751800  0.03669027  1
  In  In23  1  0.30596477  0.14099102  0.81068983  1
  In  In24  1  0.66779237  0.29346614  0.35347603  1
  In  In25  1  0.67144222  0.50078955  0.85126752  1
  In  In26  1  0.84806305  0.82547240  -0.00759909  1
  In  In27  1  0.36413234  0.52646601  0.50855849  1
  In  In28  1  0.14945322  -0.01147042  0.17889417  1
  In  In29  1  0.16808285  0.67757954  0.18783867  1
  In  In30  1  0.53396944  0.18614025  0.64425093  1
  In  In31  1  0.15846139  0.50650446  0.69004047  1
  In  In32  1  0.15264623  0.33902281  0.84354543  1
  In  In33  1  -0.01171666  -0.00084618  0.34960740  1
  In  In34  1  0.64514365  0.00443927  0.01455998  1
  In  In35  1  -0.02873615  0.31685313  0.32226583  1
  In  In36  1  0.84211281  0.67267661  0.48536892  1
  In  In37  1  0.17656845  0.31068759  0.50784093  1
  In  In38  1  0.65760865  0.68893666  -0.00426924  1
  In  In39  1  0.81564559  0.32058104  0.17146420  1
  In  In40  1  0.34146069  0.00296252  0.66850470  1
  In  In41  1  0.66390220  0.64872768  0.32818411  1
  In  In42  1  0.35387990  0.18676459  0.16171586  1
  In  In43  1  0.00735616  0.85558267  0.51637828  1
  In  In44  1  0.64491505  0.84706983  0.15746684  1
  In  In45  1  0.18655723  0.50894156  0.34706911  1
  In  In46  1  0.18383262  0.65666150  0.53021272  1
  In  In47  1  0.49914739  0.18786636  -0.00054762  1
  In  In48  1  0.00495864  0.49999489  0.82054279  1
  In  In49  1  0.17151385  0.81956472  0.03402122  1
  In  In50  1  0.67392444  0.86282541  0.52752535  1
  In  In51  1  -0.01182570  0.83525564  0.15906129  1
  In  In52  1  0.14332265  0.19994709  -0.00419248  1
  In  In53  1  0.15590674  -0.00766360  0.82205290  1
  In  In54  1  0.33513876  0.36837586  0.66833370  1
  In  In55  1  -0.01100237  -0.01567399  -0.01986070  1
  In  In56  1  0.49588022  -0.00815551  0.47964373  1
  In  In57  1  0.47242488  0.51516535  0.31035427  1
  In  In58  1  0.50915680  0.50929390  0.00723664  1
  In  In59  1  0.35179096  0.35905102  -0.01331242  1
  In  In60  1  0.51635227  0.31198236  0.82157374  1
  In  In61  1  0.35563825  0.00418178  -0.00284162  1
  In  In62  1  0.14563730  0.16203878  0.33531523  1
  In  In63  1  0.32534114  0.82317982  0.48181030  1
  In  In64  1  0.50601898  -0.01272927  0.84295920  1
  In  In65  1  0.16757116  0.37606278  0.16558686  1
  In  In66  1  0.67483207  0.82447793  0.83455188  1
  In  In67  1  0.15210972  0.68731863  0.83372997  1
  In  In68  1  0.67705117  0.67180345  0.68385744  1
  In  In69  1  -0.02055292  0.16121475  0.16631903  1
  In  In70  1  0.81659831  0.46908157  0.32197269  1
  In  In71  1  0.51508174  0.33786414  0.48843228  1
  Te  Te72  1  0.07330803  0.07657988  0.07807309  1
  Te  Te73  1  0.09257568  0.06509579  0.42944448  1
  Te  Te74  1  0.05260788  0.07812156  0.75572656  1
  Te  Te75  1  0.08479944  0.45476741  0.07519309  1
  Te  Te76  1  0.08768027  0.38968288  0.40090409  1
  Te  Te77  1  0.06227952  0.39048462  0.72223940  1
  Te  Te78  1  0.05775113  0.72449460  0.07778721  1
  Te  Te79  1  0.08835610  0.74665876  0.44548983  1
  Te  Te80  1  0.11194788  0.77569089  0.72162598  1
  Te  Te81  1  0.44171295  0.08277526  0.09435832  1
  Te  Te82  1  0.43203102  0.08726546  0.37864397  1
  Te  Te83  1  0.43476857  0.09514155  0.74513538  1
  Te  Te84  1  0.42211479  0.42707147  0.10025901  1
  Te  Te85  1  0.41014027  0.41830681  0.41439023  1
  Te  Te86  1  0.44719223  0.42850680  0.74838104  1
  Te  Te87  1  0.43149974  0.77876955  0.07193281  1
  Te  Te88  1  0.44139711  0.76396426  0.41670104  1
  Te  Te89  1  0.43723673  0.70435931  0.73616275  1
  Te  Te90  1  0.73326009  0.10250092  0.08214805  1
  Te  Te91  1  0.79601143  0.11110022  0.44917731  1
  Te  Te92  1  0.79422296  0.06701119  0.76112047  1
  Te  Te93  1  0.74489606  0.41854041  0.07739257  1
  Te  Te94  1  0.75916082  0.38495155  0.43218030  1
  Te  Te95  1  0.74615005  0.42477635  0.74126338  1
  Te  Te96  1  0.75194073  0.75872110  0.08949369  1
  Te  Te97  1  0.73280467  0.75393770  0.41662135  1
  Te  Te98  1  0.77634270  0.76440869  0.74342364  1
  Te  Te99  1  0.08502312  0.25431826  0.22342878  1
  Te  Te100  1  0.06164049  0.22673872  0.55866108  1
  Te  Te101  1  0.04601664  0.24136795  0.88776242  1
  Te  Te102  1  0.07857241  0.58154886  0.26605603  1
  Te  Te103  1  0.05895105  0.57104855  0.58463115  1
  Te  Te104  1  0.08535503  0.58169715  0.91016675  1
  Te  Te105  1  0.07314023  0.89674403  0.26884840  1
  Te  Te106  1  0.06879173  0.93800823  0.62008951  1
  Te  Te107  1  0.09402177  0.89390174  0.92042303  1
  Te  Te108  1  0.44158196  0.25466362  0.25506541  1
  Te  Te109  1  0.40382744  0.25708978  0.59133313  1
  Te  Te110  1  0.39083136  0.24468011  0.89434557  1
  Te  Te111  1  0.40003248  0.61749305  0.23068271  1
  Te  Te112  1  0.40119301  0.60658737  0.62232606  1
  Te  Te113  1  0.41312907  0.59039581  0.92457371  1
  Te  Te114  1  0.41215000  0.90973545  0.23985777  1
  Te  Te115  1  0.42601304  0.90778742  0.58597605  1
  Te  Te116  1  0.39123792  0.90900395  0.88983086  1
  Te  Te117  1  0.74308078  0.22144110  0.25056201  1
  Te  Te118  1  0.77962531  0.20232871  0.56547735  1
  Te  Te119  1  0.73203322  0.26020687  0.91333911  1
  Te  Te120  1  0.76677800  0.58552790  0.23663079  1
  Te  Te121  1  0.75491548  0.58052265  0.57147036  1
  Te  Te122  1  0.75848506  0.60341684  0.92034630  1
  Te  Te123  1  0.73446279  0.95079828  0.22187543  1
  Te  Te124  1  0.78653575  0.92123783  0.59979769  1
  Te  Te125  1  0.74128938  0.91676142  0.93235191  1
  Te  Te126  1  0.25748366  0.26774598  0.07158441  1
  Te  Te127  1  0.26018874  0.23599821  0.40747393  1
  Te  Te128  1  0.23689125  0.26222737  0.73789517  1
  Te  Te129  1  0.26859739  0.58098263  0.13346726  1
  Te  Te130  1  0.27409854  0.60929032  0.41738939  1
  Te  Te131  1  0.25504907  0.60072574  0.74926938  1
  Te  Te132  1  0.25790699  0.92887534  0.09059371  1
  Te  Te133  1  0.23994845  0.93353138  0.43297494  1
  Te  Te134  1  0.26942858  0.91657022  0.76480355  1
  Te  Te135  1  0.60753347  0.23336397  0.08841192  1
  Te  Te136  1  0.58596467  0.21602879  0.44733365  1
  Te  Te137  1  0.62116223  0.24537937  0.74433878  1
  Te  Te138  1  0.57803411  0.60723428  0.09788119  1
  Te  Te139  1  0.56013887  0.58321465  0.41598634  1
  Te  Te140  1  0.58607286  0.59919533  0.77614620  1
  Te  Te141  1  0.55139778  0.89490463  0.05143186  1
  Te  Te142  1  0.63541366  0.96280261  0.42043321  1
  Te  Te143  1  0.60116732  0.92433583  0.74435844  1
  Te  Te144  1  0.91670892  0.25761793  0.06602938  1
  Te  Te145  1  0.89966797  0.20272333  0.37687020  1
  Te  Te146  1  0.86417244  0.20546018  0.74935014  1
  Te  Te147  1  0.93591759  0.62915665  0.06013434  1
  Te  Te148  1  0.91305152  0.56088160  0.40826059  1
  Te  Te149  1  0.90356032  0.59738214  0.76267704  1
  Te  Te150  1  0.89959001  0.93653836  0.09116459  1
  Te  Te151  1  0.89493768  0.90284869  0.41901950  1
  Te  Te152  1  0.90381400  0.86823566  0.77794196  1
  Te  Te153  1  0.24608573  0.09428142  0.23269264  1
  Te  Te154  1  0.24718291  0.08314041  0.58079485  1
  Te  Te155  1  0.23361499  0.08568347  0.93133823  1
  Te  Te156  1  0.26453274  0.41498332  0.26611625  1
  Te  Te157  1  0.23614215  0.43504933  0.57210711  1
  Te  Te158  1  0.23804639  0.43674426  0.92091962  1
  Te  Te159  1  0.23367857  0.77753448  0.27001851  1
  Te  Te160  1  0.24986162  0.76755451  0.59673822  1
  Te  Te161  1  0.25391634  0.74205071  0.93440500  1
  Te  Te162  1  0.58526166  -0.02759124  0.25911748  1
  Te  Te163  1  0.58447913  0.06103185  0.58435176  1
  Te  Te164  1  0.58310886  0.09768467  0.90883214  1
  Te  Te165  1  0.59273206  0.41819039  0.27384606  1
  Te  Te166  1  0.58063763  0.42348721  0.58569152  1
  Te  Te167  1  0.58073383  0.40421802  0.92634306  1
  Te  Te168  1  0.58054109  0.74899350  0.25473273  1
  Te  Te169  1  0.59484699  0.74472269  0.57801825  1
  Te  Te170  1  0.56872620  0.73476826  0.88584463  1
  Te  Te171  1  0.89997992  0.07934440  0.25934469  1
  Te  Te172  1  0.89740455  0.08472375  0.57303782  1
  Te  Te173  1  0.88773219  0.05339378  0.89430140  1
  Te  Te174  1  0.92111076  0.41951164  0.22402382  1
  Te  Te175  1  0.90020722  0.38174664  0.57499913  1
  Te  Te176  1  0.90990773  0.42726271  0.91607574  1
  Te  Te177  1  0.89846172  0.75139044  0.25053649  1
  Te  Te178  1  0.91507928  0.75490703  0.58598882  1
  Te  Te179  1  0.94855936  0.78594549  0.89210667  1
