# generated using pymatgen
data_In2Te3
_symmetry_space_group_name_H-M   'P 1'
_cell_length_a   18.80298534
_cell_length_b   18.81147377
_cell_length_c   18.80974882
_cell_angle_alpha   89.99118987
_cell_angle_beta   90.12719810
_cell_angle_gamma   90.00567507
_symmetry_Int_Tables_number   1
_chemical_formula_structural   In2Te3
_chemical_formula_sum   'In72 Te108'
_cell_volume   6653.21483759
_cell_formula_units_Z   36
loop_
 _symmetry_equiv_pos_site_id
 _symmetry_equiv_pos_as_xyz
  1  'x, y, z'
loop_
 _atom_site_type_symbol
 _atom_site_label
 _atom_site_symmetry_multiplicity
 _atom_site_fract_x
 _atom_site_fract_y
 _atom_site_fract_z
 _atom_site_occupancy
  In  In0  1  0.01389041  0.48801267  0.49693153  1
  In  In1  1  0.16579100  -0.01320927  0.50985633  1
  In  In2  1  0.18307477  0.83642163  0.66098271  1
  In  In3  1  0.85308147  0.50157322  0.67579677  1
  In  In4  1  0.51375175  0.32586942  0.83002980  1
  In  In5  1  0.30924958  0.84578609  0.84265819  1
  In  In6  1  0.03392617  0.15360506  0.82107810  1
  In  In7  1  0.50030327  0.17309736  -0.00936700  1
  In  In8  1  0.65730700  0.64588149  0.67753681  1
  In  In9  1  0.33656984  0.15919475  0.82808282  1
  In  In10  1  0.00731419  0.35758687  0.32378319  1
  In  In11  1  0.81949206  0.15572607  0.34069320  1
  In  In12  1  0.83942086  0.31402297  0.15936375  1
  In  In13  1  0.67420703  0.00450853  -0.01993319  1
  In  In14  1  0.82359786  -0.02388227  0.16044782  1
  In  In15  1  0.85624505  0.51953200  0.01785977  1
  In  In16  1  0.31698907  0.65047508  0.32937598  1
  In  In17  1  -0.00399098  0.17245164  0.14380225  1
  In  In18  1  0.16574581  0.17032368  0.34023916  1
  In  In19  1  -0.00775517  0.17874813  0.51578159  1
  In  In20  1  0.86145946  0.64896903  0.83869444  1
  In  In21  1  0.33918093  0.32626306  0.67075016  1
  In  In22  1  0.84161239  0.82610373  0.30731293  1
  In  In23  1  0.48690065  0.64549785  0.47881775  1
  In  In24  1  0.49264961  0.50264939  0.32146534  1
  In  In25  1  0.31581965  -0.00693313  0.34497406  1
  In  In26  1  0.50723613  0.49454709  -0.02202600  1
  In  In27  1  0.85071560  0.19100387  -0.00268408  1
  In  In28  1  0.86059197  0.84014186  0.66575342  1
  In  In29  1  0.16851467  0.33207383  0.83683574  1
  In  In30  1  0.67680036  0.82923630  0.48751264  1
  In  In31  1  0.66504445  0.02730714  0.67446675  1
  In  In32  1  0.33513413  0.01590521  -0.00429906  1
  In  In33  1  0.15380348  0.83012015  0.01510472  1
  In  In34  1  0.33025164  0.48104156  0.85566973  1
  In  In35  1  0.49745053  0.84408531  0.65365439  1
  In  In36  1  0.49177877  0.32265343  0.17272725  1
  In  In37  1  0.81971990  0.17502117  0.67340468  1
  In  In38  1  0.00349062  0.33725397  0.65330055  1
  In  In39  1  0.68369491  0.66335049  0.01116102  1
  In  In40  1  0.49845320  0.18570426  0.33534062  1
  In  In41  1  0.00519790  0.01309549  0.00712658  1
  In  In42  1  -0.02275305  -0.02373232  0.34163276  1
  In  In43  1  0.13606176  0.01041047  0.17690976  1
  In  In44  1  0.67878384  0.48928723  0.17176165  1
  In  In45  1  0.31872912  0.67411987  0.64739126  1
  In  In46  1  0.66740078  0.48263287  0.48942284  1
  In  In47  1  0.67389777  0.81924328  0.17181727  1
  In  In48  1  0.32067955  0.17990668  0.49081124  1
  In  In49  1  0.31905666  0.52236502  0.49563010  1
  In  In50  1  0.82260055  0.51574065  0.34004504  1
  In  In51  1  0.68305421  0.84362490  0.82824819  1
  In  In52  1  0.01421211  0.81157152  0.17124116  1
  In  In53  1  0.64443543  0.17429108  0.15968797  1
  In  In54  1  -0.00339026  0.82479422  0.83449317  1
  In  In55  1  0.66577892  0.32127752  0.65633344  1
  In  In56  1  0.47204101  0.82722475  0.00593609  1
  In  In57  1  0.83798938  0.02690285  0.51210665  1
  In  In58  1  0.17506586  0.50390853  0.66529305  1
  In  In59  1  0.14690713  0.64825982  0.87074492  1
  In  In60  1  0.48477077  0.33886705  0.49139256  1
  In  In61  1  0.50497556  0.66086265  0.82613128  1
  In  In62  1  0.84176332  0.68560097  0.49104496  1
  In  In63  1  0.83864843  0.34916410  0.85432843  1
  In  In64  1  0.33207520  0.81462941  0.16426952  1
  In  In65  1  0.50573644  0.81320899  0.33083097  1
  In  In66  1  0.30437759  0.35308205  0.02656845  1
  In  In67  1  0.02718694  0.80835587  0.48752537  1
  In  In68  1  0.16539640  0.61826419  0.18047608  1
  In  In69  1  0.50083298  -0.00268687  0.53798866  1
  In  In70  1  0.33597232  0.01281098  0.66639061  1
  In  In71  1  0.48911531  0.01616656  0.14574865  1
  Te  Te72  1  0.11067529  0.10942805  0.06351452  1
  Te  Te73  1  0.06776551  0.07516295  0.41604784  1
  Te  Te74  1  0.11938900  0.06399683  0.74317196  1
  Te  Te75  1  0.10651945  0.46520293  0.13437225  1
  Te  Te76  1  0.11317510  0.41853970  0.40893073  1
  Te  Te77  1  0.07943778  0.42447718  0.75358895  1
  Te  Te78  1  0.07418834  0.71281357  0.07038745  1
  Te  Te79  1  0.11517879  0.70374756  0.43017841  1
  Te  Te80  1  0.10602268  0.74661204  0.76055408  1
  Te  Te81  1  0.39618072  0.12274159  0.09029585  1
  Te  Te82  1  0.41658230  0.07576878  0.42506050  1
  Te  Te83  1  0.43563811  0.08665368  0.74647302  1
  Te  Te84  1  0.42309981  0.42930929  0.08895230  1
  Te  Te85  1  0.39240026  0.42329121  0.40317084  1
  Te  Te86  1  0.42290084  0.42399187  0.75051459  1
  Te  Te87  1  0.41727465  0.71960225  0.08998998  1
  Te  Te88  1  0.39742753  0.75095531  0.41867756  1
  Te  Te89  1  0.40591738  0.76161924  0.74970445  1
  Te  Te90  1  0.75758804  0.09470025  0.08939453  1
  Te  Te91  1  0.72952183  0.07708130  0.42667856  1
  Te  Te92  1  0.75941195  0.08392392  0.77231847  1
  Te  Te93  1  0.76112949  0.41083725  0.06995101  1
  Te  Te94  1  0.76029859  0.40157882  0.41049703  1
  Te  Te95  1  0.75184679  0.41592418  0.74703494  1
  Te  Te96  1  0.77445959  0.75005905  0.08913808  1
  Te  Te97  1  0.74127686  0.73658975  0.38726835  1
  Te  Te98  1  0.75915665  0.74097433  0.74114660  1
  Te  Te99  1  0.08348884  0.25634918  0.23838540  1
  Te  Te100  1  0.10022739  0.25988345  0.57347590  1
  Te  Te101  1  0.07668254  0.25328163  0.92252908  1
  Te  Te102  1  0.04733520  0.55209755  0.24302319  1
  Te  Te103  1  0.08131130  0.58675458  0.58691677  1
  Te  Te104  1  0.03462669  0.57182083  0.93728451  1
  Te  Te105  1  0.09002071  0.90073489  0.27211647  1
  Te  Te106  1  0.06620221  0.91123018  0.59599370  1
  Te  Te107  1  0.08844069  0.92362918  0.91675995  1
  Te  Te108  1  0.39266247  0.25209861  0.25679136  1
  Te  Te109  1  0.42597524  0.23420300  0.58756253  1
  Te  Te110  1  0.39472045  0.27316177  0.92233531  1
  Te  Te111  1  0.41288687  0.59124220  0.23412463  1
  Te  Te112  1  0.42413448  0.57603270  0.59793528  1
  Te  Te113  1  0.40616003  0.59612520  0.92263622  1
  Te  Te114  1  0.41768276  0.91941631  0.24387523  1
  Te  Te115  1  0.38256408  0.90235375  0.57213588  1
  Te  Te116  1  0.42170228  0.92997425  0.90422812  1
  Te  Te117  1  0.73765956  0.25147086  0.25362955  1
  Te  Te118  1  0.76085845  0.25411232  0.56437902  1
  Te  Te119  1  0.74605596  0.25039210  0.91319858  1
  Te  Te120  1  0.76650528  0.59434960  0.22782456  1
  Te  Te121  1  0.75666700  0.58666065  0.57526242  1
  Te  Te122  1  0.75271576  0.57182799  0.91143675  1
  Te  Te123  1  0.73191380  0.92630440  0.26905009  1
  Te  Te124  1  0.74450250  0.91480996  0.59430184  1
  Te  Te125  1  0.77177503  0.90868540  0.92630000  1
  Te  Te126  1  0.22222571  0.29099046  0.13320675  1
  Te  Te127  1  0.25506244  0.27393877  0.39690961  1
  Te  Te128  1  0.23704343  0.23818911  0.73945607  1
  Te  Te129  1  0.24656724  0.54719572  0.07857647  1
  Te  Te130  1  0.20987539  0.57029062  0.40130001  1
  Te  Te131  1  0.25771606  0.59125413  0.76516620  1
  Te  Te132  1  0.24755548  0.92570361  0.09180229  1
  Te  Te133  1  0.22934305  0.89593325  0.41277239  1
  Te  Te134  1  0.22864354  0.95146594  0.76624419  1
  Te  Te135  1  0.58816200  0.27537640  0.06228520  1
  Te  Te136  1  0.58966581  0.26469439  0.41894922  1
  Te  Te137  1  0.58592130  0.23132874  0.74316689  1
  Te  Te138  1  0.58496889  0.57501522  0.08481785  1
  Te  Te139  1  0.59842185  0.58503100  0.39763503  1
  Te  Te140  1  0.58571245  0.55356716  0.76598559  1
  Te  Te141  1  0.58376702  0.91652705  0.07793444  1
  Te  Te142  1  0.56989454  0.91594473  0.42347382  1
  Te  Te143  1  0.57774003  0.92545289  0.75357473  1
  Te  Te144  1  0.95276433  0.29063577  0.05706574  1
  Te  Te145  1  0.92359306  0.24958667  0.40021048  1
  Te  Te146  1  0.92662013  0.25821814  0.75832929  1
  Te  Te147  1  0.96297955  0.59997812  0.08558190  1
  Te  Te148  1  0.93276711  0.59130589  0.41401715  1
  Te  Te149  1  0.95324351  0.58794193  0.74024759  1
  Te  Te150  1  0.92923011  0.90270428  0.08105404  1
  Te  Te151  1  0.89782924  0.89592128  0.44258203  1
  Te  Te152  1  0.91124107  0.92885856  0.77039368  1
  Te  Te153  1  0.25090623  0.08672834  0.24361096  1
  Te  Te154  1  0.23482359  0.09782871  0.58684277  1
  Te  Te155  1  0.23930285  0.10236661  0.92460895  1
  Te  Te156  1  0.24687883  0.42997490  0.19298768  1
  Te  Te157  1  0.25237149  0.40838501  0.57647421  1
  Te  Te158  1  0.20817300  0.44154407  0.93829640  1
  Te  Te159  1  0.22735116  0.74432180  0.24601222  1
  Te  Te160  1  0.21786477  0.73360481  0.55387504  1
  Te  Te161  1  0.25346210  0.74297838  0.93840425  1
  Te  Te162  1  0.57740328  0.07699387  0.25409362  1
  Te  Te163  1  0.59700285  0.10478103  0.56806699  1
  Te  Te164  1  0.58569368  0.09228638  0.90196756  1
  Te  Te165  1  0.58925412  0.40238814  0.26060914  1
  Te  Te166  1  0.57010319  0.42271284  0.58772162  1
  Te  Te167  1  0.60644139  0.41204137  0.90736417  1
  Te  Te168  1  0.57269550  0.72985361  0.23095324  1
  Te  Te169  1  0.57929611  0.74105773  0.57547585  1
  Te  Te170  1  0.58515716  0.75488328  0.91897791  1
  Te  Te171  1  0.92010202  0.07883099  0.24022545  1
  Te  Te172  1  0.93402532  0.07998220  0.61460602  1
  Te  Te173  1  0.91943943  0.08887835  0.90885638  1
  Te  Te174  1  0.90417518  0.42712259  0.23643577  1
  Te  Te175  1  0.90125537  0.40874064  0.56489117  1
  Te  Te176  1  0.94028854  0.44537142  0.91391727  1
  Te  Te177  1  0.94043195  0.72566517  0.26630905  1
  Te  Te178  1  0.94321037  0.73445733  0.59495884  1
  Te  Te179  1  0.91261450  0.75094737  0.93128163  1
