# generated using pymatgen
data_In2Te3
_symmetry_space_group_name_H-M   'P 1'
_cell_length_a   18.79555688
_cell_length_b   18.79433805
_cell_length_c   18.79927994
_cell_angle_alpha   90.04179770
_cell_angle_beta   89.92413879
_cell_angle_gamma   90.00249776
_symmetry_Int_Tables_number   1
_chemical_formula_structural   In2Te3
_chemical_formula_sum   'In72 Te108'
_cell_volume   6640.83898249
_cell_formula_units_Z   36
loop_
 _symmetry_equiv_pos_site_id
 _symmetry_equiv_pos_as_xyz
  1  'x, y, z'
loop_
 _atom_site_type_symbol
 _atom_site_label
 _atom_site_symmetry_multiplicity
 _atom_site_fract_x
 _atom_site_fract_y
 _atom_site_fract_z
 _atom_site_occupancy
  In  In0  1  0.67612891  0.49203566  0.48169493  1
  In  In1  1  0.15708258  0.15864981  0.31265452  1
  In  In2  1  0.82727615  0.17720197  0.65419917  1
  In  In3  1  0.00027028  0.34093502  0.66477017  1
  In  In4  1  0.17405358  0.52680954  0.67628335  1
  In  In5  1  0.48497561  0.50209690  0.65052480  1
  In  In6  1  0.51612915  0.16482974  0.67103006  1
  In  In7  1  0.66372381  0.49520516  0.16874354  1
  In  In8  1  0.34544717  0.83833149  0.79815847  1
  In  In9  1  -0.00530704  0.33015223  0.33294186  1
  In  In10  1  0.04828389  0.20530571  0.86725870  1
  In  In11  1  0.83343213  0.83683769  0.02118905  1
  In  In12  1  0.66503156  0.34612834  0.00942921  1
  In  In13  1  0.82253584  -0.00659838  0.48239234  1
  In  In14  1  0.67648086  0.48712811  0.82842894  1
  In  In15  1  0.15833069  -0.02269035  0.48679658  1
  In  In16  1  0.64446017  0.17787216  0.82940059  1
  In  In17  1  0.01346259  0.83913526  0.82827708  1
  In  In18  1  0.84447900  0.83067174  0.32603605  1
  In  In19  1  0.01276367  0.50541213  0.17843898  1
  In  In20  1  0.00252002  0.16755407  0.17598795  1
  In  In21  1  0.84276620  0.48439216  0.00323769  1
  In  In22  1  0.16362785  0.15752220  0.64862630  1
  In  In23  1  0.84034623  0.16801928  0.02760504  1
  In  In24  1  0.00567251  0.49771135  0.84058528  1
  In  In25  1  0.35303866  0.33189631  0.68413901  1
  In  In26  1  0.70261361  0.18378566  0.19342807  1
  In  In27  1  0.83895270  0.34916223  0.83310109  1
  In  In28  1  0.32571635  0.81636220  0.18096862  1
  In  In29  1  0.50041151  0.81843775  0.00924543  1
  In  In30  1  0.65079865  0.00376595  0.66154779  1
  In  In31  1  0.18299494  0.82521392  0.66995080  1
  In  In32  1  -0.01219432  0.65725612  0.65935677  1
  In  In33  1  0.83639433  0.66057328  0.48589272  1
  In  In34  1  0.33496478  0.17576939  0.83096148  1
  In  In35  1  0.51490654  0.82935413  0.34620854  1
  In  In36  1  0.49175760  0.49271642  0.01071409  1
  In  In37  1  0.48786724  0.18446723  0.33491141  1
  In  In38  1  0.33689479  0.50834522  0.17182452  1
  In  In39  1  0.66221399  -0.00149340  0.34253339  1
  In  In40  1  -0.00073662  0.50368427  0.48255503  1
  In  In41  1  0.65390188  0.84034213  0.81811004  1
  In  In42  1  0.33311023  0.51189681  0.49495974  1
  In  In43  1  0.01723678  -0.00541483  0.65752740  1
  In  In44  1  0.50169266  0.34877445  0.17113078  1
  In  In45  1  0.01137914  -0.01162485  0.00545950  1
  In  In46  1  0.31765221  -0.00135824  0.34568994  1
  In  In47  1  -0.01478750  0.00591589  0.32259888  1
  In  In48  1  0.32374901  0.36257898  0.33209513  1
  In  In49  1  0.48032142  0.67699979  0.84629225  1
  In  In50  1  0.83120311  0.66019938  0.84013267  1
  In  In51  1  0.00453012  0.82592274  0.18127445  1
  In  In52  1  0.32687587  0.01802241  -0.01142668  1
  In  In53  1  0.82895052  0.31959193  0.48660088  1
  In  In54  1  0.48998466  0.00709700  0.14317685  1
  In  In55  1  0.51553395  0.33942705  0.48359888  1
  In  In56  1  0.51258399  0.00989574  0.82229620  1
  In  In57  1  0.16468778  0.82563528  -0.00958714  1
  In  In58  1  0.65683705  0.83066965  0.52026004  1
  In  In59  1  0.19472033  0.48109342  0.00068041  1
  In  In60  1  0.35451144  0.84491247  0.53508575  1
  In  In61  1  0.00968685  0.63273053  -0.00153858  1
  In  In62  1  0.66169434  0.66851189  0.65910702  1
  In  In63  1  0.65480961  0.63820226  0.33570966  1
  In  In64  1  0.14979508  0.00695100  0.17064444  1
  In  In65  1  0.14650261  0.34128951  0.50555659  1
  In  In66  1  0.49673407  0.18415781  -0.02698939  1
  In  In67  1  0.32537838  0.66211412  0.00269545  1
  In  In68  1  0.84964004  -0.00713498  0.83816420  1
  In  In69  1  0.33024588  0.65507170  0.32675067  1
  In  In70  1  0.67940991  0.82265281  0.18243269  1
  In  In71  1  0.31576367  0.15170627  0.50446132  1
  Te  Te72  1  0.10296225  0.10349002  0.06129241  1
  Te  Te73  1  0.07673877  0.08585486  0.41921571  1
  Te  Te74  1  0.07391545  0.09555963  0.75556209  1
  Te  Te75  1  0.07371736  0.42473310  0.06689860  1
  Te  Te76  1  0.09858185  0.42851124  0.39275094  1
  Te  Te77  1  0.09861972  0.41343386  0.75295875  1
  Te  Te78  1  0.08498566  0.73740459  0.08342595  1
  Te  Te79  1  0.09776071  0.73134891  0.35768464  1
  Te  Te80  1  0.08641104  0.73297752  0.74994998  1
  Te  Te81  1  0.40525454  0.11501919  0.07634621  1
  Te  Te82  1  0.42203593  0.07663082  0.42504150  1
  Te  Te83  1  0.40793974  0.07823865  0.73486255  1
  Te  Te84  1  0.39148174  0.39916763  0.07837427  1
  Te  Te85  1  0.43348729  0.44007056  0.40375418  1
  Te  Te86  1  0.40479903  0.44495692  0.76181145  1
  Te  Te87  1  0.42148923  0.72677213  0.10144055  1
  Te  Te88  1  0.41093402  0.75061666  0.41994332  1
  Te  Te89  1  0.40621104  0.72317226  0.72519753  1
  Te  Te90  1  0.74051522  0.08231009  0.09285601  1
  Te  Te91  1  0.74628414  0.09798210  0.41227080  1
  Te  Te92  1  0.74957166  0.08176653  0.75986316  1
  Te  Te93  1  0.77083316  0.39521936  0.10321853  1
  Te  Te94  1  0.76191974  0.41233011  0.38569572  1
  Te  Te95  1  0.75239660  0.40765351  0.73060568  1
  Te  Te96  1  0.75700489  0.73459362  0.09311948  1
  Te  Te97  1  0.73307226  0.76024802  0.40707916  1
  Te  Te98  1  0.75791916  0.75320117  0.74409092  1
  Te  Te99  1  0.10717371  0.27243447  0.22550690  1
  Te  Te100  1  0.05859464  0.23573380  0.56957017  1
  Te  Te101  1  0.14111000  0.29103941  0.96001525  1
  Te  Te102  1  0.05725073  0.61319711  0.28240707  1
  Te  Te103  1  0.09242576  0.59353982  0.56601475  1
  Te  Te104  1  0.11965423  0.58750615  0.89749696  1
  Te  Te105  1  0.09652012  0.90924017  0.27252522  1
  Te  Te106  1  0.07715394  0.88187561  0.57306407  1
  Te  Te107  1  0.10806221  0.93463923  0.89958945  1
  Te  Te108  1  0.39497085  0.26072018  0.24220471  1
  Te  Te109  1  0.41462223  0.25381262  0.56525381  1
  Te  Te110  1  0.39440315  0.28010091  0.92099763  1
  Te  Te111  1  0.43581726  0.57926431  0.25399888  1
  Te  Te112  1  0.38301892  0.60236302  0.60432934  1
  Te  Te113  1  0.39864990  0.56416127  0.91139994  1
  Te  Te114  1  0.42111789  0.91627354  0.25073895  1
  Te  Te115  1  0.43611220  0.93700986  0.61419758  1
  Te  Te116  1  0.42457624  0.91597702  0.91873429  1
  Te  Te117  1  0.74171522  0.29698115  0.27850926  1
  Te  Te118  1  0.72902038  0.25426279  0.57773768  1
  Te  Te119  1  0.75149993  0.25057565  0.91720023  1
  Te  Te120  1  0.75722040  0.57756064  0.25033881  1
  Te  Te121  1  0.75615711  0.57517633  0.58359739  1
  Te  Te122  1  0.74362139  0.57685035  0.93282828  1
  Te  Te123  1  0.76227506  0.93253873  0.24794905  1
  Te  Te124  1  0.75730571  0.91467359  0.59743700  1
  Te  Te125  1  0.74803674  0.91274133  0.91861428  1
  Te  Te126  1  0.19427387  0.23009643  0.08937877  1
  Te  Te127  1  0.24198776  0.24944610  0.41431133  1
  Te  Te128  1  0.23527929  0.25393209  0.74222295  1
  Te  Te129  1  0.23064031  0.59353190  0.09885674  1
  Te  Te130  1  0.23303493  0.57819433  0.40897327  1
  Te  Te131  1  0.23030032  0.59901346  0.79064102  1
  Te  Te132  1  0.25369539  0.91327974  0.08390909  1
  Te  Te133  1  0.25359232  0.88356487  0.41627151  1
  Te  Te134  1  0.24121101  0.93223898  0.75422297  1
  Te  Te135  1  0.58711859  0.24263752  0.09139652  1
  Te  Te136  1  0.60271351  0.25589112  0.39602288  1
  Te  Te137  1  0.56080100  0.27503364  0.75791206  1
  Te  Te138  1  0.58703392  0.58207212  0.07669888  1
  Te  Te139  1  0.57156650  0.59409215  0.45078295  1
  Te  Te140  1  0.57912852  0.58492130  0.75897429  1
  Te  Te141  1  0.59324507  0.91079791  0.08668888  1
  Te  Te142  1  0.57017765  0.93184139  0.44452198  1
  Te  Te143  1  0.54869593  0.89413851  0.71807084  1
  Te  Te144  1  0.92838544  0.26480039  0.09199358  1
  Te  Te145  1  0.92508245  0.23048677  0.41607130  1
  Te  Te146  1  0.92313133  0.24403947  0.75734269  1
  Te  Te147  1  0.90521732  0.58792556  0.09580916  1
  Te  Te148  1  0.90847330  0.57472646  0.38813539  1
  Te  Te149  1  0.90355303  0.56312759  0.74745533  1
  Te  Te150  1  0.91655744  0.93150970  0.10847230  1
  Te  Te151  1  0.93351821  0.90366077  0.42473069  1
  Te  Te152  1  0.91539482  0.90491347  0.73328415  1
  Te  Te153  1  0.26576297  0.08603085  0.23258239  1
  Te  Te154  1  0.24941670  0.04527911  0.58929037  1
  Te  Te155  1  0.23429811  0.10013093  0.91028616  1
  Te  Te156  1  0.23084811  0.42901048  0.24015896  1
  Te  Te157  1  0.25135757  0.41374318  0.58827809  1
  Te  Te158  1  0.25668459  0.38203543  0.90844651  1
  Te  Te159  1  0.22179772  0.74111442  0.25747764  1
  Te  Te160  1  0.25947103  0.73854704  0.57618507  1
  Te  Te161  1  0.25837904  0.75140036  0.89791872  1
  Te  Te162  1  0.57294495  0.08540078  0.24556983  1
  Te  Te163  1  0.60602623  0.10873172  0.56803819  1
  Te  Te164  1  0.59618625  0.07359577  0.93139964  1
  Te  Te165  1  0.59504388  0.40714076  0.26956512  1
  Te  Te166  1  0.59430977  0.41560552  0.58906010  1
  Te  Te167  1  0.57185369  0.40809547  0.90853168  1
  Te  Te168  1  0.57300614  0.73293867  0.24486633  1
  Te  Te169  1  0.56031584  0.72825188  0.56852525  1
  Te  Te170  1  0.59841422  0.74072704  0.92132926  1
  Te  Te171  1  0.89607311  0.10323708  0.25709343  1
  Te  Te172  1  0.91292416  0.07522987  0.57970886  1
  Te  Te173  1  0.93151851  0.09033579  0.92226054  1
  Te  Te174  1  0.91283425  0.41950525  0.24901827  1
  Te  Te175  1  0.90977700  0.42058163  0.57424624  1
  Te  Te176  1  0.94488255  0.39296852  0.93459494  1
  Te  Te177  1  0.92506432  0.72497718  0.25781421  1
  Te  Te178  1  0.91469069  0.75081763  0.57208061  1
  Te  Te179  1  0.92914454  0.75103270  0.92330895  1
