# generated using pymatgen
data_In2Te3
_symmetry_space_group_name_H-M   'P 1'
_cell_length_a   18.79217089
_cell_length_b   18.79200925
_cell_length_c   18.79534752
_cell_angle_alpha   89.98850827
_cell_angle_beta   90.02941917
_cell_angle_gamma   89.96309044
_symmetry_Int_Tables_number   1
_chemical_formula_structural   In2Te3
_chemical_formula_sum   'In72 Te108'
_cell_volume   6637.43642707
_cell_formula_units_Z   36
loop_
 _symmetry_equiv_pos_site_id
 _symmetry_equiv_pos_as_xyz
  1  'x, y, z'
loop_
 _atom_site_type_symbol
 _atom_site_label
 _atom_site_symmetry_multiplicity
 _atom_site_fract_x
 _atom_site_fract_y
 _atom_site_fract_z
 _atom_site_occupancy
  In  In0  1  0.68031865  0.83907900  0.51034729  1
  In  In1  1  0.19715109  0.31234418  0.83194161  1
  In  In2  1  0.52226263  0.33428201  0.80011221  1
  In  In3  1  0.16515941  0.68605620  0.19487762  1
  In  In4  1  0.18181720  0.84969309  0.65241116  1
  In  In5  1  -0.02151786  0.33493685  0.32215180  1
  In  In6  1  0.01428705  0.85576370  0.17710794  1
  In  In7  1  0.66483350  0.50767021  0.19583918  1
  In  In8  1  0.16205909  -0.01135023  0.82169344  1
  In  In9  1  0.01079123  0.49099164  0.84949383  1
  In  In10  1  0.17294150  0.31616667  0.50186033  1
  In  In11  1  0.84360987  0.83563044  -0.00122924  1
  In  In12  1  0.47575792  0.47899428  0.65286113  1
  In  In13  1  0.84683214  0.84859802  0.65687784  1
  In  In14  1  0.31751181  0.83671290  0.82289516  1
  In  In15  1  -0.00075188  0.83763937  0.51483458  1
  In  In16  1  0.66135235  0.83490691  0.16529357  1
  In  In17  1  0.01598960  0.30761477  0.64722805  1
  In  In18  1  0.68466082  0.00393878  0.01634309  1
  In  In19  1  0.49810452  0.50056492  0.02171619  1
  In  In20  1  0.65534964  0.30715033  0.65427817  1
  In  In21  1  -0.01490930  0.68988021  0.67307365  1
  In  In22  1  0.67202681  0.01125048  0.34168332  1
  In  In23  1  0.64376671  0.50814109  0.44960900  1
  In  In24  1  0.14949302  0.66363924  0.48835083  1
  In  In25  1  0.33518975  0.65615637  0.02018358  1
  In  In26  1  0.50568848  0.67997730  0.84479938  1
  In  In27  1  0.34562527  0.33289343  0.63625469  1
  In  In28  1  -0.01224119  0.66939433  0.35402615  1
  In  In29  1  0.18179543  0.49633632  0.32014091  1
  In  In30  1  0.32889807  0.66150478  0.63770058  1
  In  In31  1  0.69829086  0.14116463  0.79771360  1
  In  In32  1  0.82137311  0.84407441  0.34145620  1
  In  In33  1  0.69348696  0.34885714  0.01325068  1
  In  In34  1  0.17955843  0.15628867  0.35391612  1
  In  In35  1  0.67809014  0.51772236  0.84534268  1
  In  In36  1  -0.01292202  0.51338682  0.48682124  1
  In  In37  1  0.34956903  0.34860150  -0.00348924  1
  In  In38  1  0.13292789  0.15833056  0.00145215  1
  In  In39  1  -0.02077057  0.16532941  0.18055660  1
  In  In40  1  0.82628251  0.66897942  0.85779140  1
  In  In41  1  0.48307366  0.00188895  0.81895212  1
  In  In42  1  0.85079702  0.32965652  0.85401900  1
  In  In43  1  0.31218754  0.16950502  0.18201911  1
  In  In44  1  0.14467381  0.65659003  0.80157137  1
  In  In45  1  0.15937281  0.50612472  0.02558488  1
  In  In46  1  -0.00927919  0.02375502  0.01153967  1
  In  In47  1  0.33301163  0.82387588  0.18219630  1
  In  In48  1  -0.01039149  0.13579883  0.82643901  1
  In  In49  1  0.17967671  0.35129780  0.17273780  1
  In  In50  1  0.48445387  0.65407577  0.19342012  1
  In  In51  1  0.33248152  0.16709883  0.80175034  1
  In  In52  1  0.34106799  -0.01285712  -0.01449180  1
  In  In53  1  0.83287416  0.33032472  0.48645342  1
  In  In54  1  0.00388953  -0.00125644  0.32769037  1
  In  In55  1  0.48840810  0.33488505  0.18953683  1
  In  In56  1  0.51246550  0.16491659  0.00477648  1
  In  In57  1  0.47375347  0.02743358  0.47297289  1
  In  In58  1  0.48783578  0.81541588  0.33323609  1
  In  In59  1  0.48635352  0.86694552  0.64493933  1
  In  In60  1  0.66046117  0.83320963  0.83734337  1
  In  In61  1  0.65978912  0.16569576  0.48512279  1
  In  In62  1  0.48868298  0.34204370  0.46956186  1
  In  In63  1  0.16170337  0.82519496  0.01004471  1
  In  In64  1  0.69834452  0.19321342  0.20336587  1
  In  In65  1  -0.02078382  0.33087849  0.02174408  1
  In  In66  1  0.84790210  0.63365954  0.16269544  1
  In  In67  1  0.50643624  -0.00838897  0.19073690  1
  In  In68  1  0.66293703  0.65706321  0.65091080  1
  In  In69  1  -0.00482942  0.00416607  0.66013950  1
  In  In70  1  0.80752745  0.50028022  0.66853169  1
  In  In71  1  0.18987645  0.48101171  0.65235500  1
  Te  Te72  1  0.09095447  0.07147411  0.11606290  1
  Te  Te73  1  0.06629501  0.09253207  0.42820038  1
  Te  Te74  1  0.10231738  0.09600435  0.73423161  1
  Te  Te75  1  0.05934850  0.42626160  0.11142265  1
  Te  Te76  1  0.08255631  0.41517905  0.41903215  1
  Te  Te77  1  0.09005640  0.40801095  0.74617178  1
  Te  Te78  1  0.06544944  0.73990025  0.09101987  1
  Te  Te79  1  0.08632413  0.77566089  0.40459269  1
  Te  Te80  1  0.08010396  0.78339800  0.74905955  1
  Te  Te81  1  0.41466442  0.08221944  0.08836806  1
  Te  Te82  1  0.39467322  0.12393979  0.39020239  1
  Te  Te83  1  0.41393650  0.08080992  0.71377244  1
  Te  Te84  1  0.39777224  0.43264639  0.11461320  1
  Te  Te85  1  0.40884184  0.42482151  0.37374190  1
  Te  Te86  1  0.39486411  0.40880301  0.76153741  1
  Te  Te87  1  0.43076323  0.75326892  0.08832523  1
  Te  Te88  1  0.42827008  0.71554802  0.42391282  1
  Te  Te89  1  0.41970816  0.75199049  0.73577621  1
  Te  Te90  1  0.75558329  0.10931427  0.09347411  1
  Te  Te91  1  0.77029117  0.10380571  0.40257918  1
  Te  Te92  1  0.78808666  0.05566093  0.71745096  1
  Te  Te93  1  0.76764140  0.42375239  0.11840050  1
  Te  Te94  1  0.74099211  0.40507358  0.39413874  1
  Te  Te95  1  0.74002361  0.39730210  0.75995877  1
  Te  Te96  1  0.76326228  0.74738864  0.09327939  1
  Te  Te97  1  0.73864196  0.74466958  0.41275094  1
  Te  Te98  1  0.75256531  0.74519704  0.73866485  1
  Te  Te99  1  0.09417673  0.24958726  0.24931524  1
  Te  Te100  1  0.08065937  0.21018486  0.55503854  1
  Te  Te101  1  0.07193203  0.26607511  0.91005794  1
  Te  Te102  1  0.07114022  0.58312424  0.25813306  1
  Te  Te103  1  0.07978723  0.58370904  0.59983972  1
  Te  Te104  1  0.08211171  0.59969333  0.92880282  1
  Te  Te105  1  0.11080308  0.90730194  0.27605338  1
  Te  Te106  1  0.09989608  0.94341298  0.56346781  1
  Te  Te107  1  0.07728178  0.92370877  0.92950986  1
  Te  Te108  1  0.42065087  0.22570531  0.27053816  1
  Te  Te109  1  0.44204685  0.24390491  0.56975872  1
  Te  Te110  1  0.42094396  0.24356349  0.90934914  1
  Te  Te111  1  0.42805708  0.55955425  0.29421577  1
  Te  Te112  1  0.42442135  0.57970294  0.55732729  1
  Te  Te113  1  0.41662424  0.57769899  0.91659183  1
  Te  Te114  1  0.39873812  0.92774104  0.27582587  1
  Te  Te115  1  0.38824486  0.91478752  0.53557613  1
  Te  Te116  1  0.43118252  0.88908851  0.91128007  1
  Te  Te117  1  0.78821289  0.29517215  0.26814905  1
  Te  Te118  1  0.76683400  0.23337603  0.58598992  1
  Te  Te119  1  0.73492951  0.24442133  0.90708922  1
  Te  Te120  1  0.75559273  0.59820371  0.27486079  1
  Te  Te121  1  0.74407722  0.57441692  0.55211560  1
  Te  Te122  1  0.74949300  0.58578484  0.95339434  1
  Te  Te123  1  0.75201801  0.93337741  0.23727906  1
  Te  Te124  1  0.75713716  0.94471658  0.58454213  1
  Te  Te125  1  0.75942491  0.92644336  0.90719736  1
  Te  Te126  1  0.24436432  0.25541530  0.06562068  1
  Te  Te127  1  0.27977683  0.22024525  0.44773890  1
  Te  Te128  1  0.24086105  0.24145407  0.70384019  1
  Te  Te129  1  0.25281348  0.57935213  0.12237821  1
  Te  Te130  1  0.25184030  0.59772714  0.40281963  1
  Te  Te131  1  0.26273892  0.57761858  0.74831426  1
  Te  Te132  1  0.25242612  0.91765985  0.08916697  1
  Te  Te133  1  0.26726461  0.96272420  0.44070618  1
  Te  Te134  1  0.27740768  0.94831238  0.72657905  1
  Te  Te135  1  0.58917969  0.26163117  0.09466768  1
  Te  Te136  1  0.59798426  0.27008906  0.39730846  1
  Te  Te137  1  0.57328118  0.20680243  0.73388839  1
  Te  Te138  1  0.58798180  0.59639261  0.09468086  1
  Te  Te139  1  0.53685855  0.60433391  0.40511317  1
  Te  Te140  1  0.57409076  0.57196142  0.74460558  1
  Te  Te141  1  0.57129180  0.91837716  0.07324659  1
  Te  Te142  1  0.57850438  0.91571878  0.41439699  1
  Te  Te143  1  0.59219753  0.92743134  0.73803687  1
  Te  Te144  1  0.88949399  0.22518785  0.07488417  1
  Te  Te145  1  0.92807798  0.23752403  0.41994274  1
  Te  Te146  1  0.91659111  0.24389159  0.74578239  1
  Te  Te147  1  0.92814451  0.54827469  0.07515418  1
  Te  Te148  1  0.88805230  0.56308582  0.38938013  1
  Te  Te149  1  0.91287696  0.57358362  0.75359688  1
  Te  Te150  1  0.90699806  0.93217557  0.10024676  1
  Te  Te151  1  0.90901009  0.92850261  0.43233395  1
  Te  Te152  1  0.93157989  0.91368481  0.75900341  1
  Te  Te153  1  0.24217007  0.06318071  0.25549117  1
  Te  Te154  1  0.26783125  0.03369192  0.56465116  1
  Te  Te155  1  0.24910970  0.08872562  0.91522386  1
  Te  Te156  1  0.27183308  0.37967506  0.28775896  1
  Te  Te157  1  0.27378848  0.42892571  0.53965007  1
  Te  Te158  1  0.24345488  0.43087099  0.92205269  1
  Te  Te159  1  0.26969210  0.73902795  0.28662374  1
  Te  Te160  1  0.25307531  0.76141413  0.55203340  1
  Te  Te161  1  0.24815287  0.73674670  0.91626113  1
  Te  Te162  1  0.58260749  0.10330774  0.25757009  1
  Te  Te163  1  0.58150766  0.06874780  0.56562442  1
  Te  Te164  1  0.58904265  0.07481946  0.90830362  1
  Te  Te165  1  0.58063941  0.41344013  0.27736627  1
  Te  Te166  1  0.59728352  0.42303083  0.57567416  1
  Te  Te167  1  0.57712523  0.41041009  0.92319447  1
  Te  Te168  1  0.59834960  0.73740673  0.26133614  1
  Te  Te169  1  0.57135054  0.75559430  0.57918525  1
  Te  Te170  1  0.60881648  0.73424799  0.93395157  1
  Te  Te171  1  0.89459323  0.08774375  0.27467577  1
  Te  Te172  1  0.88801627  0.09016044  0.60520550  1
  Te  Te173  1  0.89166647  0.09539817  0.92795032  1
  Te  Te174  1  0.88573440  0.40953137  0.23139620  1
  Te  Te175  1  0.91771045  0.41904951  0.59303033  1
  Te  Te176  1  0.89834890  0.44631666  0.94530095  1
  Te  Te177  1  0.91532770  0.75862833  0.24979473  1
  Te  Te178  1  0.89650081  0.73327290  0.55927037  1
  Te  Te179  1  0.93301911  0.74892578  0.91848713  1
