# generated using pymatgen
data_In2Te3
_symmetry_space_group_name_H-M   'P 1'
_cell_length_a   18.90029072
_cell_length_b   18.90207070
_cell_length_c   18.89281000
_cell_angle_alpha   90.05587242
_cell_angle_beta   90.03789963
_cell_angle_gamma   89.92748874
_symmetry_Int_Tables_number   1
_chemical_formula_structural   In2Te3
_chemical_formula_sum   'In72 Te108'
_cell_volume   6749.53378731
_cell_formula_units_Z   36
loop_
 _symmetry_equiv_pos_site_id
 _symmetry_equiv_pos_as_xyz
  1  'x, y, z'
loop_
 _atom_site_type_symbol
 _atom_site_label
 _atom_site_symmetry_multiplicity
 _atom_site_fract_x
 _atom_site_fract_y
 _atom_site_fract_z
 _atom_site_occupancy
  In  In0  1  0.34123004  -0.00501059  -0.00149269  1
  In  In1  1  0.36843178  0.14369851  0.81565812  1
  In  In2  1  0.17218926  0.84314344  0.67499082  1
  In  In3  1  0.68294825  0.52028741  0.13911363  1
  In  In4  1  0.66166274  0.16338297  0.50598625  1
  In  In5  1  0.81464281  0.34851744  0.16744504  1
  In  In6  1  0.81741114  0.34046624  0.82889383  1
  In  In7  1  0.18600776  0.34229455  0.16277890  1
  In  In8  1  0.67509473  0.51267780  0.51574874  1
  In  In9  1  0.53272687  0.85871972  0.37158969  1
  In  In10  1  -0.00929917  0.84561420  0.82940747  1
  In  In11  1  0.51622800  0.14631612  -0.01969554  1
  In  In12  1  0.82663353  0.15243331  -0.02652780  1
  In  In13  1  0.49214100  0.32732060  0.17133264  1
  In  In14  1  0.17420584  0.17623573  0.33470338  1
  In  In15  1  0.01229856  0.50961939  0.17589976  1
  In  In16  1  -0.03468214  0.31879675  -0.01956537  1
  In  In17  1  0.49944179  0.50545198  0.00180023  1
  In  In18  1  0.37087188  0.13525002  0.49529691  1
  In  In19  1  0.00820993  0.31135090  0.36783320  1
  In  In20  1  0.18202935  0.83886139  0.34953146  1
  In  In21  1  0.64641413  0.15448107  0.18465877  1
  In  In22  1  0.83205838  0.68355580  0.16756118  1
  In  In23  1  0.81689486  0.50582476  0.32744826  1
  In  In24  1  0.67306375  -0.00673085  0.67240090  1
  In  In25  1  0.81171867  0.83452937  0.66421057  1
  In  In26  1  0.16317434  0.33167643  0.82073869  1
  In  In27  1  -0.03795277  0.67725870  -0.01915750  1
  In  In28  1  0.32133254  0.48655424  0.49035179  1
  In  In29  1  0.64648570  0.16015930  0.81346254  1
  In  In30  1  0.65377379  0.30830301  0.65810899  1
  In  In31  1  0.64287675  0.34213227  0.34233638  1
  In  In32  1  0.33463885  0.17287171  0.19129069  1
  In  In33  1  0.32926544  0.49238569  0.84101708  1
  In  In34  1  0.35274384  0.84236532  0.17174060  1
  In  In35  1  0.51622049  0.66074625  0.16178600  1
  In  In36  1  0.52887000  0.69234922  0.52324668  1
  In  In37  1  0.82082696  0.68770878  0.50467844  1
  In  In38  1  0.48628398  0.48415562  0.66565608  1
  In  In39  1  0.18113363  -0.01003786  0.83463811  1
  In  In40  1  0.80422259  0.84900779  0.34072399  1
  In  In41  1  -0.04751416  0.64913055  0.68675993  1
  In  In42  1  0.33198965  0.84156856  0.83111230  1
  In  In43  1  0.33037324  0.49569275  0.17244148  1
  In  In44  1  -0.00265995  0.13096989  0.16100541  1
  In  In45  1  0.18200995  0.03412356  0.14406985  1
  In  In46  1  0.16609031  0.65086271  0.50393863  1
  In  In47  1  0.51360765  0.68234359  0.82746501  1
  In  In48  1  0.02444707  0.65851639  0.31919586  1
  In  In49  1  -0.00122265  0.33293362  0.66542742  1
  In  In50  1  -0.00173672  -0.01774871  0.67845549  1
  In  In51  1  0.17565858  0.01801759  0.51679909  1
  In  In52  1  0.33438818  0.66555108  0.67651940  1
  In  In53  1  0.83319244  -0.01231997  0.14625113  1
  In  In54  1  0.51562902  0.83004287  -0.01211607  1
  In  In55  1  0.16107211  0.50317056  -0.00422586  1
  In  In56  1  0.16859337  0.32915075  0.51175666  1
  In  In57  1  0.49334818  0.49776452  0.34774633  1
  In  In58  1  0.33940291  0.31825466  0.65262744  1
  In  In59  1  0.65262469  0.50168493  0.83259356  1
  In  In60  1  0.50906471  -0.00862374  0.19235475  1
  In  In61  1  0.17723119  0.68187013  0.84249614  1
  In  In62  1  -0.01804979  -0.01603492  0.31906903  1
  In  In63  1  -0.01477803  0.85732016  0.14916350  1
  In  In64  1  0.16748227  0.67911280  0.16136201  1
  In  In65  1  0.38163709  0.86086965  0.53076655  1
  In  In66  1  0.83731925  0.48363168  -0.03063116  1
  In  In67  1  0.00578418  0.17129999  0.82476440  1
  In  In68  1  0.82355820  0.01291865  0.50485831  1
  In  In69  1  0.66640846  0.83073418  0.14757872  1
  In  In70  1  -0.00446034  0.48972913  0.50600223  1
  In  In71  1  -0.01098963  0.16649955  0.49787515  1
  Te  Te72  1  0.07030481  0.06288659  0.05448680  1
  Te  Te73  1  0.07621640  0.07424371  0.40392145  1
  Te  Te74  1  0.09569381  0.07783158  0.74372179  1
  Te  Te75  1  0.06422706  0.40991116  0.07293290  1
  Te  Te76  1  0.09841283  0.42338601  0.41494605  1
  Te  Te77  1  0.08165404  0.42658829  0.74470985  1
  Te  Te78  1  0.06221902  0.74701899  0.07449490  1
  Te  Te79  1  0.08170786  0.75247032  0.42402783  1
  Te  Te80  1  0.07743417  0.74512997  0.74260511  1
  Te  Te81  1  0.41983659  0.07845128  0.09959049  1
  Te  Te82  1  0.44716924  0.05300366  0.39782906  1
  Te  Te83  1  0.44077666  0.05149080  0.72576077  1
  Te  Te84  1  0.40668979  0.40788777  0.07474756  1
  Te  Te85  1  0.42205157  0.39961609  0.42886192  1
  Te  Te86  1  0.41626819  0.39491401  0.76458452  1
  Te  Te87  1  0.42373012  0.74766670  0.07665660  1
  Te  Te88  1  0.43082884  0.75829042  0.42794895  1
  Te  Te89  1  0.42668068  0.76942458  0.73545018  1
  Te  Te90  1  0.73987985  0.08836162  0.08000286  1
  Te  Te91  1  0.72594210  0.06898099  0.40569751  1
  Te  Te92  1  0.75742425  0.08023055  0.75585169  1
  Te  Te93  1  0.73467488  0.40673347  0.05252282  1
  Te  Te94  1  0.75059900  0.41320912  0.42526661  1
  Te  Te95  1  0.73204555  0.41775670  0.73184384  1
  Te  Te96  1  0.76072081  0.75640841  0.05590081  1
  Te  Te97  1  0.72580094  0.74546988  0.40868080  1
  Te  Te98  1  0.70429186  0.76020911  0.73826494  1
  Te  Te99  1  0.07438767  0.24494837  0.24140183  1
  Te  Te100  1  0.08780222  0.23174928  0.59314221  1
  Te  Te101  1  0.08726864  0.24755027  0.92762053  1
  Te  Te102  1  0.12675348  0.56498599  0.25701784  1
  Te  Te103  1  0.06649191  0.58668368  0.59828757  1
  Te  Te104  1  0.07271219  0.59472276  0.91299295  1
  Te  Te105  1  0.09424303  0.91231383  0.24382089  1
  Te  Te106  1  0.08215978  0.91208860  0.57263391  1
  Te  Te107  1  0.10257904  0.89329318  0.91239231  1
  Te  Te108  1  0.42041648  0.25581025  0.27705099  1
  Te  Te109  1  0.44145929  0.22981538  0.59069325  1
  Te  Te110  1  0.41639119  0.23466045  0.92105294  1
  Te  Te111  1  0.41784136  0.59091906  0.25373787  1
  Te  Te112  1  0.41929413  0.59034672  0.57507091  1
  Te  Te113  1  0.41604591  0.59573179  0.90996207  1
  Te  Te114  1  0.41235241  0.92118733  0.28751342  1
  Te  Te115  1  0.46185575  0.97037046  0.59335754  1
  Te  Te116  1  0.43643962  0.92780991  0.90187632  1
  Te  Te117  1  0.73619990  0.25541151  0.25795226  1
  Te  Te118  1  0.76018593  0.23412121  0.58884842  1
  Te  Te119  1  0.73026624  0.25139460  0.91294097  1
  Te  Te120  1  0.73196365  0.60824367  0.25396922  1
  Te  Te121  1  0.76580882  0.59223206  0.60071739  1
  Te  Te122  1  0.75855686  0.58886795  0.89802458  1
  Te  Te123  1  0.72755787  0.93346276  0.24329208  1
  Te  Te124  1  0.72356190  0.90140708  0.54983505  1
  Te  Te125  1  0.77605625  0.89021079  0.97886419  1
  Te  Te126  1  0.23824584  0.22578215  0.09206638  1
  Te  Te127  1  0.26433201  0.24078142  0.43530972  1
  Te  Te128  1  0.25747507  0.23677693  0.75038125  1
  Te  Te129  1  0.25656685  0.58957172  0.07579488  1
  Te  Te130  1  0.26383583  0.59502918  0.41086935  1
  Te  Te131  1  0.23864248  0.57565871  0.75118797  1
  Te  Te132  1  0.24788044  0.90991604  0.08431572  1
  Te  Te133  1  0.26818913  0.92074684  0.44433105  1
  Te  Te134  1  0.27651300  0.93896411  0.72603730  1
  Te  Te135  1  0.58269400  0.24587162  0.08223292  1
  Te  Te136  1  0.56855761  0.25323333  0.43197351  1
  Te  Te137  1  0.54693165  0.23725737  0.73328292  1
  Te  Te138  1  0.60290689  0.60971223  0.04799575  1
  Te  Te139  1  0.58611994  0.59356587  0.42209433  1
  Te  Te140  1  0.57944962  0.58614978  0.72813581  1
  Te  Te141  1  0.58539783  0.93573782  0.07362083  1
  Te  Te142  1  0.61931404  0.95488213  0.44281660  1
  Te  Te143  1  0.60371680  0.88042907  0.74330980  1
  Te  Te144  1  0.90059429  0.24230183  0.09493434  1
  Te  Te145  1  0.89168412  0.23928602  0.41565430  1
  Te  Te146  1  0.90104784  0.24555952  0.74499033  1
  Te  Te147  1  0.90187115  0.56787440  0.08840905  1
  Te  Te148  1  0.91890268  0.58963188  0.40702036  1
  Te  Te149  1  0.87083075  0.58485109  0.78927248  1
  Te  Te150  1  0.91143731  0.92396593  0.03170915  1
  Te  Te151  1  0.91115893  0.91016503  0.43058213  1
  Te  Te152  1  0.88037675  0.92993073  0.75976330  1
  Te  Te153  1  0.25663299  0.06585463  0.27103182  1
  Te  Te154  1  0.26439126  0.10325080  0.59459783  1
  Te  Te155  1  0.25876630  0.09098657  0.91664494  1
  Te  Te156  1  0.27146331  0.39779777  0.26630784  1
  Te  Te157  1  0.24192130  0.42565760  0.60350268  1
  Te  Te158  1  0.24948817  0.39921868  0.92979140  1
  Te  Te159  1  0.26315409  0.75030735  0.25620339  1
  Te  Te160  1  0.25849783  0.75766265  0.58040278  1
  Te  Te161  1  0.26001967  0.76251523  0.93172230  1
  Te  Te162  1  0.54619279  0.10327260  0.28733154  1
  Te  Te163  1  0.57045833  0.08405986  0.60561379  1
  Te  Te164  1  0.60171997  0.05392323  0.90633109  1
  Te  Te165  1  0.58763212  0.44039699  0.22917916  1
  Te  Te166  1  0.57683591  0.41050959  0.57023670  1
  Te  Te167  1  0.56823532  0.41253112  0.91166993  1
  Te  Te168  1  0.57490833  0.76765567  0.25129141  1
  Te  Te169  1  0.60543944  0.78049984  0.61403980  1
  Te  Te170  1  0.61527105  0.76821423  0.89641426  1
  Te  Te171  1  0.89049375  0.08541173  0.25739787  1
  Te  Te172  1  0.91418733  0.08513961  0.60237190  1
  Te  Te173  1  0.93141556  0.07401377  0.90826816  1
  Te  Te174  1  0.92261936  0.41558139  0.25909880  1
  Te  Te175  1  0.90315001  0.40754145  0.58191954  1
  Te  Te176  1  0.94022208  0.42387426  0.87439990  1
  Te  Te177  1  0.92340862  0.76248321  0.25921074  1
  Te  Te178  1  0.92291772  0.76322051  0.58998262  1
  Te  Te179  1  0.88198070  0.76311452  0.89045859  1
