# generated using pymatgen
data_In2Te3
_symmetry_space_group_name_H-M   'P 1'
_cell_length_a   18.77772101
_cell_length_b   18.78975478
_cell_length_c   18.78863761
_cell_angle_alpha   90.02946719
_cell_angle_beta   90.06946200
_cell_angle_gamma   90.00354508
_symmetry_Int_Tables_number   1
_chemical_formula_structural   In2Te3
_chemical_formula_sum   'In72 Te108'
_cell_volume   6629.16619566
_cell_formula_units_Z   36
loop_
 _symmetry_equiv_pos_site_id
 _symmetry_equiv_pos_as_xyz
  1  'x, y, z'
loop_
 _atom_site_type_symbol
 _atom_site_label
 _atom_site_symmetry_multiplicity
 _atom_site_fract_x
 _atom_site_fract_y
 _atom_site_fract_z
 _atom_site_occupancy
  In  In0  1  0.50411084  0.50978329  0.34697334  1
  In  In1  1  0.15827778  0.00544803  0.16623929  1
  In  In2  1  -0.00259187  0.14132128  0.47110094  1
  In  In3  1  0.82584958  0.84459845  0.33472957  1
  In  In4  1  0.33726908  0.64528758  0.37611887  1
  In  In5  1  0.34807984  0.66584231  -0.01834130  1
  In  In6  1  0.65233543  0.50296745  0.51521368  1
  In  In7  1  0.01604837  0.49419194  0.50582177  1
  In  In8  1  0.83344687  0.29812061  0.15725607  1
  In  In9  1  0.50757433  0.33621764  0.13960806  1
  In  In10  1  0.50610865  -0.01544701  0.49926097  1
  In  In11  1  -0.01675073  0.34078101  0.00183566  1
  In  In12  1  0.83221740  0.67226180  0.51122312  1
  In  In13  1  0.65928521  0.84292617  0.83410153  1
  In  In14  1  0.51770383  0.50009893  -0.02175297  1
  In  In15  1  0.81199474  0.15381872  0.31331163  1
  In  In16  1  0.50089716  0.84066068  -0.01181392  1
  In  In17  1  0.15457002  0.82586228  -0.01896953  1
  In  In18  1  0.81210981  0.50668522  0.31681077  1
  In  In19  1  0.50275516  0.79480774  0.68112156  1
  In  In20  1  0.00412492  0.85336291  0.82520735  1
  In  In21  1  0.33359914  0.32520002  -0.01844423  1
  In  In22  1  0.33659878  0.16126068  0.52091018  1
  In  In23  1  0.33415049  0.01569294  0.68423025  1
  In  In24  1  -0.03339739  0.15341270  0.83675027  1
  In  In25  1  0.19448442  0.50257156  0.67164462  1
  In  In26  1  0.17653785  0.47661931  -0.01567351  1
  In  In27  1  0.81364979  0.86203716  0.00465288  1
  In  In28  1  0.82008902  0.67023662  0.83056027  1
  In  In29  1  -0.00116120  0.64590635  0.65810569  1
  In  In30  1  0.18065607  0.17538651  0.68954456  1
  In  In31  1  0.35365647  0.34590505  0.33749628  1
  In  In32  1  -0.04748070  0.86381262  0.17077940  1
  In  In33  1  0.18975093  0.34215337  0.52794726  1
  In  In34  1  0.17288761  0.67547962  0.17632009  1
  In  In35  1  0.82871919  0.83238162  0.69055983  1
  In  In36  1  0.17417000  0.34255395  0.83653275  1
  In  In37  1  0.66900090  0.67211092  -0.00861957  1
  In  In38  1  0.51272074  0.16536044  0.31732676  1
  In  In39  1  0.66098304  0.48852654  0.16887131  1
  In  In40  1  0.84110681  -0.01027259  0.50624531  1
  In  In41  1  0.67294427  0.16547474  0.50112721  1
  In  In42  1  0.01627253  0.51217606  0.16441986  1
  In  In43  1  0.66354347  0.30276146  -0.01159156  1
  In  In44  1  0.18694318  0.83467226  0.65898975  1
  In  In45  1  0.79270220  0.15211027  0.69525998  1
  In  In46  1  0.17677679  0.82626963  0.34809905  1
  In  In47  1  0.32650717  -0.01404053  0.31891483  1
  In  In48  1  0.16486545  0.16933480  0.31332752  1
  In  In49  1  0.81657158  0.33478792  0.50871087  1
  In  In50  1  0.36020534  0.85203148  0.16089296  1
  In  In51  1  0.02078216  0.67549435  -0.01390703  1
  In  In52  1  0.49302444  0.35770946  0.51262436  1
  In  In53  1  0.34147200  0.17607796  0.83845857  1
  In  In54  1  0.81796224  0.50300598  -0.03506736  1
  In  In55  1  0.32772941  0.49831867  0.19300161  1
  In  In56  1  0.35870248  -0.00069631  -0.01555600  1
  In  In57  1  -0.02445510  0.01103506  0.33547953  1
  In  In58  1  0.53271528  0.18171192  0.69539057  1
  In  In59  1  0.79803443  0.47568139  0.69803461  1
  In  In60  1  0.17894379  0.66835853  0.85247432  1
  In  In61  1  -0.00424729  -0.01112213  0.66326493  1
  In  In62  1  0.50086813  0.01611489  0.15399066  1
  In  In63  1  -0.00108094  0.30675620  0.67743744  1
  In  In64  1  0.66306634  0.83937893  0.51826799  1
  In  In65  1  0.01454885  0.33208338  0.33006618  1
  In  In66  1  0.81266214  0.62800215  0.17541519  1
  In  In67  1  0.18334460  0.17220957  0.00143312  1
  In  In68  1  0.36066766  0.80193581  0.49958452  1
  In  In69  1  0.01844824  0.67581057  0.33891283  1
  In  In70  1  0.81109236  0.02570379  0.12753595  1
  In  In71  1  0.63260431  0.82566568  0.18405331  1
  Te  Te72  1  0.08243879  0.09990551  0.08349931  1
  Te  Te73  1  0.10620022  0.05975555  0.40306235  1
  Te  Te74  1  0.07656099  0.08439181  0.75369401  1
  Te  Te75  1  0.09304121  0.40297989  0.08951295  1
  Te  Te76  1  0.11067830  0.41520809  0.41601635  1
  Te  Te77  1  0.08237499  0.41717935  0.73894518  1
  Te  Te78  1  0.07034151  0.76356086  0.10308586  1
  Te  Te79  1  0.09334602  0.74858554  0.44197041  1
  Te  Te80  1  0.07823536  0.73905235  0.75530095  1
  Te  Te81  1  0.42489039  0.10437008  0.06272421  1
  Te  Te82  1  0.41325362  0.08339607  0.41401257  1
  Te  Te83  1  0.44213427  0.08298453  0.77015710  1
  Te  Te84  1  0.40956297  0.43755939  0.07671543  1
  Te  Te85  1  0.39549393  0.45166810  0.43984336  1
  Te  Te86  1  0.45505368  0.45824611  0.70504142  1
  Te  Te87  1  0.43353042  0.74297931  0.08437029  1
  Te  Te88  1  0.45083538  0.74540042  0.39189580  1
  Te  Te89  1  0.38844838  0.70938042  0.72474309  1
  Te  Te90  1  0.70771022  0.10895848  0.05516283  1
  Te  Te91  1  0.74305484  0.06131393  0.41242105  1
  Te  Te92  1  0.70168785  0.08179297  0.79034546  1
  Te  Te93  1  0.75205415  0.41207944  0.07147632  1
  Te  Te94  1  0.73166253  0.41685107  0.41294457  1
  Te  Te95  1  0.71949035  0.39293106  0.79112808  1
  Te  Te96  1  0.75422009  0.74949025  0.09164128  1
  Te  Te97  1  0.74144400  0.74777592  0.41586677  1
  Te  Te98  1  0.72023221  0.73772660  0.73722293  1
  Te  Te99  1  0.06122005  0.23490402  0.22973822  1
  Te  Te100  1  0.08037559  0.23909840  0.56691830  1
  Te  Te101  1  0.07767534  0.24906325  0.90693737  1
  Te  Te102  1  0.11122490  0.57233836  0.27117462  1
  Te  Te103  1  0.11440945  0.59028378  0.57230932  1
  Te  Te104  1  0.07826082  0.56125849  0.90323547  1
  Te  Te105  1  0.07843118  0.90713999  0.25635081  1
  Te  Te106  1  0.08775797  0.91258446  0.57851075  1
  Te  Te107  1  0.08754970  0.93748740  0.91280622  1
  Te  Te108  1  0.41824951  0.25263582  0.23531362  1
  Te  Te109  1  0.42812860  0.24940299  0.60168629  1
  Te  Te110  1  0.44318563  0.25229490  0.91498634  1
  Te  Te111  1  0.42582113  0.59633879  0.24805225  1
  Te  Te112  1  0.45084295  0.60210407  0.61967574  1
  Te  Te113  1  0.43630952  0.58799166  0.89103339  1
  Te  Te114  1  0.44912578  0.91572456  0.26553837  1
  Te  Te115  1  0.41481049  0.91317031  0.59825541  1
  Te  Te116  1  0.43213858  0.91948270  0.88304999  1
  Te  Te117  1  0.72787884  0.25694285  0.25071833  1
  Te  Te118  1  0.72793611  0.26160578  0.60653866  1
  Te  Te119  1  0.74640586  0.19727893  0.91419232  1
  Te  Te120  1  0.69777896  0.59986642  0.27198613  1
  Te  Te121  1  0.74729983  0.58589815  0.60339813  1
  Te  Te122  1  0.71092090  0.57321093  0.88236541  1
  Te  Te123  1  0.75191448  0.92063147  0.22814142  1
  Te  Te124  1  0.74499524  0.93254125  0.60918971  1
  Te  Te125  1  0.74406312  0.94436783  0.90370252  1
  Te  Te126  1  0.25692050  0.26380268  0.09048348  1
  Te  Te127  1  0.25607124  0.24460230  0.41870667  1
  Te  Te128  1  0.27756023  0.27738268  0.74200818  1
  Te  Te129  1  0.24315572  0.58965595  0.07208894  1
  Te  Te130  1  0.21896524  0.57220121  0.41512082  1
  Te  Te131  1  0.27257866  0.59843575  0.75818332  1
  Te  Te132  1  0.25025316  0.91594826  0.07670450  1
  Te  Te133  1  0.26697295  0.91234778  0.43636853  1
  Te  Te134  1  0.24764336  0.92268496  0.76029908  1
  Te  Te135  1  0.59468277  0.22154351  0.09603463  1
  Te  Te136  1  0.57239903  0.25408331  0.42698846  1
  Te  Te137  1  0.60908994  0.28224347  0.77439865  1
  Te  Te138  1  0.58126944  0.58882484  0.08583036  1
  Te  Te139  1  0.56123359  0.60302939  0.45096691  1
  Te  Te140  1  0.55495924  0.56502994  0.72111524  1
  Te  Te141  1  0.59502026  0.92314631  0.07249194  1
  Te  Te142  1  0.60177037  0.91869628  0.40892113  1
  Te  Te143  1  0.56570468  0.91395651  0.74310057  1
  Te  Te144  1  0.89961541  0.22236446  0.04584365  1
  Te  Te145  1  0.90180107  0.25286017  0.40999943  1
  Te  Te146  1  0.88453137  0.25943708  0.76355384  1
  Te  Te147  1  0.91991744  0.58183851  0.06547385  1
  Te  Te148  1  0.91387271  0.57590393  0.41639640  1
  Te  Te149  1  0.90880089  0.57159717  0.75552030  1
  Te  Te150  1  0.93297810  0.94807916  0.04714278  1
  Te  Te151  1  0.93401620  0.89682724  0.42941458  1
  Te  Te152  1  0.89476346  0.94507909  0.77006610  1
  Te  Te153  1  0.26886878  0.09293721  0.22807853  1
  Te  Te154  1  0.22991962  0.07474819  0.58607161  1
  Te  Te155  1  0.24980652  0.07487666  0.90522170  1
  Te  Te156  1  0.24213965  0.39560339  0.25257547  1
  Te  Te157  1  0.29476478  0.42305503  0.59535857  1
  Te  Te158  1  0.28574354  0.43567066  0.88639870  1
  Te  Te159  1  0.27657238  0.75559018  0.25390868  1
  Te  Te160  1  0.26938721  0.72926753  0.59241687  1
  Te  Te161  1  0.27620314  0.77677852  0.90359327  1
  Te  Te162  1  0.60334512  0.07612457  0.24455169  1
  Te  Te163  1  0.58499389  0.07951134  0.59100910  1
  Te  Te164  1  0.61979576  0.11111900  0.92244915  1
  Te  Te165  1  0.57445822  0.40410567  0.26134586  1
  Te  Te166  1  0.58837513  0.41153880  0.61787851  1
  Te  Te167  1  0.58017052  0.39069555  0.89371547  1
  Te  Te168  1  0.55921925  0.73473487  0.27086039  1
  Te  Te169  1  0.57533913  0.72744589  0.56767641  1
  Te  Te170  1  0.56760047  0.73668898  0.89778413  1
  Te  Te171  1  0.91704614  0.09282632  0.22223062  1
  Te  Te172  1  0.90346194  0.10763870  0.58994169  1
  Te  Te173  1  0.89653870  0.09011606  0.94988656  1
  Te  Te174  1  0.91197910  0.41931384  0.23844742  1
  Te  Te175  1  0.91320369  0.41900367  0.59281105  1
  Te  Te176  1  0.91286162  0.41455836  0.89514124  1
  Te  Te177  1  0.90824692  0.73306890  0.24919887  1
  Te  Te178  1  0.92371671  0.76323710  0.59288141  1
  Te  Te179  1  0.90665201  0.75955934  0.92023031  1
