# generated using pymatgen
data_In2Te3
_symmetry_space_group_name_H-M   'P 1'
_cell_length_a   18.78207311
_cell_length_b   18.79599199
_cell_length_c   18.79090841
_cell_angle_alpha   90.05490945
_cell_angle_beta   90.02494883
_cell_angle_gamma   89.99056688
_symmetry_Int_Tables_number   1
_chemical_formula_structural   In2Te3
_chemical_formula_sum   'In72 Te108'
_cell_volume   6633.70733039
_cell_formula_units_Z   36
loop_
 _symmetry_equiv_pos_site_id
 _symmetry_equiv_pos_as_xyz
  1  'x, y, z'
loop_
 _atom_site_type_symbol
 _atom_site_label
 _atom_site_symmetry_multiplicity
 _atom_site_fract_x
 _atom_site_fract_y
 _atom_site_fract_z
 _atom_site_occupancy
  In  In0  1  0.82648597  0.68974914  0.80413369  1
  In  In1  1  0.51518916  0.14916511  0.64180731  1
  In  In2  1  0.51245785  0.15454967  0.01734553  1
  In  In3  1  0.51650816  0.66117099  0.80689870  1
  In  In4  1  0.34011559  0.32734280  0.01957379  1
  In  In5  1  0.15568370  0.84629104  0.00125252  1
  In  In6  1  0.14742111  0.32999737  0.83042033  1
  In  In7  1  0.32359864  0.13572754  0.19714668  1
  In  In8  1  0.32253922  0.85214584  0.17333227  1
  In  In9  1  -0.00928960  0.50471616  0.82557310  1
  In  In10  1  0.31459733  0.64587087  0.02641925  1
  In  In11  1  0.33160182  0.83390586  0.49833139  1
  In  In12  1  0.66893296  0.17576375  0.17416563  1
  In  In13  1  0.32911099  0.67722948  0.36090060  1
  In  In14  1  0.16463673  0.49662297  0.01009017  1
  In  In15  1  0.32937054  0.52205351  0.82641730  1
  In  In16  1  0.33121989  0.35659989  0.67684878  1
  In  In17  1  0.17353103  0.67826017  0.81284687  1
  In  In18  1  0.51697915  0.66495216  0.16549322  1
  In  In19  1  0.66892905  0.51414835  0.81282049  1
  In  In20  1  0.68280048  0.84856385  0.80755508  1
  In  In21  1  0.01135358  -0.01668259  0.68052945  1
  In  In22  1  0.64756893  0.83217408  0.15560639  1
  In  In23  1  0.83498777  0.49778434  0.35246434  1
  In  In24  1  0.49844500  0.47624238  -0.00252135  1
  In  In25  1  0.01525790  0.15226203  0.82102419  1
  In  In26  1  0.66227337  0.65867368  -0.00369776  1
  In  In27  1  0.81885756  0.16663511  0.66484507  1
  In  In28  1  0.66366629  0.01330980  0.34754093  1
  In  In29  1  -0.00351958  0.16864960  0.49641076  1
  In  In30  1  0.00350053  0.68519922  0.65180743  1
  In  In31  1  0.83960181  0.64652200  0.19175809  1
  In  In32  1  0.49319785  0.83781719  0.33565523  1
  In  In33  1  0.49018583  0.30483805  0.17274811  1
  In  In34  1  0.01185745  0.17828839  0.14767860  1
  In  In35  1  0.81746490  0.16449618  0.34499113  1
  In  In36  1  0.49621115  0.32866672  0.47726738  1
  In  In37  1  0.83144691  0.65522620  0.50749587  1
  In  In38  1  0.68469016  0.63682700  0.37253254  1
  In  In39  1  0.02627669  0.83611530  0.17040785  1
  In  In40  1  0.35166885  0.64510191  0.61761589  1
  In  In41  1  0.66973472  0.14823894  0.83686935  1
  In  In42  1  0.31962865  0.15138563  0.83536255  1
  In  In43  1  0.00472538  -0.01999572  0.34178577  1
  In  In44  1  0.00064612  0.66255111  0.33871200  1
  In  In45  1  0.83170452  0.34493046  0.83443569  1
  In  In46  1  0.80644198  0.46813709  0.02174577  1
  In  In47  1  0.85086486  0.16265570  0.00068647  1
  In  In48  1  0.17776622  0.34876937  0.19521773  1
  In  In49  1  0.49050770  0.49060080  0.34502458  1
  In  In50  1  0.17033812  -0.00678182  0.50143818  1
  In  In51  1  0.52462958  0.83053642  0.64924321  1
  In  In52  1  0.33024863  0.16557128  0.48120479  1
  In  In53  1  -0.01051149  0.69449891  -0.00011749  1
  In  In54  1  0.66426820  0.33750631  0.64642714  1
  In  In55  1  0.32432560  -0.00112243  0.66906759  1
  In  In56  1  0.49364938  0.17216194  0.34108792  1
  In  In57  1  0.82277117  0.83684717  0.37455292  1
  In  In58  1  0.49393606  0.85544714  -0.00512670  1
  In  In59  1  0.49401852  0.35129324  0.82539578  1
  In  In60  1  0.01734111  0.50941222  0.17839545  1
  In  In61  1  -0.01942759  0.35856475  0.63098506  1
  In  In62  1  0.00384164  0.33643993  0.33757986  1
  In  In63  1  0.33704761  0.84832622  0.82455321  1
  In  In64  1  0.16560082  0.33037738  0.50337852  1
  In  In65  1  0.16176306  0.84322705  0.34242280  1
  In  In66  1  0.83774887  0.00524992  0.82419410  1
  In  In67  1  0.16136268  0.66347190  0.50128282  1
  In  In68  1  0.16514615  0.15288644  -0.01080410  1
  In  In69  1  0.83999772  0.82410194  -0.02119947  1
  In  In70  1  0.83625644  0.00181538  0.16657541  1
  In  In71  1  0.67652187  0.34594653  0.35824741  1
  Te  Te72  1  0.07847927  0.06860671  0.07656990  1
  Te  Te73  1  0.09121553  0.08813930  0.40982734  1
  Te  Te74  1  0.11359886  0.06316197  0.75601805  1
  Te  Te75  1  0.07864585  0.39984574  0.08849881  1
  Te  Te76  1  0.08721383  0.42534569  0.41902147  1
  Te  Te77  1  0.08269004  0.42520909  0.73269329  1
  Te  Te78  1  0.10291140  0.72836575  0.09526938  1
  Te  Te79  1  0.06782609  0.76480753  0.43076274  1
  Te  Te80  1  0.09056817  0.77325039  0.73676364  1
  Te  Te81  1  0.39695427  0.08669442  0.07900784  1
  Te  Te82  1  0.42682375  0.07030477  0.42415660  1
  Te  Te83  1  0.42547533  0.08270636  0.74795586  1
  Te  Te84  1  0.41086129  0.42524183  0.11087743  1
  Te  Te85  1  0.38877000  0.40086789  0.40505672  1
  Te  Te86  1  0.43538817  0.45740112  0.73621417  1
  Te  Te87  1  0.42074087  0.75048536  0.08395507  1
  Te  Te88  1  0.44118616  0.74236941  0.44315875  1
  Te  Te89  1  0.41010952  0.74059701  0.73232518  1
  Te  Te90  1  0.74335810  0.08237933  0.07719177  1
  Te  Te91  1  0.77767034  0.05533987  0.44120950  1
  Te  Te92  1  0.72880480  0.06025566  0.72748951  1
  Te  Te93  1  0.70841773  0.39330210  0.09635518  1
  Te  Te94  1  0.74806241  0.43309941  0.45918246  1
  Te  Te95  1  0.76166592  0.42637089  0.72760198  1
  Te  Te96  1  0.75831459  0.73989809  0.08771964  1
  Te  Te97  1  0.71255946  0.76601024  0.45153337  1
  Te  Te98  1  0.75401891  0.77121296  0.70059560  1
  Te  Te99  1  0.09449691  0.23867769  0.26113058  1
  Te  Te100  1  0.07782600  0.24671190  0.60004810  1
  Te  Te101  1  0.06396120  0.25231292  0.92823863  1
  Te  Te102  1  0.10538139  0.58266770  0.27175706  1
  Te  Te103  1  0.07774793  0.57527262  0.58632262  1
  Te  Te104  1  0.08778402  0.58886808  0.91359468  1
  Te  Te105  1  0.11550477  0.94811479  0.23123722  1
  Te  Te106  1  0.08396557  0.90232223  0.57727738  1
  Te  Te107  1  0.04799374  0.88704757  0.91239185  1
  Te  Te108  1  0.38428441  0.25573920  0.27040206  1
  Te  Te109  1  0.41326266  0.25314435  0.59223843  1
  Te  Te110  1  0.41896652  0.25082035  0.91246552  1
  Te  Te111  1  0.42045304  0.59915004  0.26034778  1
  Te  Te112  1  0.45402715  0.55939898  0.55390962  1
  Te  Te113  1  0.43079364  0.59389733  0.92425168  1
  Te  Te114  1  0.42877623  0.92955688  0.24088377  1
  Te  Te115  1  0.42381700  0.92449150  0.57969640  1
  Te  Te116  1  0.40476406  0.94247365  0.91605269  1
  Te  Te117  1  0.75950528  0.26997326  0.25077384  1
  Te  Te118  1  0.74074795  0.24112962  0.56365771  1
  Te  Te119  1  0.75150017  0.24733111  0.91880438  1
  Te  Te120  1  0.73361560  0.55682550  0.25004109  1
  Te  Te121  1  0.72213452  0.59865189  0.59150355  1
  Te  Te122  1  0.76849744  0.58861954  0.91066107  1
  Te  Te123  1  0.74858424  0.91166784  0.25601830  1
  Te  Te124  1  0.70602029  0.94887126  0.53332102  1
  Te  Te125  1  0.74479231  0.92736942  0.92380519  1
  Te  Te126  1  0.24042317  0.24098349  0.09326570  1
  Te  Te127  1  0.24159261  0.25181775  0.40128955  1
  Te  Te128  1  0.24380477  0.24890840  0.74524301  1
  Te  Te129  1  0.24665874  0.55489223  0.12461191  1
  Te  Te130  1  0.26052341  0.57162428  0.43819302  1
  Te  Te131  1  0.24483322  0.58190336  0.71749939  1
  Te  Te132  1  0.25516774  0.93229427  0.06853498  1
  Te  Te133  1  0.27429137  0.93317687  0.39688744  1
  Te  Te134  1  0.22887676  0.91730917  0.74924338  1
  Te  Te135  1  0.59944246  0.27211473  0.06721285  1
  Te  Te136  1  0.60552623  0.23056913  0.42863769  1
  Te  Te137  1  0.58316014  0.25083399  0.75049295  1
  Te  Te138  1  0.59465002  0.55904713  0.08829227  1
  Te  Te139  1  0.57004809  0.57234462  0.44622315  1
  Te  Te140  1  0.60927804  0.60171630  0.70382975  1
  Te  Te141  1  0.57897663  0.93868627  0.08341855  1
  Te  Te142  1  0.57818601  0.92062735  0.43110968  1
  Te  Te143  1  0.56825948  0.92458736  0.75415748  1
  Te  Te144  1  0.90257898  0.26197645  0.09635559  1
  Te  Te145  1  0.90085518  0.26402101  0.42714431  1
  Te  Te146  1  0.92032195  0.25308189  0.74916231  1
  Te  Te147  1  0.91608770  0.58083323  0.07497926  1
  Te  Te148  1  0.93933159  0.56715565  0.44054791  1
  Te  Te149  1  0.90664022  0.58374707  0.72867256  1
  Te  Te150  1  0.92168765  0.90613161  0.08313650  1
  Te  Te151  1  0.92197184  0.91853737  0.44816915  1
  Te  Te152  1  0.88489544  0.91251553  0.71917389  1
  Te  Te153  1  0.23364249  0.04809329  0.27297205  1
  Te  Te154  1  0.24175683  0.09794940  0.58662648  1
  Te  Te155  1  0.23836780  0.05142605  0.90844353  1
  Te  Te156  1  0.25911488  0.45808892  0.24743899  1
  Te  Te157  1  0.25740930  0.42794410  0.57187818  1
  Te  Te158  1  0.26069235  0.41358952  0.91227884  1
  Te  Te159  1  0.24390764  0.74930495  0.25405422  1
  Te  Te160  1  0.24587618  0.75512992  0.59300124  1
  Te  Te161  1  0.26139899  0.74433760  0.92136719  1
  Te  Te162  1  0.57239826  0.08172908  0.24367383  1
  Te  Te163  1  0.60737994  0.06424677  0.56559650  1
  Te  Te164  1  0.57367185  0.06792466  0.91438178  1
  Te  Te165  1  0.57802970  0.40108523  0.25671102  1
  Te  Te166  1  0.55922695  0.42060782  0.57844519  1
  Te  Te167  1  0.60637455  0.41402703  0.90866617  1
  Te  Te168  1  0.60411244  0.73833125  0.26912692  1
  Te  Te169  1  0.62502299  0.73651838  0.58928023  1
  Te  Te170  1  0.58890926  0.75647002  0.90485552  1
  Te  Te171  1  0.92153533  0.08813691  0.26021723  1
  Te  Te172  1  0.92221229  0.07972932  0.59374467  1
  Te  Te173  1  0.93839811  0.06556652  0.92158417  1
  Te  Te174  1  0.91281985  0.42068233  0.24577394  1
  Te  Te175  1  0.87824013  0.42212776  0.54833633  1
  Te  Te176  1  0.92356709  0.41780532  0.93152696  1
  Te  Te177  1  0.91217851  0.76492555  0.25782641  1
  Te  Te178  1  0.89988483  0.76570170  0.57898501  1
  Te  Te179  1  0.94396028  0.77535039  0.87305581  1
