# generated using pymatgen
data_In2Te3
_symmetry_space_group_name_H-M   'P 1'
_cell_length_a   18.79829468
_cell_length_b   18.80652053
_cell_length_c   18.80330294
_cell_angle_alpha   89.95882049
_cell_angle_beta   89.96892918
_cell_angle_gamma   90.04797943
_symmetry_Int_Tables_number   1
_chemical_formula_structural   In2Te3
_chemical_formula_sum   'In72 Te108'
_cell_volume   6647.53634174
_cell_formula_units_Z   36
loop_
 _symmetry_equiv_pos_site_id
 _symmetry_equiv_pos_as_xyz
  1  'x, y, z'
loop_
 _atom_site_type_symbol
 _atom_site_label
 _atom_site_symmetry_multiplicity
 _atom_site_fract_x
 _atom_site_fract_y
 _atom_site_fract_z
 _atom_site_occupancy
  In  In0  1  0.01462103  0.48422682  0.51270245  1
  In  In1  1  0.66288231  0.48685856  0.18409693  1
  In  In2  1  0.47806948  0.66531187  0.51977478  1
  In  In3  1  0.85265860  -0.00998542  0.19126230  1
  In  In4  1  0.50778990  0.84613189  0.35687037  1
  In  In5  1  0.16793717  0.50509968  0.65209418  1
  In  In6  1  0.00615706  0.34137693  -0.00967372  1
  In  In7  1  0.02559164  0.66097680  0.33908233  1
  In  In8  1  0.33584220  0.32255360  0.33756335  1
  In  In9  1  0.84084238  0.32686253  0.18181673  1
  In  In10  1  0.49898828  0.64709473  0.19138737  1
  In  In11  1  0.83489128  0.17322148  0.66070242  1
  In  In12  1  0.48297707  0.02505845  0.48144259  1
  In  In13  1  0.01839233  0.14902748  0.18114167  1
  In  In14  1  0.30590177  0.83964163  0.48559343  1
  In  In15  1  0.48822334  0.48121670  0.32488498  1
  In  In16  1  0.15902069  0.66223003  0.17129279  1
  In  In17  1  0.69495624  0.67887182  0.00101260  1
  In  In18  1  0.16016266  0.16477527  0.01492510  1
  In  In19  1  0.82612771  0.83704381  0.65074409  1
  In  In20  1  0.33056891  0.47713426  0.82127934  1
  In  In21  1  0.31715514  0.83432093  0.17203374  1
  In  In22  1  0.19113808  0.31598684  0.82458922  1
  In  In23  1  0.16206919  0.65963429  0.84405520  1
  In  In24  1  -0.01094402  0.01893654  0.66075243  1
  In  In25  1  0.81722014  0.66462123  0.52126201  1
  In  In26  1  -0.00339742  0.51049295  0.83275899  1
  In  In27  1  -0.00815587  0.31839072  0.66424898  1
  In  In28  1  0.31624314  0.47392703  0.16511843  1
  In  In29  1  0.31685407  0.69400088  -0.00300467  1
  In  In30  1  0.02582708  0.84417425  0.17340152  1
  In  In31  1  0.65040164  0.83856958  0.83525225  1
  In  In32  1  0.84827953  0.86199661  0.32026339  1
  In  In33  1  0.66126706  0.67157691  0.34348908  1
  In  In34  1  0.49087503  0.68028943  0.81211273  1
  In  In35  1  0.48219286  0.87223757  0.00538766  1
  In  In36  1  0.33895115  -0.01675385  0.00137071  1
  In  In37  1  0.16912459  0.82125612  0.66781867  1
  In  In38  1  0.01466400  0.82734335  0.84662019  1
  In  In39  1  0.69474574  0.46415645  0.79846473  1
  In  In40  1  0.47241510  0.15930921  0.32298633  1
  In  In41  1  0.49175112  0.82546242  0.65230636  1
  In  In42  1  0.48206081  0.50173623  0.66958365  1
  In  In43  1  0.68025466  0.50052194  0.51498598  1
  In  In44  1  0.65102663  0.84568102  0.51351575  1
  In  In45  1  0.68859408  0.18071472  0.81896545  1
  In  In46  1  0.00505171  0.82738557  0.48069733  1
  In  In47  1  0.85520722  0.47376280  0.34322004  1
  In  In48  1  0.49061918  0.49462033  -0.00502094  1
  In  In49  1  0.16191790  0.32504266  0.49825800  1
  In  In50  1  0.32988223  0.33428623  0.00753186  1
  In  In51  1  0.48122895  0.32149562  0.50239280  1
  In  In52  1  0.15282566  -0.00258881  0.80771094  1
  In  In53  1  0.68290734  0.16468087  0.49282031  1
  In  In54  1  0.48519171  0.17419708  0.65955584  1
  In  In55  1  0.85437499  0.67698681  0.81842204  1
  In  In56  1  0.49203791  -0.01592334  0.83493665  1
  In  In57  1  0.49410038  0.14961460  0.03588219  1
  In  In58  1  0.84592878  0.65343595  0.14858391  1
  In  In59  1  0.66888818  0.18389144  0.16992459  1
  In  In60  1  0.49581589  0.35217378  0.83430545  1
  In  In61  1  0.00859653  0.00441813  0.34248427  1
  In  In62  1  0.32134029  0.17751548  0.81065261  1
  In  In63  1  0.13500651  0.33508506  0.18952681  1
  In  In64  1  0.18246743  0.02414748  0.51019138  1
  In  In65  1  0.84743040  0.16348937  -0.02590795  1
  In  In66  1  0.85436723  0.03460571  0.83086474  1
  In  In67  1  0.85195467  0.50159086  0.00189309  1
  In  In68  1  0.67477986  0.01767760  -0.00375135  1
  In  In69  1  0.48492835  0.01081755  0.16634154  1
  In  In70  1  0.84809858  0.83175194  0.00832553  1
  In  In71  1  0.84361926  0.32391305  0.49322244  1
  Te  Te72  1  0.12155656  0.06329701  0.11689355  1
  Te  Te73  1  0.09927871  0.10363518  0.41049645  1
  Te  Te74  1  0.07832207  0.10517947  0.74045282  1
  Te  Te75  1  0.08907989  0.42369514  0.07979580  1
  Te  Te76  1  0.06692288  0.39764503  0.40732880  1
  Te  Te77  1  0.09183226  0.41114199  0.74848997  1
  Te  Te78  1  0.09183528  0.75512578  0.07746854  1
  Te  Te79  1  0.11623520  0.74728270  0.42121885  1
  Te  Te80  1  0.07077992  0.73143535  0.74273244  1
  Te  Te81  1  0.36732143  0.09905758  0.10934560  1
  Te  Te82  1  0.36322471  0.08513125  0.40057984  1
  Te  Te83  1  0.40748923  0.07013048  0.74161426  1
  Te  Te84  1  0.43585892  0.40122542  0.10074191  1
  Te  Te85  1  0.39618370  0.42906603  0.43478192  1
  Te  Te86  1  0.39578610  0.38304966  0.72254411  1
  Te  Te87  1  0.42587794  0.74822801  0.09309536  1
  Te  Te88  1  0.40761625  0.74014569  0.40653392  1
  Te  Te89  1  0.39198355  0.75061913  0.73121621  1
  Te  Te90  1  0.77072119  0.08678184  0.09168278  1
  Te  Te91  1  0.79103038  0.11079241  0.40712581  1
  Te  Te92  1  0.74234725  0.06687225  0.73573674  1
  Te  Te93  1  0.75747408  0.41588801  0.08754781  1
  Te  Te94  1  0.73891903  0.40443883  0.41239572  1
  Te  Te95  1  0.77293694  0.37723108  0.71054405  1
  Te  Te96  1  0.75148539  0.76964294  0.10974672  1
  Te  Te97  1  0.75504790  0.76484603  0.41986130  1
  Te  Te98  1  0.74045222  0.75194156  0.74776569  1
  Te  Te99  1  0.09800512  0.22388240  0.28383423  1
  Te  Te100  1  0.06439514  0.23372053  0.56822281  1
  Te  Te101  1  0.08525080  0.24102336  0.90545381  1
  Te  Te102  1  0.09817641  0.55998787  0.26156104  1
  Te  Te103  1  0.10007877  0.59651178  0.55645916  1
  Te  Te104  1  0.08385511  0.57202646  0.93376786  1
  Te  Te105  1  0.10838939  0.91641709  0.27519783  1
  Te  Te106  1  0.08102607  0.92325989  0.58148829  1
  Te  Te107  1  0.09395843  0.92479461  0.92280186  1
  Te  Te108  1  0.42788026  0.26902915  0.23365621  1
  Te  Te109  1  0.38280139  0.21884614  0.55752458  1
  Te  Te110  1  0.41647617  0.24710480  0.91642801  1
  Te  Te111  1  0.38408262  0.57674044  0.26086389  1
  Te  Te112  1  0.38335968  0.57590880  0.58822278  1
  Te  Te113  1  0.40372233  0.58715858  0.91226465  1
  Te  Te114  1  0.40897464  0.91770742  0.26475258  1
  Te  Te115  1  0.40882076  0.92098171  0.56541451  1
  Te  Te116  1  0.38811350  0.88649791  0.88792782  1
  Te  Te117  1  0.73949632  0.26543770  0.27119455  1
  Te  Te118  1  0.73330846  0.27194352  0.59458429  1
  Te  Te119  1  0.74996017  0.26177347  0.92417241  1
  Te  Te120  1  0.75679077  0.58411518  0.25916258  1
  Te  Te121  1  0.74637888  0.58014957  0.61988836  1
  Te  Te122  1  0.75634753  0.58062667  0.90234822  1
  Te  Te123  1  0.73409390  0.92887004  0.25548170  1
  Te  Te124  1  0.75043087  0.93690374  0.57408854  1
  Te  Te125  1  0.75840398  0.91612282  0.91388128  1
  Te  Te126  1  0.24084766  0.25874189  0.10478341  1
  Te  Te127  1  0.24241812  0.23103426  0.40955204  1
  Te  Te128  1  0.22911013  0.23193397  0.70449573  1
  Te  Te129  1  0.25241081  0.58146325  0.07681606  1
  Te  Te130  1  0.27010041  0.64364964  0.38532915  1
  Te  Te131  1  0.25652529  0.58704897  0.74769782  1
  Te  Te132  1  0.23324749  0.91876673  0.08438778  1
  Te  Te133  1  0.22363742  0.92929564  0.39868458  1
  Te  Te134  1  0.25181655  0.93045874  0.72228080  1
  Te  Te135  1  0.59633868  0.25206638  0.06077541  1
  Te  Te136  1  0.57296428  0.23755122  0.41562038  1
  Te  Te137  1  0.57973257  0.25864873  0.74583260  1
  Te  Te138  1  0.59087504  0.58660149  0.08146396  1
  Te  Te139  1  0.57104753  0.57672009  0.42096618  1
  Te  Te140  1  0.58044623  0.56785302  0.76580299  1
  Te  Te141  1  0.59507264  0.92644816  0.08900072  1
  Te  Te142  1  0.60147616  0.95239481  0.41391875  1
  Te  Te143  1  0.58306417  0.92294006  0.72844890  1
  Te  Te144  1  0.93327609  0.23938677  0.08669952  1
  Te  Te145  1  0.90068939  0.21907884  0.40439981  1
  Te  Te146  1  0.91099835  0.24503976  0.76561065  1
  Te  Te147  1  0.94908661  0.56568173  0.09279747  1
  Te  Te148  1  0.91184669  0.59019492  0.42431416  1
  Te  Te149  1  0.92081871  0.58164745  0.72782300  1
  Te  Te150  1  0.93847050  0.93096469  0.08079372  1
  Te  Te151  1  0.90845850  0.93735244  0.43789940  1
  Te  Te152  1  0.91796316  0.90916513  0.75662593  1
  Te  Te153  1  0.31866937  0.07511948  0.25680307  1
  Te  Te154  1  0.26473016  0.11887296  0.59343800  1
  Te  Te155  1  0.25732476  0.08916390  0.91805275  1
  Te  Te156  1  0.23123849  0.42021781  0.27800322  1
  Te  Te157  1  0.25464546  0.41910660  0.56801476  1
  Te  Te158  1  0.23542901  0.42239188  0.92675056  1
  Te  Te159  1  0.24423177  0.73976979  0.27374923  1
  Te  Te160  1  0.23956756  0.73494464  0.56831722  1
  Te  Te161  1  0.22865821  0.77468379  0.91201000  1
  Te  Te162  1  0.58706261  0.08438550  0.25335287  1
  Te  Te163  1  0.58233472  0.08680894  0.58051941  1
  Te  Te164  1  0.57305523  0.09054611  0.90895719  1
  Te  Te165  1  0.58430081  0.38865603  0.26085134  1
  Te  Te166  1  0.57349421  0.41392595  0.58376345  1
  Te  Te167  1  0.60089912  0.42302872  0.91912971  1
  Te  Te168  1  0.58155121  0.76165334  0.25004494  1
  Te  Te169  1  0.59583738  0.72792014  0.59357337  1
  Te  Te170  1  0.57552799  0.74714839  0.93251764  1
  Te  Te171  1  0.89766923  0.11041510  0.27312883  1
  Te  Te172  1  0.92353105  0.10775310  0.56029140  1
  Te  Te173  1  0.95487182  0.07140108  0.93083783  1
  Te  Te174  1  0.94581598  0.41016943  0.24691505  1
  Te  Te175  1  0.89919041  0.42681011  0.59365970  1
  Te  Te176  1  0.90423370  0.40513571  0.89606830  1
  Te  Te177  1  0.92364141  0.74739749  0.25177241  1
  Te  Te178  1  0.93020617  0.74544649  0.58637419  1
  Te  Te179  1  0.93425050  0.72921174  0.93716945  1
