# generated using pymatgen
data_In2Te3
_symmetry_space_group_name_H-M   'P 1'
_cell_length_a   18.74904908
_cell_length_b   18.75390467
_cell_length_c   18.74912610
_cell_angle_alpha   89.98808731
_cell_angle_beta   90.01438693
_cell_angle_gamma   90.05542922
_symmetry_Int_Tables_number   1
_chemical_formula_structural   In2Te3
_chemical_formula_sum   'In72 Te108'
_cell_volume   6592.52451602
_cell_formula_units_Z   36
loop_
 _symmetry_equiv_pos_site_id
 _symmetry_equiv_pos_as_xyz
  1  'x, y, z'
loop_
 _atom_site_type_symbol
 _atom_site_label
 _atom_site_symmetry_multiplicity
 _atom_site_fract_x
 _atom_site_fract_y
 _atom_site_fract_z
 _atom_site_occupancy
  In  In0  1  0.33276806  0.52878560  0.19598007  1
  In  In1  1  -0.01483679  0.68038364  0.66166572  1
  In  In2  1  0.49151810  0.51320910  0.00180300  1
  In  In3  1  0.48590660  0.16248014  0.34792323  1
  In  In4  1  0.84743623  0.83381754  0.01258241  1
  In  In5  1  0.86559487  0.18911140  0.01739359  1
  In  In6  1  -0.00755369  0.15986168  0.51164197  1
  In  In7  1  0.48399605  0.36505559  0.48355823  1
  In  In8  1  0.84591896  0.48939755  0.33984551  1
  In  In9  1  0.15024390  0.17132676  -0.00146797  1
  In  In10  1  0.68965207  0.33753590  0.33033040  1
  In  In11  1  0.82583606  0.66808323  0.84838924  1
  In  In12  1  0.34609458  0.81694570  0.79870872  1
  In  In13  1  0.02310522  0.15770832  0.82167629  1
  In  In14  1  0.32868116  0.65943606  0.02237347  1
  In  In15  1  -0.00909182  0.00260783  -0.00648913  1
  In  In16  1  0.50094821  0.32921193  0.18930040  1
  In  In17  1  0.66478349  0.81630286  0.17913593  1
  In  In18  1  0.17515475  0.48964213  0.66871268  1
  In  In19  1  0.68221028  0.36489490  0.00387587  1
  In  In20  1  0.33189890  0.00262745  0.65162867  1
  In  In21  1  0.85422228  0.30899115  0.82505808  1
  In  In22  1  0.68056495  0.15553698  0.81522701  1
  In  In23  1  0.02028156  -0.01592405  0.32821051  1
  In  In24  1  0.31769222  0.16658134  0.80709413  1
  In  In25  1  0.31176741  0.80820095  0.16552664  1
  In  In26  1  0.18057654  0.65779498  0.47284721  1
  In  In27  1  0.82856266  -0.01485800  0.79902691  1
  In  In28  1  0.66639339  0.82197536  0.50817987  1
  In  In29  1  0.82404874  0.48796531  0.64789753  1
  In  In30  1  0.83844318  0.83159808  0.35685310  1
  In  In31  1  0.31106914  0.32028305  0.65270538  1
  In  In32  1  0.49873832  0.80824751  0.35157355  1
  In  In33  1  0.32980432  0.49230619  0.83002587  1
  In  In34  1  0.52570166  0.15749168  -0.02382025  1
  In  In35  1  0.15759746  0.32712445  0.49753153  1
  In  In36  1  0.17008785  0.00112477  0.50202833  1
  In  In37  1  0.66400553  0.01052253  -0.01218390  1
  In  In38  1  0.66227177  -0.00413655  0.66278259  1
  In  In39  1  0.66342975  0.50516099  0.16498034  1
  In  In40  1  0.33828308  0.83107240  0.49944172  1
  In  In41  1  0.31878387  0.16993640  0.50624535  1
  In  In42  1  0.65913815  0.33382808  0.64063079  1
  In  In43  1  0.68638296  0.18604944  0.19183965  1
  In  In44  1  0.84790807  0.84651456  0.66284956  1
  In  In45  1  0.16680050  0.65454281  0.17986243  1
  In  In46  1  0.01332424  0.66215257  0.33460559  1
  In  In47  1  0.15544244  0.83031594  0.01232291  1
  In  In48  1  0.00256291  0.33236681  0.34429319  1
  In  In49  1  0.83994187  0.65700478  0.17724845  1
  In  In50  1  0.64377037  0.66037371  0.66022497  1
  In  In51  1  0.17051879  0.65882547  0.83626920  1
  In  In52  1  0.16332991  0.84534293  0.64891473  1
  In  In53  1  0.68131845  0.16000824  0.50850646  1
  In  In54  1  0.32025497  0.00205493  0.34413523  1
  In  In55  1  0.30985571  0.35418848  -0.00718319  1
  In  In56  1  0.02617918  0.49859681  0.82838442  1
  In  In57  1  -0.00826897  0.49132424  0.50043789  1
  In  In58  1  0.49078633  0.32403932  0.81785581  1
  In  In59  1  0.31944088  -0.02656811  -0.00318249  1
  In  In60  1  0.15900587  0.36150315  0.16557623  1
  In  In61  1  -0.03252656  0.85220258  0.82708481  1
  In  In62  1  0.64788950  0.52809958  0.47586524  1
  In  In63  1  0.84362095  0.50119074  0.01969125  1
  In  In64  1  0.49292177  -0.01257136  0.16110833  1
  In  In65  1  0.33831171  0.15706292  0.19060034  1
  In  In66  1  0.47636217  0.80952855  -0.01810495  1
  In  In67  1  0.00077242  0.17867671  0.17995518  1
  In  In68  1  0.63391159  0.82856855  0.82209140  1
  In  In69  1  0.86595303  0.00718661  0.16266264  1
  In  In70  1  0.66893364  0.52760425  0.80960359  1
  In  In71  1  0.67830558  -0.00463963  0.35361236  1
  Te  Te72  1  0.07815151  0.07769964  0.09505852  1
  Te  Te73  1  0.09142577  0.09398126  0.41084400  1
  Te  Te74  1  0.09327147  0.04463898  0.75984461  1
  Te  Te75  1  0.05232529  0.40463529  0.07537193  1
  Te  Te76  1  0.09868353  0.43745270  0.40836289  1
  Te  Te77  1  0.07539284  0.39918071  0.73082357  1
  Te  Te78  1  0.07694049  0.73321822  0.09020377  1
  Te  Te79  1  0.08825071  0.75976273  0.41856585  1
  Te  Te80  1  0.07879921  0.75759812  0.75755339  1
  Te  Te81  1  0.41369597  0.08188902  0.07053957  1
  Te  Te82  1  0.41598780  0.06697728  0.44352948  1
  Te  Te83  1  0.41956248  0.09157461  0.73406702  1
  Te  Te84  1  0.41506184  0.41452351  0.09389520  1
  Te  Te85  1  0.40296446  0.46834377  0.40785632  1
  Te  Te86  1  0.41050809  0.41411705  0.72630263  1
  Te  Te87  1  0.43197852  0.73374777  0.10819999  1
  Te  Te88  1  0.40411741  0.71608561  0.42518905  1
  Te  Te89  1  0.44535958  0.73516342  0.71423427  1
  Te  Te90  1  0.75424213  0.08861133  0.08452729  1
  Te  Te91  1  0.76977759  0.09595415  0.40769199  1
  Te  Te92  1  0.77399105  0.10117521  0.70845599  1
  Te  Te93  1  0.77197087  0.40586099  0.11854267  1
  Te  Te94  1  0.75273536  0.42096624  0.44134989  1
  Te  Te95  1  0.74302991  0.40298234  0.76079432  1
  Te  Te96  1  0.74959662  0.73724852  0.07928886  1
  Te  Te97  1  0.72917745  0.74157689  0.39969410  1
  Te  Te98  1  0.75271595  0.75328837  0.74195772  1
  Te  Te99  1  0.10494396  0.25302851  0.26193866  1
  Te  Te100  1  0.08960359  0.23895035  0.59464123  1
  Te  Te101  1  0.06637919  0.26164772  0.91784049  1
  Te  Te102  1  0.08235980  0.55452377  0.25639961  1
  Te  Te103  1  0.08298060  0.58839863  0.58793226  1
  Te  Te104  1  0.08540162  0.58602405  0.93180171  1
  Te  Te105  1  0.11380596  0.92608400  0.23075478  1
  Te  Te106  1  0.06675420  0.90514426  0.55396739  1
  Te  Te107  1  0.08502859  0.91906191  0.90807867  1
  Te  Te108  1  0.39553522  0.26835836  0.28243457  1
  Te  Te109  1  0.42680786  0.25570480  0.57526022  1
  Te  Te110  1  0.40857293  0.25243033  0.92576767  1
  Te  Te111  1  0.44556159  0.57330993  0.28325255  1
  Te  Te112  1  0.42695279  0.61316161  0.63529691  1
  Te  Te113  1  0.40897620  0.59991993  0.90640027  1
  Te  Te114  1  0.41135794  0.90468692  0.25790829  1
  Te  Te115  1  0.42813884  0.90268734  0.59545959  1
  Te  Te116  1  0.41887924  0.91942376  0.89381956  1
  Te  Te117  1  0.79477884  0.26080105  0.25799013  1
  Te  Te118  1  0.76831922  0.26506644  0.56977807  1
  Te  Te119  1  0.74236776  0.24261579  0.92519976  1
  Te  Te120  1  0.74467096  0.58245860  0.27080585  1
  Te  Te121  1  0.75204055  0.59728965  0.57171806  1
  Te  Te122  1  0.73677715  0.57924277  0.93566954  1
  Te  Te123  1  0.75403660  0.92629548  0.23731903  1
  Te  Te124  1  0.76059181  0.92786811  0.56749713  1
  Te  Te125  1  0.75309397  0.90422869  0.91248445  1
  Te  Te126  1  0.25499791  0.24797487  0.09060120  1
  Te  Te127  1  0.25307115  0.25613619  0.40678059  1
  Te  Te128  1  0.22278584  0.26889280  0.76080883  1
  Te  Te129  1  0.23743320  0.55488476  0.07819167  1
  Te  Te130  1  0.28036186  0.56825876  0.41199742  1
  Te  Te131  1  0.26554444  0.59709694  0.73403720  1
  Te  Te132  1  0.22843569  0.92945680  0.11698102  1
  Te  Te133  1  0.23327069  0.89517166  0.40841251  1
  Te  Te134  1  0.24488443  0.92264486  0.75260345  1
  Te  Te135  1  0.58749372  0.25320205  0.08676202  1
  Te  Te136  1  0.58359497  0.25957213  0.41549399  1
  Te  Te137  1  0.58105726  0.23719897  0.73101530  1
  Te  Te138  1  0.57844425  0.59731338  0.08657113  1
  Te  Te139  1  0.52461108  0.59311357  0.41898015  1
  Te  Te140  1  0.54397981  0.57789084  0.74293822  1
  Te  Te141  1  0.58384750  0.90618513  0.06894460  1
  Te  Te142  1  0.57175179  0.92093141  0.42835690  1
  Te  Te143  1  0.55974473  0.89795794  0.71427102  1
  Te  Te144  1  0.94962545  0.29227872  0.09054572  1
  Te  Te145  1  0.91023310  0.25975193  0.43517536  1
  Te  Te146  1  0.92653104  0.22497949  0.72827770  1
  Te  Te147  1  0.94010073  0.58290268  0.09600518  1
  Te  Te148  1  0.90991038  0.59742363  0.42816656  1
  Te  Te149  1  0.90424691  0.57870875  0.75118949  1
  Te  Te150  1  0.95309522  0.89791771  0.10215769  1
  Te  Te151  1  0.92230327  0.93016190  0.42763375  1
  Te  Te152  1  0.96469646  0.96841875  0.71345101  1
  Te  Te153  1  0.23004245  0.08296626  0.25909149  1
  Te  Te154  1  0.22331268  0.10223088  0.60437671  1
  Te  Te155  1  0.24724743  0.08275077  0.91789998  1
  Te  Te156  1  0.25257703  0.42362332  0.26261724  1
  Te  Te157  1  0.26178444  0.43043063  0.55934925  1
  Te  Te158  1  0.21828613  0.42470642  0.90144838  1
  Te  Te159  1  0.25382416  0.72838096  0.27468300  1
  Te  Te160  1  0.25150798  0.73866105  0.58743579  1
  Te  Te161  1  0.26114587  0.76209735  0.92147724  1
  Te  Te162  1  0.57620623  0.08563376  0.24483159  1
  Te  Te163  1  0.57711578  0.08610512  0.58192813  1
  Te  Te164  1  0.57633954  0.05665792  0.87107662  1
  Te  Te165  1  0.58131144  0.42858752  0.27146123  1
  Te  Te166  1  0.57217826  0.44397599  0.58192467  1
  Te  Te167  1  0.57356477  0.41910044  0.90737098  1
  Te  Te168  1  0.58888874  0.72536375  0.26648492  1
  Te  Te169  1  0.55551842  0.73844498  0.56851871  1
  Te  Te170  1  0.57954529  0.72810469  0.91449472  1
  Te  Te171  1  0.91592424  0.09438598  0.27412776  1
  Te  Te172  1  0.91486115  0.07575199  0.60954993  1
  Te  Te173  1  0.89389475  0.08200945  0.90634743  1
  Te  Te174  1  0.95503431  0.44139856  0.24948401  1
  Te  Te175  1  0.92925782  0.39798297  0.59718829  1
  Te  Te176  1  0.91398789  0.42177872  0.90710492  1
  Te  Te177  1  0.92485971  0.76011388  0.25369462  1
  Te  Te178  1  0.91207800  0.75948279  0.56125381  1
  Te  Te179  1  0.93448241  0.73871961  0.92803908  1
