# generated using pymatgen
data_In2Te3
_symmetry_space_group_name_H-M   'P 1'
_cell_length_a   19.02942378
_cell_length_b   19.02775022
_cell_length_c   19.02456826
_cell_angle_alpha   90.07359919
_cell_angle_beta   90.17172934
_cell_angle_gamma   90.21027508
_symmetry_Int_Tables_number   1
_chemical_formula_structural   In2Te3
_chemical_formula_sum   'In72 Te108'
_cell_volume   6888.46806526
_cell_formula_units_Z   36
loop_
 _symmetry_equiv_pos_site_id
 _symmetry_equiv_pos_as_xyz
  1  'x, y, z'
loop_
 _atom_site_type_symbol
 _atom_site_label
 _atom_site_symmetry_multiplicity
 _atom_site_fract_x
 _atom_site_fract_y
 _atom_site_fract_z
 _atom_site_occupancy
  In  In0  1  0.16700915  0.66455548  0.84218488  1
  In  In1  1  0.69904997  0.81673244  0.81480700  1
  In  In2  1  0.14342351  0.85204219  0.64798392  1
  In  In3  1  0.00944710  0.64672894  0.34877903  1
  In  In4  1  0.67734000  0.32439265  0.62939585  1
  In  In5  1  0.15392705  0.18669528  0.68368839  1
  In  In6  1  0.19074372  0.48772798  0.34230491  1
  In  In7  1  0.12619849  -0.01720185  0.42517313  1
  In  In8  1  0.84047872  -0.00870227  0.80893062  1
  In  In9  1  0.68367253  0.50145685  0.16227884  1
  In  In10  1  0.67913928  0.13583570  0.44650999  1
  In  In11  1  0.68142271  0.52946032  0.82946265  1
  In  In12  1  0.29623277  0.12072878  0.47444649  1
  In  In13  1  0.16336115  0.49766433  0.00592534  1
  In  In14  1  0.48859099  -0.02631113  0.48213727  1
  In  In15  1  0.32401552  -0.01654983  0.32167389  1
  In  In16  1  0.17996396  0.66842175  0.16546880  1
  In  In17  1  0.86138207  0.15578488  0.31086267  1
  In  In18  1  -0.01013309  0.67308602  0.64685788  1
  In  In19  1  0.34332249  0.66815788  0.31742304  1
  In  In20  1  0.81298315  0.15214632  0.04577816  1
  In  In21  1  0.52867527  0.53898448  0.66799873  1
  In  In22  1  0.83101456  0.32059844  0.47959832  1
  In  In23  1  0.87966661  0.31300327  0.21714551  1
  In  In24  1  0.16145444  0.68554792  0.51763914  1
  In  In25  1  0.31868285  0.81884003  0.82966103  1
  In  In26  1  0.35444289  0.32348251  0.31791001  1
  In  In27  1  -0.01232430  -0.00060304  0.02182582  1
  In  In28  1  0.85988823  0.69366862  0.10086831  1
  In  In29  1  0.31398076  0.33876790  0.01908212  1
  In  In30  1  0.49114033  0.14814053  0.02006759  1
  In  In31  1  0.34963899  0.50132237  0.51634536  1
  In  In32  1  0.63973335  0.15181148  0.86033676  1
  In  In33  1  0.82370123  0.50137294  0.34634230  1
  In  In34  1  0.51990657  0.69781209  0.47967090  1
  In  In35  1  -0.00603148  0.85012323  0.48167895  1
  In  In36  1  0.01219911  0.49046033  0.49456223  1
  In  In37  1  0.83542768  0.82428795  0.32847824  1
  In  In38  1  0.01071210  0.33328860  0.65086812  1
  In  In39  1  0.66322536  0.68229845  -0.01179567  1
  In  In40  1  0.47660618  0.53895481  -0.03240804  1
  In  In41  1  0.81034625  0.51846263  -0.00545139  1
  In  In42  1  0.17216565  0.29532550  0.17315087  1
  In  In43  1  0.69569552  0.86423004  0.49813971  1
  In  In44  1  0.80759792  0.34759440  0.83277466  1
  In  In45  1  0.13195647  0.84932709  -0.00040533  1
  In  In46  1  0.66344607  0.71348661  0.31498691  1
  In  In47  1  0.51737483  0.30833984  0.48637942  1
  In  In48  1  0.31608161  0.17444000  0.86902078  1
  In  In49  1  0.16846286  0.30298224  0.51323980  1
  In  In50  1  0.49718905  0.33959451  0.15691557  1
  In  In51  1  -0.02623908  0.15699629  0.81620088  1
  In  In52  1  0.68290872  -0.01206115  0.67263372  1
  In  In53  1  0.15127036  0.00589497  0.17495318  1
  In  In54  1  0.00180101  0.84487415  0.17431699  1
  In  In55  1  0.35561170  0.34652357  0.66331434  1
  In  In56  1  0.48759752  0.34130380  0.81442845  1
  In  In57  1  0.49479092  0.82604822  0.29498686  1
  In  In58  1  0.50500246  0.52775858  0.31592779  1
  In  In59  1  0.63697148  0.33651971  0.00596529  1
  In  In60  1  0.51500069  0.16676102  0.64154347  1
  In  In61  1  -0.04305863  0.79691133  0.84066937  1
  In  In62  1  0.14812602  0.34551945  0.84775119  1
  In  In63  1  0.67897902  0.11292911  0.20901639  1
  In  In64  1  0.50557151  0.82483836  0.03619129  1
  In  In65  1  0.34470886  0.00162531  0.69728611  1
  In  In66  1  0.50233260  0.83728254  0.68965154  1
  In  In67  1  0.70289065  0.53646087  0.52978792  1
  In  In68  1  0.47910009  0.02343836  0.86993263  1
  In  In69  1  -0.00221042  0.53232415  0.80777683  1
  In  In70  1  0.32276329  -0.00214995  0.02144504  1
  In  In71  1  -0.01138445  0.33555362  -0.00875366  1
  Te  Te72  1  0.09349401  0.08871072  0.06810145  1
  Te  Te73  1  0.08584788  0.10770340  0.35777898  1
  Te  Te74  1  0.10352802  0.08965346  0.78121278  1
  Te  Te75  1  0.08841281  0.39508839  0.08790734  1
  Te  Te76  1  0.09597925  0.39474782  0.41407607  1
  Te  Te77  1  0.08805127  0.43109111  0.74045791  1
  Te  Te78  1  0.07109790  0.74299267  0.08780760  1
  Te  Te79  1  0.09127960  0.75901178  0.40813695  1
  Te  Te80  1  0.07811752  0.75184922  0.75141152  1
  Te  Te81  1  0.42858195  0.05112131  0.11166652  1
  Te  Te82  1  0.42075771  0.08291923  0.40417233  1
  Te  Te83  1  0.42186695  0.11992433  0.76109807  1
  Te  Te84  1  0.42207369  0.43315302  0.06595356  1
  Te  Te85  1  0.42539397  0.42585241  0.40929989  1
  Te  Te86  1  0.42012235  0.45653002  0.74484267  1
  Te  Te87  1  0.44484686  0.71201429  0.10616214  1
  Te  Te88  1  0.41102571  0.77180479  0.40926455  1
  Te  Te89  1  0.41696772  0.73588494  0.75673709  1
  Te  Te90  1  0.77569655  0.03682088  0.12922377  1
  Te  Te91  1  0.77857712  0.05036718  0.37588043  1
  Te  Te92  1  0.73703148  0.10045807  0.75948989  1
  Te  Te93  1  0.75549828  0.40017880  0.07594365  1
  Te  Te94  1  0.72906351  0.42019784  0.43110329  1
  Te  Te95  1  0.73452881  0.42751578  0.72886772  1
  Te  Te96  1  0.72500941  0.75997443  0.10125328  1
  Te  Te97  1  0.75692075  0.74321132  0.43146020  1
  Te  Te98  1  0.77682749  0.76957345  0.69824930  1
  Te  Te99  1  0.06993699  0.21668373  0.24680133  1
  Te  Te100  1  0.05711255  0.21364780  0.56892782  1
  Te  Te101  1  0.07369764  0.23838365  0.91596151  1
  Te  Te102  1  0.09890484  0.56989771  0.25586154  1
  Te  Te103  1  0.09281383  0.57459971  0.59219661  1
  Te  Te104  1  0.06739121  0.58867833  0.92810056  1
  Te  Te105  1  0.07989568  0.91974753  0.27562494  1
  Te  Te106  1  0.06844193  0.95358397  0.56647149  1
  Te  Te107  1  0.03639067  0.91292010  0.90314200  1
  Te  Te108  1  0.42972094  0.23452903  0.23166555  1
  Te  Te109  1  0.40459274  0.24395155  0.56348433  1
  Te  Te110  1  0.43360824  0.25884413  0.93162214  1
  Te  Te111  1  0.39401608  0.56358799  0.22797780  1
  Te  Te112  1  0.43283262  0.61241554  0.57509817  1
  Te  Te113  1  0.38571138  0.62406626  0.88947654  1
  Te  Te114  1  0.41395973  0.92249661  0.21957359  1
  Te  Te115  1  0.40894624  0.91130650  0.59426313  1
  Te  Te116  1  0.40845106  0.90373569  0.92834386  1
  Te  Te117  1  0.75079114  0.24490077  0.24761525  1
  Te  Te118  1  0.75573180  0.21805100  0.56048669  1
  Te  Te119  1  0.74142302  0.24920598  0.92712007  1
  Te  Te120  1  0.74798027  0.59795960  0.25749411  1
  Te  Te121  1  0.74766532  0.62979714  0.63187730  1
  Te  Te122  1  0.77631723  0.62892898  0.89681678  1
  Te  Te123  1  0.71070481  0.84848462  0.24620327  1
  Te  Te124  1  0.77787993  0.96600263  0.56492365  1
  Te  Te125  1  0.75886329  0.91352007  0.90429973  1
  Te  Te126  1  0.25696989  0.22065331  0.07952701  1
  Te  Te127  1  0.25244764  0.24480097  0.40225956  1
  Te  Te128  1  0.26183258  0.27222263  0.76059126  1
  Te  Te129  1  0.25673689  0.58826350  0.07043495  1
  Te  Te130  1  0.25724515  0.59135293  0.43286319  1
  Te  Te131  1  0.27857832  0.59225042  0.78391908  1
  Te  Te132  1  0.23447787  0.90258117  0.09747796  1
  Te  Te133  1  0.25726866  0.92317544  0.43823078  1
  Te  Te134  1  0.23385262  0.91889478  0.75634354  1
  Te  Te135  1  0.59439372  0.22689486  0.10079814  1
  Te  Te136  1  0.59502878  0.23929667  0.38637140  1
  Te  Te137  1  0.59417644  0.25706819  0.74522908  1
  Te  Te138  1  0.59250169  0.57141288  0.06191752  1
  Te  Te139  1  0.60011420  0.58186953  0.42658644  1
  Te  Te140  1  0.59216365  0.62654290  0.76632188  1
  Te  Te141  1  0.60944692  0.87554935  0.12951894  1
  Te  Te142  1  0.59198645  0.91379586  0.38903478  1
  Te  Te143  1  0.56507766  0.95448931  0.76114530  1
  Te  Te144  1  0.92631919  0.24038306  0.09246362  1
  Te  Te145  1  0.92807187  0.26962191  0.38266679  1
  Te  Te146  1  0.90665311  0.27406471  0.74555681  1
  Te  Te147  1  0.91033858  0.55738677  0.09293275  1
  Te  Te148  1  0.90765634  0.58621156  0.44224941  1
  Te  Te149  1  0.89313267  0.58675012  0.72018194  1
  Te  Te150  1  0.89494794  0.91757173  0.10368624  1
  Te  Te151  1  0.90792152  0.93489674  0.39442490  1
  Te  Te152  1  0.89237253  0.87101987  0.72609095  1
  Te  Te153  1  0.24055746  0.08805136  0.26079728  1
  Te  Te154  1  0.25308380  0.09164772  0.61292195  1
  Te  Te155  1  0.23846931  0.06354298  0.92043079  1
  Te  Te156  1  0.25889870  0.40618286  0.23495072  1
  Te  Te157  1  0.24572541  0.41496977  0.58501517  1
  Te  Te158  1  0.25972141  0.42598032  0.90964108  1
  Te  Te159  1  0.24887639  0.75964185  0.25689721  1
  Te  Te160  1  0.24806925  0.75747676  0.60947349  1
  Te  Te161  1  0.23683477  0.75733966  0.94078556  1
  Te  Te162  1  0.59488525  0.04862744  0.30764842  1
  Te  Te163  1  0.58794441  0.06668216  0.55820541  1
  Te  Te164  1  0.59719096  0.05075738  0.96308042  1
  Te  Te165  1  0.58823568  0.42120039  0.24804949  1
  Te  Te166  1  0.56534659  0.41432308  0.58228612  1
  Te  Te167  1  0.58334909  0.43180023  0.90075698  1
  Te  Te168  1  0.53929783  0.69884169  0.22399079  1
  Te  Te169  1  0.59293015  0.78354932  0.58013891  1
  Te  Te170  1  0.58485658  0.78272754  0.90854193  1
  Te  Te171  1  0.97758733  0.09005429  0.24317080  1
  Te  Te172  1  0.94971210  0.04262719  0.71989957  1
  Te  Te173  1  0.89395424  0.09179161  0.93401410  1
  Te  Te174  1  0.92761272  0.44241646  0.26226929  1
  Te  Te175  1  0.90821941  0.41290202  0.57375188  1
  Te  Te176  1  0.91424580  0.43377022  0.90151994  1
  Te  Te177  1  0.92425638  0.72801024  0.25180461  1
  Te  Te178  1  0.90906257  0.76221023  0.56254495  1
  Te  Te179  1  0.89615461  0.74475932  0.96454173  1
