# generated using pymatgen
data_In2Te3
_symmetry_space_group_name_H-M   'P 1'
_cell_length_a   18.79589734
_cell_length_b   18.79139042
_cell_length_c   18.78757810
_cell_angle_alpha   89.94916895
_cell_angle_beta   90.07079848
_cell_angle_gamma   89.99422491
_symmetry_Int_Tables_number   1
_chemical_formula_structural   In2Te3
_chemical_formula_sum   'In72 Te108'
_cell_volume   6635.78450886
_cell_formula_units_Z   36
loop_
 _symmetry_equiv_pos_site_id
 _symmetry_equiv_pos_as_xyz
  1  'x, y, z'
loop_
 _atom_site_type_symbol
 _atom_site_label
 _atom_site_symmetry_multiplicity
 _atom_site_fract_x
 _atom_site_fract_y
 _atom_site_fract_z
 _atom_site_occupancy
  In  In0  1  0.81014484  0.00188765  0.84855958  1
  In  In1  1  0.82801334  0.51049688  0.31228786  1
  In  In2  1  0.64986553  0.15472098  0.12613364  1
  In  In3  1  0.01283137  0.01465668  0.31728783  1
  In  In4  1  0.81358118  -0.01292674  0.51050619  1
  In  In5  1  0.64868452  0.32396400  0.33039665  1
  In  In6  1  0.34495459  0.84638412  0.47488013  1
  In  In7  1  0.33467719  0.50475693  0.14408107  1
  In  In8  1  0.51231209  0.68870810  0.18224057  1
  In  In9  1  0.36705543  0.51583430  0.86511883  1
  In  In10  1  0.31916206  0.01361374  -0.01463023  1
  In  In11  1  0.83041257  0.66664098  0.81526556  1
  In  In12  1  0.81031697  0.83788923  0.33012087  1
  In  In13  1  0.34977872  0.52421445  0.49194255  1
  In  In14  1  0.31115063  0.68841646  0.32579774  1
  In  In15  1  0.64188922  0.82255009  0.84735515  1
  In  In16  1  0.50139490  0.83886854  0.66248537  1
  In  In17  1  0.18858604  0.83567828  0.01471218  1
  In  In18  1  0.17710540  0.51232351  0.66273470  1
  In  In19  1  0.50470518  0.16046237  0.67173250  1
  In  In20  1  0.81097933  0.48259747  0.02948567  1
  In  In21  1  0.64090093  0.50338530  0.83418985  1
  In  In22  1  0.79914714  0.50399326  0.67912926  1
  In  In23  1  0.82452365  0.14170676  0.70029609  1
  In  In24  1  -0.00304301  0.32604472  0.00581336  1
  In  In25  1  0.64944624  0.35449789  0.66818198  1
  In  In26  1  0.50754075  0.49645694  0.33731613  1
  In  In27  1  0.65534150  0.67358213  0.01144558  1
  In  In28  1  0.34664689  0.00764012  0.68180291  1
  In  In29  1  0.82616341  0.85095928  0.01263219  1
  In  In30  1  0.17055454  0.31579311  0.16841664  1
  In  In31  1  -0.00779068  -0.01124936  0.00575601  1
  In  In32  1  -0.00282612  0.82357110  0.50303175  1
  In  In33  1  -0.00017228  0.50356902  0.47928093  1
  In  In34  1  0.34886681  0.64499293  0.66652679  1
  In  In35  1  0.35512037  0.32417846  0.00848515  1
  In  In36  1  0.68551597  -0.01007176  0.66315471  1
  In  In37  1  0.00264492  0.16775125  0.16836728  1
  In  In38  1  0.00613714  0.16127139  0.81664455  1
  In  In39  1  0.81064612  0.67220388  0.18128474  1
  In  In40  1  0.35004778  0.15361218  0.49202831  1
  In  In41  1  0.49869483  0.83254545  0.02203964  1
  In  In42  1  0.65498582  0.51663395  0.49971981  1
  In  In43  1  0.17643369  -0.00780941  0.16149633  1
  In  In44  1  0.02505902  0.82843060  0.84565468  1
  In  In45  1  0.19018413  0.17720480  0.66872447  1
  In  In46  1  0.02423217  0.68860681  0.01425203  1
  In  In47  1  0.34936576  0.16763057  0.16498185  1
  In  In48  1  0.01669469  0.66342380  0.32730022  1
  In  In49  1  -0.01782038  0.50284193  0.86233972  1
  In  In50  1  0.17059162  0.32189308  0.81959306  1
  In  In51  1  0.48431529  0.33379567  0.84153447  1
  In  In52  1  0.34871610  -0.00360224  0.32452386  1
  In  In53  1  0.49348566  -0.00719479  0.17063272  1
  In  In54  1  0.01293537  0.15037944  0.47791217  1
  In  In55  1  0.64959267  0.17823076  0.48864997  1
  In  In56  1  0.00088571  0.52760438  0.18211385  1
  In  In57  1  0.15862860  0.83598045  0.67255357  1
  In  In58  1  0.85556282  0.16462494  0.33322049  1
  In  In59  1  0.65177274  0.67041512  0.66757324  1
  In  In60  1  0.34030717  0.83448079  0.86184237  1
  In  In61  1  0.83622971  0.85887138  0.63277870  1
  In  In62  1  0.32926851  0.32176763  0.69282116  1
  In  In63  1  0.16768513  0.34531180  0.47731071  1
  In  In64  1  -0.01899211  0.32450389  0.67244582  1
  In  In65  1  0.64098216  -0.02615824  0.32767813  1
  In  In66  1  0.18251729  0.51690885  0.00850923  1
  In  In67  1  0.82644045  0.31327568  0.49790518  1
  In  In68  1  0.81688166  0.34260798  0.16048642  1
  In  In69  1  0.18095147  0.67848185  0.49512079  1
  In  In70  1  0.00741541  -0.01058215  0.66620430  1
  In  In71  1  0.34251395  0.32507127  0.30928762  1
  Te  Te72  1  0.08987885  0.08487386  0.07498430  1
  Te  Te73  1  0.11513498  0.07209217  0.40869673  1
  Te  Te74  1  0.10654161  0.07077745  0.74786984  1
  Te  Te75  1  0.08079072  0.42719968  0.08359162  1
  Te  Te76  1  0.08676881  0.42956073  0.38728778  1
  Te  Te77  1  0.07529717  0.42116884  0.74879708  1
  Te  Te78  1  0.10001015  0.76619667  0.11788239  1
  Te  Te79  1  0.09894800  0.76850018  0.40391491  1
  Te  Te80  1  0.07434826  0.73733949  0.74205609  1
  Te  Te81  1  0.42935658  0.08646980  0.06566213  1
  Te  Te82  1  0.44297025  0.07849485  0.40664624  1
  Te  Te83  1  0.44105327  0.07482047  0.77424823  1
  Te  Te84  1  0.43897415  0.41911109  0.08375894  1
  Te  Te85  1  0.41384775  0.40712621  0.41987964  1
  Te  Te86  1  0.41800545  0.43404364  0.74425426  1
  Te  Te87  1  0.40494019  0.74006561  0.09045845  1
  Te  Te88  1  0.42270113  0.74278075  0.40531110  1
  Te  Te89  1  0.41437050  0.75242408  0.75398559  1
  Te  Te90  1  0.76192848  0.08539175  0.05230400  1
  Te  Te91  1  0.74830366  0.08664957  0.41305516  1
  Te  Te92  1  0.70717928  0.09341561  0.78165169  1
  Te  Te93  1  0.69963076  0.41163467  0.09760802  1
  Te  Te94  1  0.74907708  0.41518773  0.41506855  1
  Te  Te95  1  0.74495291  0.40341797  0.77785644  1
  Te  Te96  1  0.72675137  0.77272826  0.10181194  1
  Te  Te97  1  0.72235679  0.72941580  0.38214668  1
  Te  Te98  1  0.74568937  0.77442568  0.74627737  1
  Te  Te99  1  0.08598536  0.24286646  0.26368753  1
  Te  Te100  1  0.08449132  0.25369105  0.58399251  1
  Te  Te101  1  0.08810734  0.23986123  0.91997035  1
  Te  Te102  1  0.11940742  0.60355320  0.23303721  1
  Te  Te103  1  0.08183676  0.59282756  0.57511290  1
  Te  Te104  1  0.09153360  0.59688199  0.91170819  1
  Te  Te105  1  0.08343002  0.90874004  0.24197490  1
  Te  Te106  1  0.09709050  0.92407542  0.56360210  1
  Te  Te107  1  0.10677948  0.92852152  0.92229021  1
  Te  Te108  1  0.44663311  0.26045545  0.22686503  1
  Te  Te109  1  0.41765310  0.25391495  0.58857436  1
  Te  Te110  1  0.42257716  0.22368378  0.92178592  1
  Te  Te111  1  0.41031155  0.58623744  0.25725762  1
  Te  Te112  1  0.45208597  0.59746177  0.56926947  1
  Te  Te113  1  0.46440131  0.58968555  0.94943177  1
  Te  Te114  1  0.42575248  0.89056699  0.25478853  1
  Te  Te115  1  0.42503543  0.93477939  0.57108256  1
  Te  Te116  1  0.43938872  0.93202868  0.92282870  1
  Te  Te117  1  0.74674918  0.23577164  0.25093247  1
  Te  Te118  1  0.74510934  0.23843814  0.60219822  1
  Te  Te119  1  0.72337713  0.21832156  0.98136682  1
  Te  Te120  1  0.72333962  0.56033808  0.22091497  1
  Te  Te121  1  0.75575228  0.60492543  0.57361495  1
  Te  Te122  1  0.75023880  0.58752163  0.91894655  1
  Te  Te123  1  0.75102874  0.93601922  0.23675354  1
  Te  Te124  1  0.70404825  0.88165344  0.54368606  1
  Te  Te125  1  0.71375561  0.92247302  0.93681872  1
  Te  Te126  1  0.24726151  0.23346828  0.06887828  1
  Te  Te127  1  0.25619397  0.24380316  0.40699903  1
  Te  Te128  1  0.28220635  0.21065537  0.79388688  1
  Te  Te129  1  0.27867926  0.61836100  0.06203652  1
  Te  Te130  1  0.23760635  0.57037023  0.40464565  1
  Te  Te131  1  0.25760812  0.58069755  0.77103137  1
  Te  Te132  1  0.29001725  0.91235438  0.09873465  1
  Te  Te133  1  0.24387878  0.91573098  0.39432962  1
  Te  Te134  1  0.25417537  0.91440077  0.76170683  1
  Te  Te135  1  0.58257030  0.25882109  0.03628370  1
  Te  Te136  1  0.54810654  0.24950743  0.41050948  1
  Te  Te137  1  0.58871537  0.25222789  0.76303449  1
  Te  Te138  1  0.55626919  0.58375418  0.08119551  1
  Te  Te139  1  0.60054228  0.60432680  0.38996279  1
  Te  Te140  1  0.55903919  0.58069089  0.73939757  1
  Te  Te141  1  0.59653073  0.90944199  0.10135529  1
  Te  Te142  1  0.59701515  0.87815518  0.43073082  1
  Te  Te143  1  0.57916607  0.92954072  0.75781492  1
  Te  Te144  1  0.89866013  0.23908123  0.08136983  1
  Te  Te145  1  0.94085073  0.26701463  0.40874792  1
  Te  Te146  1  0.89242226  0.25676232  0.77608193  1
  Te  Te147  1  0.91328202  0.59132691  0.07362681  1
  Te  Te148  1  0.90328848  0.60014958  0.41045851  1
  Te  Te149  1  0.92338203  0.57352917  0.73924599  1
  Te  Te150  1  0.93130388  0.89768990  0.10420199  1
  Te  Te151  1  0.91733886  0.92528918  0.41577164  1
  Te  Te152  1  0.91258376  0.91685633  0.76165716  1
  Te  Te153  1  0.25072055  0.09180413  0.25037245  1
  Te  Te154  1  0.25249469  0.07283618  0.57731232  1
  Te  Te155  1  0.24159212  0.09628519  0.89309028  1
  Te  Te156  1  0.24734586  0.42412383  0.24208806  1
  Te  Te157  1  0.25937490  0.41102099  0.58324137  1
  Te  Te158  1  0.25386902  0.41173748  0.91426496  1
  Te  Te159  1  0.21466908  0.73868383  0.22491462  1
  Te  Te160  1  0.26949564  0.75640761  0.59272329  1
  Te  Te161  1  0.24708000  0.73547429  0.92126647  1
  Te  Te162  1  0.57821505  0.09021648  0.25205257  1
  Te  Te163  1  0.58662652  0.07167274  0.57728774  1
  Te  Te164  1  0.61071529  0.10772595  0.98057465  1
  Te  Te165  1  0.57246049  0.40897369  0.23474151  1
  Te  Te166  1  0.56737405  0.41727441  0.56470055  1
  Te  Te167  1  0.57547509  0.41217443  0.93113743  1
  Te  Te168  1  0.60995555  0.75231765  0.28197584  1
  Te  Te169  1  0.56085430  0.73809517  0.56922940  1
  Te  Te170  1  0.54947124  0.71928715  0.90651491  1
  Te  Te171  1  0.90145043  0.06765505  0.22575152  1
  Te  Te172  1  0.91955152  0.09364117  0.58704306  1
  Te  Te173  1  0.91503068  0.08835396  0.91818062  1
  Te  Te174  1  0.92527573  0.41232940  0.24753186  1
  Te  Te175  1  0.90366065  0.42192160  0.58066399  1
  Te  Te176  1  0.88970822  0.40055359  0.92571011  1
  Te  Te177  1  0.91658914  0.75343875  0.25228701  1
  Te  Te178  1  0.90835164  0.74003857  0.58498212  1
  Te  Te179  1  0.90532792  0.75287300  0.92095696  1
