# generated using pymatgen
data_In2Te3
_symmetry_space_group_name_H-M   'P 1'
_cell_length_a   19.02441926
_cell_length_b   19.00055138
_cell_length_c   19.03042463
_cell_angle_alpha   90.01648218
_cell_angle_beta   89.86169519
_cell_angle_gamma   89.80456416
_symmetry_Int_Tables_number   1
_chemical_formula_structural   In2Te3
_chemical_formula_sum   'In72 Te108'
_cell_volume   6878.95202196
_cell_formula_units_Z   36
loop_
 _symmetry_equiv_pos_site_id
 _symmetry_equiv_pos_as_xyz
  1  'x, y, z'
loop_
 _atom_site_type_symbol
 _atom_site_label
 _atom_site_symmetry_multiplicity
 _atom_site_fract_x
 _atom_site_fract_y
 _atom_site_fract_z
 _atom_site_occupancy
  In  In0  1  0.15279965  0.00686441  0.81353441  1
  In  In1  1  0.64664434  0.83781369  0.52223827  1
  In  In2  1  0.69087184  0.88525787  0.18711121  1
  In  In3  1  0.00470042  0.64134405  0.67309544  1
  In  In4  1  0.16280560  0.14383987  0.33640948  1
  In  In5  1  0.33953916  0.87555298  0.82141241  1
  In  In6  1  0.34728776  0.61347529  0.64402704  1
  In  In7  1  0.68499267  0.15117700  0.48395646  1
  In  In8  1  0.70625059  0.11598618  0.18498325  1
  In  In9  1  0.01117396  0.64893163  0.01643523  1
  In  In10  1  0.84307069  0.49105033  0.31133339  1
  In  In11  1  0.82418105  0.50008697  0.66186808  1
  In  In12  1  0.50276854  0.00780594  0.83381884  1
  In  In13  1  0.15896833  0.32053436  0.17029553  1
  In  In14  1  0.17602114  0.66292197  0.49780016  1
  In  In15  1  -0.00644115  0.31021120  0.66164910  1
  In  In16  1  0.64738347  0.32990127  0.65664414  1
  In  In17  1  0.65057298  0.50609532  0.48464486  1
  In  In18  1  0.67913039  0.30436317  0.33132856  1
  In  In19  1  0.51479701  0.00626948  0.18116830  1
  In  In20  1  0.49745449  0.85124841  0.67565869  1
  In  In21  1  0.16001537  0.33865012  0.50432491  1
  In  In22  1  -0.01164959  0.01745377  0.32468020  1
  In  In23  1  0.67933886  0.18211843  0.83345910  1
  In  In24  1  0.81957140  0.15942470  0.00134075  1
  In  In25  1  -0.02124026  0.16635527  0.84186719  1
  In  In26  1  0.15181528  0.67333946  0.85368337  1
  In  In27  1  0.15743704  0.50651087  0.32780753  1
  In  In28  1  0.16451536  -0.00010699  0.17788694  1
  In  In29  1  0.34057857  0.19238860  0.50608276  1
  In  In30  1  0.83135547  0.49741772  -0.02124337  1
  In  In31  1  0.62880162  0.33528579  0.01858768  1
  In  In32  1  0.49728631  0.50796329  0.34102561  1
  In  In33  1  0.48787506  0.19033720  0.34467177  1
  In  In34  1  0.65298449  0.03567034  0.67930963  1
  In  In35  1  -0.01436215  0.66094558  0.32446318  1
  In  In36  1  0.35279907  0.47356691  0.80822771  1
  In  In37  1  0.14171024  0.82332906  0.02484957  1
  In  In38  1  0.83358802  0.67909939  0.48288169  1
  In  In39  1  0.49295682  0.82132112  0.32850916  1
  In  In40  1  0.64909201  0.48430611  0.84861537  1
  In  In41  1  0.83229386  0.31621895  0.15342121  1
  In  In42  1  0.60840579  0.48563318  0.13488757  1
  In  In43  1  0.00433624  0.83857158  0.82296379  1
  In  In44  1  0.17453485  0.50864790  -0.01296796  1
  In  In45  1  0.82176930  0.67588173  0.16062381  1
  In  In46  1  -0.01146900  0.01916190  0.63653787  1
  In  In47  1  0.64521358  0.66925812  0.68803871  1
  In  In48  1  0.33545575  0.80770735  0.19005673  1
  In  In49  1  0.18572897  0.15491163  0.00258332  1
  In  In50  1  -0.00454933  0.86135323  0.47747080  1
  In  In51  1  0.34501610  0.35393761  0.32780084  1
  In  In52  1  0.83776151  0.30303296  0.49250764  1
  In  In53  1  0.85075527  0.86319827  0.63323899  1
  In  In54  1  -0.00128290  0.34293925  -0.01415488  1
  In  In55  1  0.36734147  0.22918267  0.81502984  1
  In  In56  1  0.69370695  0.72783029  -0.00575048  1
  In  In57  1  0.17612799  0.86654999  0.34880102  1
  In  In58  1  0.52404394  0.16863488  0.00838938  1
  In  In59  1  0.48787019  0.66786038  0.84281094  1
  In  In60  1  0.51056240  0.66236907  0.16902021  1
  In  In61  1  0.33285284  0.68006896  -0.00955272  1
  In  In62  1  0.49665541  0.00578393  0.49282308  1
  In  In63  1  0.33732597  0.00396627  0.00306046  1
  In  In64  1  0.17266978  0.33882020  0.81275528  1
  In  In65  1  -0.02939863  -0.02514258  0.03726595  1
  In  In66  1  -0.00515926  0.29534144  0.34227030  1
  In  In67  1  0.82058210  0.72090466  0.83769347  1
  In  In68  1  0.69434316  0.68277932  0.34411844  1
  In  In69  1  0.33530108  0.65698531  0.34107714  1
  In  In70  1  0.31971366  0.03791641  0.66361775  1
  In  In71  1  0.17548744  0.49462719  0.66696815  1
  Te  Te72  1  0.07968822  0.07205408  0.07707374  1
  Te  Te73  1  0.10245004  0.03663177  0.41730693  1
  Te  Te74  1  0.06942617  0.10381844  0.73746714  1
  Te  Te75  1  0.08879994  0.42086972  0.07644665  1
  Te  Te76  1  0.06867009  0.40953180  0.40658783  1
  Te  Te77  1  0.06814578  0.42049427  0.74209800  1
  Te  Te78  1  0.09266725  0.72000112  0.11614692  1
  Te  Te79  1  0.07806045  0.74835015  0.41533567  1
  Te  Te80  1  0.09078283  0.74836452  0.73691630  1
  Te  Te81  1  0.42099979  0.08838699  0.09276825  1
  Te  Te82  1  0.39914840  0.08711616  0.41174824  1
  Te  Te83  1  0.42750078  0.10275589  0.74628920  1
  Te  Te84  1  0.50261530  0.40912086  0.06853310  1
  Te  Te85  1  0.42317742  0.42131409  0.43500493  1
  Te  Te86  1  0.42250842  0.35681547  0.74706172  1
  Te  Te87  1  0.42810124  0.75491550  0.08210109  1
  Te  Te88  1  0.39989279  0.76006183  0.42947514  1
  Te  Te89  1  0.40421240  0.75715967  0.75163880  1
  Te  Te90  1  0.75662002  0.04386732  0.06688574  1
  Te  Te91  1  0.77190885  0.06007832  0.40705395  1
  Te  Te92  1  0.76149942  0.08305125  0.76320457  1
  Te  Te93  1  0.74897523  0.42516397  0.08827016  1
  Te  Te94  1  0.75477930  0.41509772  0.41787826  1
  Te  Te95  1  0.73707188  0.41223974  0.74772180  1
  Te  Te96  1  0.79090696  0.81157624  0.09885530  1
  Te  Te97  1  0.75725616  0.79464052  0.42278110  1
  Te  Te98  1  0.75532657  0.76767520  0.70799838  1
  Te  Te99  1  0.07184047  0.21706178  0.23901998  1
  Te  Te100  1  0.07647529  0.23464382  0.56600573  1
  Te  Te101  1  0.09734635  0.24340186  0.91268624  1
  Te  Te102  1  0.06805241  0.57800250  0.23619391  1
  Te  Te103  1  0.08347903  0.56454731  0.56940748  1
  Te  Te104  1  0.06159286  0.56346398  0.90108558  1
  Te  Te105  1  0.06930974  0.90434109  0.24612375  1
  Te  Te106  1  0.07974281  0.91746113  0.58140961  1
  Te  Te107  1  0.08561267  0.92433427  0.92288644  1
  Te  Te108  1  0.42644801  0.27028195  0.23997412  1
  Te  Te109  1  0.38124552  0.28877960  0.61073219  1
  Te  Te110  1  0.40588240  0.24004353  0.95594619  1
  Te  Te111  1  0.40921256  0.57382587  0.23585214  1
  Te  Te112  1  0.43000360  0.52274337  0.56864668  1
  Te  Te113  1  0.40661985  0.56798387  0.92107154  1
  Te  Te114  1  0.40747488  0.92165164  0.25584182  1
  Te  Te115  1  0.40621655  0.93269665  0.58858275  1
  Te  Te116  1  0.43547623  0.91330168  0.93130813  1
  Te  Te117  1  0.78902066  0.22460544  0.26661708  1
  Te  Te118  1  0.74973433  0.23507077  0.59340942  1
  Te  Te119  1  0.74274987  0.27127754  0.93646154  1
  Te  Te120  1  0.73785325  0.57682868  0.24573401  1
  Te  Te121  1  0.73919832  0.59930356  0.57446966  1
  Te  Te122  1  0.74232807  0.59231306  0.90060428  1
  Te  Te123  1  0.77529549  0.97986204  0.26890763  1
  Te  Te124  1  0.73344900  0.94469951  0.58403807  1
  Te  Te125  1  0.74917020  0.83522332  0.90548463  1
  Te  Te126  1  0.25732017  0.25159299  0.08460486  1
  Te  Te127  1  0.24318931  0.26322010  0.39610311  1
  Te  Te128  1  0.24616253  0.24159780  0.73185396  1
  Te  Te129  1  0.24295814  0.60295302  0.07539709  1
  Te  Te130  1  0.25936671  0.55792636  0.42653802  1
  Te  Te131  1  0.24995266  0.58559660  0.76832021  1
  Te  Te132  1  0.25562302  0.90227888  0.08826024  1
  Te  Te133  1  0.28987352  0.86871280  0.43649835  1
  Te  Te134  1  0.23577903  0.91978989  0.72239252  1
  Te  Te135  1  0.61464011  0.22147507  0.11655765  1
  Te  Te136  1  0.58415638  0.26033603  0.43912511  1
  Te  Te137  1  0.57407156  0.24990439  0.75574798  1
  Te  Te138  1  0.60490663  0.61698126  0.06000722  1
  Te  Te139  1  0.57665581  0.61794213  0.41282250  1
  Te  Te140  1  0.55934712  0.56586106  0.75467744  1
  Te  Te141  1  0.58717215  0.91705863  0.09024183  1
  Te  Te142  1  0.58250048  0.91473883  0.40798509  1
  Te  Te143  1  0.60037152  0.91709320  0.76033626  1
  Te  Te144  1  0.93062992  0.23722120  0.07012095  1
  Te  Te145  1  0.93303382  0.19859620  0.44044552  1
  Te  Te146  1  0.90204351  0.26818485  0.76976849  1
  Te  Te147  1  0.90524123  0.56994426  0.08940022  1
  Te  Te148  1  0.91483215  0.56721978  0.42061149  1
  Te  Te149  1  0.89094691  0.59664106  0.75634453  1
  Te  Te150  1  0.94359736  0.87252489  0.13708091  1
  Te  Te151  1  0.89641756  0.96344591  0.43378777  1
  Te  Te152  1  0.91571878  0.93403574  0.74852143  1
  Te  Te153  1  0.26242012  0.07859730  0.24989894  1
  Te  Te154  1  0.23898321  0.10214450  0.56110872  1
  Te  Te155  1  0.26040801  0.07686603  0.89517926  1
  Te  Te156  1  0.24681004  0.42550860  0.23663194  1
  Te  Te157  1  0.26284672  0.39790640  0.59519638  1
  Te  Te158  1  0.26149794  0.40893128  0.91227683  1
  Te  Te159  1  0.23099079  0.74093696  0.27212513  1
  Te  Te160  1  0.26654274  0.72409544  0.59406032  1
  Te  Te161  1  0.24551943  0.78038896  0.90811078  1
  Te  Te162  1  0.58601685  0.09321870  0.28014050  1
  Te  Te163  1  0.56863646  0.10736712  0.57626462  1
  Te  Te164  1  0.60415346  0.07671842  0.92013489  1
  Te  Te165  1  0.59343453  0.41341884  0.26947887  1
  Te  Te166  1  0.56872790  0.43919114  0.58881566  1
  Te  Te167  1  0.54542273  0.39901642  0.91076656  1
  Te  Te168  1  0.60665941  0.75929865  0.23803630  1
  Te  Te169  1  0.55315059  0.73867764  0.58909261  1
  Te  Te170  1  0.58834992  0.76280872  0.89369417  1
  Te  Te171  1  0.88941650  0.07518788  0.23177504  1
  Te  Te172  1  0.90987058  0.12635481  0.57573273  1
  Te  Te173  1  0.91064629  0.05991097  0.92522852  1
  Te  Te174  1  0.93127563  0.39309283  0.23990657  1
  Te  Te175  1  0.90830471  0.40793627  0.57720958  1
  Te  Te176  1  0.90389187  0.40336240  0.89161835  1
  Te  Te177  1  0.89394038  0.75876765  0.26147041  1
  Te  Te178  1  0.93279429  0.74283874  0.57791315  1
  Te  Te179  1  0.94065355  0.75130848  0.92824935  1
