# generated using pymatgen
data_In2Te3
_symmetry_space_group_name_H-M   'P 1'
_cell_length_a   18.86463975
_cell_length_b   18.86303754
_cell_length_c   18.87335714
_cell_angle_alpha   90.02632323
_cell_angle_beta   90.03091032
_cell_angle_gamma   89.92607204
_symmetry_Int_Tables_number   1
_chemical_formula_structural   In2Te3
_chemical_formula_sum   'In72 Te108'
_cell_volume   6715.97131974
_cell_formula_units_Z   36
loop_
 _symmetry_equiv_pos_site_id
 _symmetry_equiv_pos_as_xyz
  1  'x, y, z'
loop_
 _atom_site_type_symbol
 _atom_site_label
 _atom_site_symmetry_multiplicity
 _atom_site_fract_x
 _atom_site_fract_y
 _atom_site_fract_z
 _atom_site_occupancy
  In  In0  1  0.13922025  0.15707569  0.32779224  1
  In  In1  1  0.51136778  -0.01357656  0.82038378  1
  In  In2  1  -0.00138514  -0.01254774  0.33071342  1
  In  In3  1  0.84862659  0.84870797  -0.00523141  1
  In  In4  1  -0.00003052  0.15631605  0.16613120  1
  In  In5  1  0.66950718  0.32379261  0.64439060  1
  In  In6  1  0.68559543  0.88097850  0.53172192  1
  In  In7  1  0.13147962  0.51119314  -0.03076553  1
  In  In8  1  0.19123519  0.34854538  0.82569615  1
  In  In9  1  0.29356475  0.51391922  0.51986038  1
  In  In10  1  0.83508642  0.82812632  0.34112484  1
  In  In11  1  0.35062173  0.34990493  0.31203972  1
  In  In12  1  -0.00528004  0.32718298  0.33211081  1
  In  In13  1  0.48532690  0.31562070  0.82507213  1
  In  In14  1  0.32954595  -0.00248681  0.32597291  1
  In  In15  1  0.14057163  0.16079423  0.66475499  1
  In  In16  1  -0.00556918  0.15232801  0.83291598  1
  In  In17  1  0.33573016  -0.00188778  0.67067225  1
  In  In18  1  0.30528851  0.65604400  0.67949951  1
  In  In19  1  0.00486899  0.32840543  0.65724632  1
  In  In20  1  0.69471249  0.01425013  0.01281882  1
  In  In21  1  0.34575469  0.49901577  0.16530937  1
  In  In22  1  0.49985921  0.64768396  0.15121843  1
  In  In23  1  0.31401011  0.13013212  0.86120950  1
  In  In24  1  0.82249038  0.31919363  0.83411078  1
  In  In25  1  0.84178575  0.64828378  0.14917489  1
  In  In26  1  0.16793763  0.47928777  0.33103634  1
  In  In27  1  0.84545679  0.67974843  0.50056298  1
  In  In28  1  0.67841966  0.02572508  0.33433622  1
  In  In29  1  0.33203552  0.84303654  0.85096707  1
  In  In30  1  0.52577396  0.17424139  0.33015877  1
  In  In31  1  0.33898800  0.82246839  0.16578334  1
  In  In32  1  -0.02223756  0.85182558  0.54474925  1
  In  In33  1  0.83024388  0.49875277  -0.00573913  1
  In  In34  1  0.67129466  0.51679442  0.84365971  1
  In  In35  1  0.84728339  0.31771350  0.48599392  1
  In  In36  1  0.01232283  0.33547791  -0.01407342  1
  In  In37  1  0.00426590  0.83701942  0.14331039  1
  In  In38  1  0.47544728  0.17217584  0.00133752  1
  In  In39  1  0.33579517  0.17254484  0.49463601  1
  In  In40  1  0.66372307  0.68079337  -0.01628563  1
  In  In41  1  0.49781124  0.84484535  0.33207815  1
  In  In42  1  0.33881536  0.87027141  0.49897494  1
  In  In43  1  0.13853328  0.51966016  0.67411496  1
  In  In44  1  0.69566167  0.09846419  0.55394170  1
  In  In45  1  0.14242669  0.30488374  0.49726512  1
  In  In46  1  0.85021794  0.31770895  0.15942127  1
  In  In47  1  0.15017319  0.67237007  0.51138134  1
  In  In48  1  0.00770604  0.66251631  0.35343076  1
  In  In49  1  0.85857699  0.52164580  0.69025792  1
  In  In50  1  0.15885085  0.82836051  0.00133871  1
  In  In51  1  0.50365416  0.33512212  0.49494529  1
  In  In52  1  0.71437209  0.69795155  0.69427509  1
  In  In53  1  0.49768799  0.51958193  0.01262463  1
  In  In54  1  0.48583781  0.68517609  0.51000076  1
  In  In55  1  0.34982705  0.32926119  0.66548039  1
  In  In56  1  0.50213879  0.32800538  0.15793708  1
  In  In57  1  -0.00402856  0.00531090  -0.00616599  1
  In  In58  1  0.32816810  0.68911962  -0.00367890  1
  In  In59  1  0.66074766  0.30977016  -0.01321981  1
  In  In60  1  0.68383427  0.30903815  0.31723015  1
  In  In61  1  0.16300844  0.67956649  0.18237090  1
  In  In62  1  0.51379810  0.84831547  0.67518584  1
  In  In63  1  0.51143372  0.68211814  0.84471089  1
  In  In64  1  0.67191260  0.48068525  0.50510058  1
  In  In65  1  0.15811991  0.00125319  0.15404529  1
  In  In66  1  0.68725945  0.13710261  0.81379138  1
  In  In67  1  0.69108757  0.65152762  0.31992751  1
  In  In68  1  0.15001032  0.84195913  0.68000160  1
  In  In69  1  -0.02007847  0.81704419  0.81332351  1
  In  In70  1  0.64555562  0.85255513  0.15769304  1
  In  In71  1  0.49965912  0.50990200  0.32165141  1
  Te  Te72  1  0.10358283  0.10387698  0.05264071  1
  Te  Te73  1  0.07458645  0.07223962  0.42679435  1
  Te  Te74  1  0.08893260  0.06303689  0.76110609  1
  Te  Te75  1  0.07966235  0.42772653  0.07957353  1
  Te  Te76  1  0.07042344  0.42083119  0.43201484  1
  Te  Te77  1  0.06935122  0.41635514  0.76139486  1
  Te  Te78  1  0.07168561  0.72339238  0.06799052  1
  Te  Te79  1  0.06447824  0.77388144  0.43786719  1
  Te  Te80  1  0.07429553  0.72678561  0.73713972  1
  Te  Te81  1  0.38245190  0.07926721  0.07118638  1
  Te  Te82  1  0.42553163  0.08677449  0.40701395  1
  Te  Te83  1  0.41859120  0.09074483  0.75714002  1
  Te  Te84  1  0.41064817  0.40499235  0.06510178  1
  Te  Te85  1  0.40418576  0.43275537  0.42865337  1
  Te  Te86  1  0.41552546  0.42448376  0.75586885  1
  Te  Te87  1  0.44092859  0.76047997  0.06851097  1
  Te  Te88  1  0.39862750  0.75958490  0.41078182  1
  Te  Te89  1  0.41127338  0.75822888  0.74257598  1
  Te  Te90  1  0.74144049  0.10835657  0.11303021  1
  Te  Te91  1  0.77227582  0.09222215  0.42834391  1
  Te  Te92  1  0.77304368  0.07030795  0.71034103  1
  Te  Te93  1  0.74739899  0.39852993  0.07443205  1
  Te  Te94  1  0.75974309  0.41160568  0.40313251  1
  Te  Te95  1  0.74353415  0.41967605  0.74729615  1
  Te  Te96  1  0.75017298  0.76274064  0.08893912  1
  Te  Te97  1  0.72864841  0.75709347  0.42488921  1
  Te  Te98  1  0.73030121  0.80516813  0.79279359  1
  Te  Te99  1  0.08958944  0.26092597  0.23006547  1
  Te  Te100  1  0.03913764  0.21431892  0.56146592  1
  Te  Te101  1  0.09883570  0.24923254  0.89571060  1
  Te  Te102  1  0.07792002  0.57382527  0.25138271  1
  Te  Te103  1  0.05358961  0.58005237  0.57120691  1
  Te  Te104  1  0.05025801  0.58734317  0.87402918  1
  Te  Te105  1  0.09489472  0.89962529  0.24806551  1
  Te  Te106  1  0.08287547  0.94282340  0.59661586  1
  Te  Te107  1  0.07028603  0.90619169  0.90740930  1
  Te  Te108  1  0.41131063  0.23116373  0.23713277  1
  Te  Te109  1  0.44020414  0.23219117  0.58841109  1
  Te  Te110  1  0.37995221  0.25685481  0.91733741  1
  Te  Te111  1  0.39976004  0.60515505  0.26009765  1
  Te  Te112  1  0.40922407  0.58254701  0.59304030  1
  Te  Te113  1  0.40936934  0.59038748  0.91132293  1
  Te  Te114  1  0.42743519  0.93091735  0.22874192  1
  Te  Te115  1  0.45016861  0.94689221  0.57292186  1
  Te  Te116  1  0.42084608  0.93347430  0.92375204  1
  Te  Te117  1  0.75672459  0.21659489  0.22531705  1
  Te  Te118  1  0.77201004  0.23148136  0.58567552  1
  Te  Te119  1  0.76157837  0.21440887  0.92456766  1
  Te  Te120  1  0.77355833  0.55740173  0.24484866  1
  Te  Te121  1  0.74958020  0.58031198  0.59142228  1
  Te  Te122  1  0.77299137  0.61082120  0.90343316  1
  Te  Te123  1  0.74815890  0.91466016  0.25109750  1
  Te  Te124  1  0.79731692  0.93425628  0.62158837  1
  Te  Te125  1  0.76127904  0.93181716  0.90607783  1
  Te  Te126  1  0.30848686  0.19843679  0.11046080  1
  Te  Te127  1  0.25251490  0.26223732  0.40014319  1
  Te  Te128  1  0.25414742  0.23277851  0.73960560  1
  Te  Te129  1  0.25384640  0.59553519  0.08988514  1
  Te  Te130  1  0.23573109  0.59441243  0.40681472  1
  Te  Te131  1  0.24238989  0.56043906  0.76976174  1
  Te  Te132  1  0.25815423  0.91539209  0.07429424  1
  Te  Te133  1  0.23456079  0.93659429  0.42012331  1
  Te  Te134  1  0.24039104  0.93108250  0.76730531  1
  Te  Te135  1  0.58998825  0.22405193  0.09115003  1
  Te  Te136  1  0.61027403  0.24421504  0.43536300  1
  Te  Te137  1  0.59503195  0.24125846  0.74811645  1
  Te  Te138  1  0.61739628  0.57583816  0.08706962  1
  Te  Te139  1  0.58111934  0.58522018  0.42608675  1
  Te  Te140  1  0.59504869  0.60373425  0.74591104  1
  Te  Te141  1  0.57646806  0.94270180  0.06633546  1
  Te  Te142  1  0.59222148  0.92521931  0.41582465  1
  Te  Te143  1  0.62706370  0.91629069  0.74936524  1
  Te  Te144  1  0.92478733  0.23302550  0.05721818  1
  Te  Te145  1  0.90680710  0.22278473  0.39014857  1
  Te  Te146  1  0.91064057  0.24118689  0.73950100  1
  Te  Te147  1  0.93598894  0.56057633  0.07761665  1
  Te  Te148  1  0.90153556  0.57911237  0.41067336  1
  Te  Te149  1  0.94330399  0.61725011  0.76413160  1
  Te  Te150  1  0.90553700  0.94290146  0.10107924  1
  Te  Te151  1  0.90015563  0.92683335  0.43340136  1
  Te  Te152  1  0.91989156  0.93121956  0.73621521  1
  Te  Te153  1  0.24670560  0.09701066  0.23708216  1
  Te  Te154  1  0.24790280  0.08352849  0.57971331  1
  Te  Te155  1  0.22793892  0.06760119  0.96157360  1
  Te  Te156  1  0.24179262  0.40233689  0.22008130  1
  Te  Te157  1  0.22953389  0.39629411  0.59065219  1
  Te  Te158  1  0.24731493  0.42422474  0.93925298  1
  Te  Te159  1  0.24261723  0.77163435  0.26413396  1
  Te  Te160  1  0.25706270  0.76435349  0.58367049  1
  Te  Te161  1  0.22773638  0.74126932  0.89521176  1
  Te  Te162  1  0.58031479  0.07604326  0.23534515  1
  Te  Te163  1  0.57881019  0.03431983  0.61489585  1
  Te  Te164  1  0.57916640  0.09350121  0.91222260  1
  Te  Te165  1  0.58939708  0.41400797  0.24906850  1
  Te  Te166  1  0.56582768  0.42690141  0.60090143  1
  Te  Te167  1  0.57716821  0.41895807  0.91603205  1
  Te  Te168  1  0.58077406  0.73717333  0.25340605  1
  Te  Te169  1  0.59826132  0.75490039  0.58698251  1
  Te  Te170  1  0.57955468  0.78557237  0.92305152  1
  Te  Te171  1  0.91125762  0.07151455  0.24579723  1
  Te  Te172  1  0.90854745  0.04457427  0.63109194  1
  Te  Te173  1  0.89480138  0.07123625  0.90843123  1
  Te  Te174  1  0.92102049  0.41681588  0.24118444  1
  Te  Te175  1  0.90631561  0.42085322  0.58760316  1
  Te  Te176  1  0.91660570  0.41801363  0.89761603  1
  Te  Te177  1  0.92343071  0.74859602  0.24555811  1
  Te  Te178  1  0.88949484  0.75616797  0.61754644  1
  Te  Te179  1  0.93014195  0.74309502  0.93318956  1
