# generated using pymatgen
data_In2Te3
_symmetry_space_group_name_H-M   'P 1'
_cell_length_a   18.76027362
_cell_length_b   18.75199407
_cell_length_c   18.74919747
_cell_angle_alpha   90.02622420
_cell_angle_beta   90.00700492
_cell_angle_gamma   90.00936669
_symmetry_Int_Tables_number   1
_chemical_formula_structural   In2Te3
_chemical_formula_sum   'In72 Te108'
_cell_volume   6595.82696637
_cell_formula_units_Z   36
loop_
 _symmetry_equiv_pos_site_id
 _symmetry_equiv_pos_as_xyz
  1  'x, y, z'
loop_
 _atom_site_type_symbol
 _atom_site_label
 _atom_site_symmetry_multiplicity
 _atom_site_fract_x
 _atom_site_fract_y
 _atom_site_fract_z
 _atom_site_occupancy
  In  In0  1  0.50652062  0.52629347  0.34512673  1
  In  In1  1  0.52095728  0.83117087  -0.00356935  1
  In  In2  1  0.68414615  0.50125796  0.15924450  1
  In  In3  1  0.47868760  0.32844303  0.14311585  1
  In  In4  1  0.01550198  0.30521311  0.63959177  1
  In  In5  1  0.62972047  0.14338399  0.17520086  1
  In  In6  1  0.66761475  0.82930123  0.16153675  1
  In  In7  1  -0.02011956  0.01010924  -0.01492456  1
  In  In8  1  -0.00326124  0.01479239  0.66049573  1
  In  In9  1  0.18591935  0.79419317  0.30820959  1
  In  In10  1  0.65824386  0.32916124  0.33037046  1
  In  In11  1  0.84118984  0.51925509  0.00178544  1
  In  In12  1  0.81229508  -0.01237384  0.53753955  1
  In  In13  1  -0.02071773  0.83008117  0.83812989  1
  In  In14  1  0.17216970  0.50870175  0.02145219  1
  In  In15  1  0.32658433  0.51259489  0.50273516  1
  In  In16  1  0.18948134  0.32356085  0.83511416  1
  In  In17  1  0.34633269  -0.00151142  0.31173229  1
  In  In18  1  0.65769868  0.67683491  0.66217328  1
  In  In19  1  0.78737879  0.81848297  0.36370561  1
  In  In20  1  0.17958403  0.01180483  0.17451360  1
  In  In21  1  0.15781608  0.00330405  0.49574518  1
  In  In22  1  0.82324038  -0.01341365  0.16036960  1
  In  In23  1  0.83835495  0.34129022  0.51335836  1
  In  In24  1  0.66959326  0.00064975  -0.01260916  1
  In  In25  1  0.49148552  0.83623705  0.35208576  1
  In  In26  1  0.84214213  0.51992928  0.33498378  1
  In  In27  1  0.35249196  0.67607892  0.66474450  1
  In  In28  1  0.35831468  0.82634471  0.83039222  1
  In  In29  1  0.50414273  0.15774452  -0.01820237  1
  In  In30  1  -0.01845010  0.14376327  0.82096892  1
  In  In31  1  -0.00926377  0.20302583  0.18101450  1
  In  In32  1  0.00482790  0.35326999  0.00787020  1
  In  In33  1  0.82804354  0.68122694  0.83781431  1
  In  In34  1  0.37216827  0.01749658  0.63940433  1
  In  In35  1  0.32303649  0.16747484  0.16319010  1
  In  In36  1  0.15325832  0.01698274  0.81515047  1
  In  In37  1  0.80116901  0.29369215  0.84694778  1
  In  In38  1  -0.01393562  -0.00302237  0.36748581  1
  In  In39  1  0.78487543  -0.01515714  0.79681991  1
  In  In40  1  0.00020222  0.84581001  0.17107124  1
  In  In41  1  0.17361533  0.50142314  0.33105124  1
  In  In42  1  0.82193177  0.49948247  0.65402335  1
  In  In43  1  0.18607295  0.83466129  0.66294719  1
  In  In44  1  0.15997031  0.50809286  0.64788405  1
  In  In45  1  0.33356109  0.81832208  0.49565998  1
  In  In46  1  0.01733751  0.34777575  0.34218077  1
  In  In47  1  0.65683558  0.32655773  0.64690712  1
  In  In48  1  -0.01614323  0.69381808  0.62998952  1
  In  In49  1  0.34482374  -0.02397856  0.00060889  1
  In  In50  1  0.17348199  0.17961762  0.00600133  1
  In  In51  1  0.83515047  0.34140563  0.14819047  1
  In  In52  1  0.51565781  -0.01524253  0.52609072  1
  In  In53  1  0.38281267  0.48298655  0.82489192  1
  In  In54  1  0.34426803  0.17969906  0.82528599  1
  In  In55  1  0.53076852  0.33474042  0.50590605  1
  In  In56  1  0.00876556  0.50905277  0.83298020  1
  In  In57  1  0.31870643  0.32853703  0.33844461  1
  In  In58  1  0.50819064  0.17441696  0.66186622  1
  In  In59  1  0.83430485  0.66195699  0.17419633  1
  In  In60  1  0.33415638  0.17258411  0.48000418  1
  In  In61  1  0.49452936  0.65925797  0.16919643  1
  In  In62  1  0.82647010  0.15531035  0.34610323  1
  In  In63  1  0.65697245  0.51218916  0.52411197  1
  In  In64  1  0.62242760  0.47369620  0.83616247  1
  In  In65  1  0.01236378  0.67005151  0.34498904  1
  In  In66  1  0.15541889  0.82425072  0.03050899  1
  In  In67  1  0.33879114  0.64130329  -0.00261712  1
  In  In68  1  0.65427603  0.15281828  0.51141356  1
  In  In69  1  0.64653120  0.66791356  -0.00457321  1
  In  In70  1  0.17159643  0.65380903  0.83585256  1
  In  In71  1  0.34969442  0.32295271  0.01241642  1
  Te  Te72  1  0.07890387  0.08245226  0.08148850  1
  Te  Te73  1  0.07161842  0.10432098  0.42593016  1
  Te  Te74  1  0.09605501  0.11807822  0.71928247  1
  Te  Te75  1  0.09165043  0.41765217  0.10677006  1
  Te  Te76  1  0.08903646  0.43542081  0.43610178  1
  Te  Te77  1  0.08546204  0.40553315  0.75064356  1
  Te  Te78  1  0.08074553  0.73201733  0.11832066  1
  Te  Te79  1  0.09417958  0.76919254  0.41977758  1
  Te  Te80  1  0.08612857  0.74823071  0.75032036  1
  Te  Te81  1  0.42144502  0.07971779  0.08558502  1
  Te  Te82  1  0.42880941  0.06518551  0.42402483  1
  Te  Te83  1  0.43801018  0.07613144  0.76272132  1
  Te  Te84  1  0.40189989  0.44126798  0.08585840  1
  Te  Te85  1  0.43167169  0.41116011  0.41475375  1
  Te  Te86  1  0.43985170  0.39780819  0.72104100  1
  Te  Te87  1  0.41744533  0.75122093  0.07339278  1
  Te  Te88  1  0.41902764  0.72410278  0.42015967  1
  Te  Te89  1  0.44980874  0.72822978  0.76748433  1
  Te  Te90  1  0.74517364  0.09312771  0.08667517  1
  Te  Te91  1  0.73670009  0.05941258  0.42101450  1
  Te  Te92  1  0.72662216  0.10344534  0.73037379  1
  Te  Te93  1  0.74178061  0.41140779  0.05053100  1
  Te  Te94  1  0.73898015  0.42000317  0.42411060  1
  Te  Te95  1  0.74608344  0.41144858  0.75158987  1
  Te  Te96  1  0.75585187  0.74443638  0.07078090  1
  Te  Te97  1  0.72529729  0.71110112  0.44399314  1
  Te  Te98  1  0.75311392  0.76576741  0.74008920  1
  Te  Te99  1  0.10163021  0.25466232  0.26039764  1
  Te  Te100  1  0.09625403  0.24128481  0.53420010  1
  Te  Te101  1  0.07212586  0.24127646  0.90870880  1
  Te  Te102  1  0.07825053  0.58303747  0.24604770  1
  Te  Te103  1  0.07657327  0.59797142  0.56549910  1
  Te  Te104  1  0.07433534  0.59702860  0.93896753  1
  Te  Te105  1  0.08972654  0.92692619  0.26694272  1
  Te  Te106  1  0.07742561  0.90780840  0.58420534  1
  Te  Te107  1  0.09171459  0.91905167  0.91585778  1
  Te  Te108  1  0.41922168  0.24351204  0.25489003  1
  Te  Te109  1  0.41498529  0.25937459  0.57784853  1
  Te  Te110  1  0.44383693  0.27926810  0.89609492  1
  Te  Te111  1  0.39732492  0.59100470  0.26306100  1
  Te  Te112  1  0.43160386  0.59868982  0.56587216  1
  Te  Te113  1  0.44258283  0.59457408  0.90250112  1
  Te  Te114  1  0.42775382  0.90323781  0.23491102  1
  Te  Te115  1  0.42322201  0.87956151  0.60452490  1
  Te  Te116  1  0.44953459  0.92862908  0.89907559  1
  Te  Te117  1  0.75440308  0.24776441  0.24352280  1
  Te  Te118  1  0.76271748  0.23211758  0.58808475  1
  Te  Te119  1  0.69012590  0.23835691  0.92524144  1
  Te  Te120  1  0.72989814  0.59858892  0.26682286  1
  Te  Te121  1  0.77102875  0.61398233  0.56384935  1
  Te  Te122  1  0.73650202  0.57320781  0.90123681  1
  Te  Te123  1  0.73151712  0.92513254  0.26399094  1
  Te  Te124  1  0.72581051  0.87154483  0.59541881  1
  Te  Te125  1  0.74271410  0.89759281  0.90936385  1
  Te  Te126  1  0.23295525  0.27747931  0.10394256  1
  Te  Te127  1  0.22414098  0.27283167  0.44606268  1
  Te  Te128  1  0.25943958  0.25097075  0.72765621  1
  Te  Te129  1  0.24247023  0.61108011  0.10875901  1
  Te  Te130  1  0.25831013  0.60149958  0.40581893  1
  Te  Te131  1  0.26571223  0.57127730  0.75005973  1
  Te  Te132  1  0.26293517  0.90221595  0.10773332  1
  Te  Te133  1  0.25420057  0.91800791  0.40972565  1
  Te  Te134  1  0.26401479  0.93107189  0.75400447  1
  Te  Te135  1  0.59209143  0.25105932  0.07550495  1
  Te  Te136  1  0.57064368  0.22370521  0.40046839  1
  Te  Te137  1  0.59721191  0.24659275  0.75782493  1
  Te  Te138  1  0.57104824  0.56351062  0.07584212  1
  Te  Te139  1  0.59321568  0.61430561  0.43168233  1
  Te  Te140  1  0.57653207  0.59125661  0.75485390  1
  Te  Te141  1  0.57993057  0.93421014  0.09343298  1
  Te  Te142  1  0.59802862  0.90380917  0.43241648  1
  Te  Te143  1  0.61475891  0.88911431  0.69554967  1
  Te  Te144  1  0.90924801  0.24144237  0.05815365  1
  Te  Te145  1  0.91763493  0.25257217  0.41765924  1
  Te  Te146  1  0.91203523  0.25601385  0.74362465  1
  Te  Te147  1  0.93044238  0.57242000  0.10566385  1
  Te  Te148  1  0.92419449  0.58935812  0.43475501  1
  Te  Te149  1  0.91874764  0.59103350  0.73980479  1
  Te  Te150  1  0.90496350  0.90163178  0.06334737  1
  Te  Te151  1  0.90395415  0.89216776  0.44320097  1
  Te  Te152  1  0.90713803  0.91379679  0.73438561  1
  Te  Te153  1  0.24040429  0.10579476  0.27832327  1
  Te  Te154  1  0.25288618  0.08919258  0.58224179  1
  Te  Te155  1  0.25923003  0.08400407  0.92284849  1
  Te  Te156  1  0.27023141  0.42782242  0.24110675  1
  Te  Te157  1  0.25325052  0.41254098  0.58477225  1
  Te  Te158  1  0.25930867  0.42864269  0.91960520  1
  Te  Te159  1  0.28143577  0.70787631  0.23818200  1
  Te  Te160  1  0.23765841  0.72496392  0.57344833  1
  Te  Te161  1  0.25037438  0.75840229  0.91879639  1
  Te  Te162  1  0.55929474  0.09840232  0.29265731  1
  Te  Te163  1  0.61550028  0.05635570  0.63290970  1
  Te  Te164  1  0.60833887  0.09850397  0.88873468  1
  Te  Te165  1  0.57536103  0.42173043  0.24206075  1
  Te  Te166  1  0.55039670  0.44236149  0.61797489  1
  Te  Te167  1  0.55637095  0.38375424  0.93105450  1
  Te  Te168  1  0.58419659  0.74576963  0.25596937  1
  Te  Te169  1  0.57988565  0.78529410  0.58762335  1
  Te  Te170  1  0.60307826  0.76500339  0.89241097  1
  Te  Te171  1  0.92155948  0.07401282  0.24291576  1
  Te  Te172  1  0.91057749  0.09393813  0.57043659  1
  Te  Te173  1  0.87321823  0.07722507  0.90205409  1
  Te  Te174  1  0.91911752  0.42260638  0.24542763  1
  Te  Te175  1  0.93948498  0.42938307  0.58411919  1
  Te  Te176  1  0.90947640  0.41336262  0.90154754  1
  Te  Te177  1  0.90005973  0.77082300  0.26230225  1
  Te  Te178  1  0.89365120  0.78746513  0.56161669  1
  Te  Te179  1  0.92603433  0.73433317  0.93641540  1
