# generated using pymatgen
data_In2Te3
_symmetry_space_group_name_H-M   'P 1'
_cell_length_a   18.99595530
_cell_length_b   19.00835925
_cell_length_c   18.99877599
_cell_angle_alpha   89.82952481
_cell_angle_beta   90.29631204
_cell_angle_gamma   89.96563860
_symmetry_Int_Tables_number   1
_chemical_formula_structural   In2Te3
_chemical_formula_sum   'In72 Te108'
_cell_volume   6859.99153992
_cell_formula_units_Z   36
loop_
 _symmetry_equiv_pos_site_id
 _symmetry_equiv_pos_as_xyz
  1  'x, y, z'
loop_
 _atom_site_type_symbol
 _atom_site_label
 _atom_site_symmetry_multiplicity
 _atom_site_fract_x
 _atom_site_fract_y
 _atom_site_fract_z
 _atom_site_occupancy
  In  In0  1  -0.02919900  -0.01310899  0.68238934  1
  In  In1  1  0.84820904  0.82892307  0.31540323  1
  In  In2  1  0.02210097  0.84751781  0.87887542  1
  In  In3  1  0.66258098  0.68549928  0.00830021  1
  In  In4  1  0.34170624  0.16388460  0.80845567  1
  In  In5  1  0.31907189  0.66089911  -0.01349262  1
  In  In6  1  0.34470322  0.33468260  0.65229395  1
  In  In7  1  0.51268129  0.68545168  0.15244860  1
  In  In8  1  0.65572807  -0.01054070  0.69182012  1
  In  In9  1  0.32032834  0.65856129  0.67127949  1
  In  In10  1  0.81862774  0.81645902  0.71586084  1
  In  In11  1  0.34092239  0.00059698  0.67850449  1
  In  In12  1  0.17637545  0.85144944  0.33123586  1
  In  In13  1  0.66547877  0.16934627  0.14536128  1
  In  In14  1  0.14314961  0.14591469  0.66444740  1
  In  In15  1  0.47610092  0.51116523  0.33900433  1
  In  In16  1  0.15607834  0.50036431  -0.00955958  1
  In  In17  1  -0.00916246  0.34248374  -0.02231338  1
  In  In18  1  0.68492213  0.49876036  0.14123444  1
  In  In19  1  0.35871768  -0.00234878  0.30478506  1
  In  In20  1  0.18092077  0.34156849  0.84553921  1
  In  In21  1  0.32721810  0.68395373  0.35385862  1
  In  In22  1  0.80891511  0.03234471  0.50921275  1
  In  In23  1  -0.00603317  0.33643611  0.32051768  1
  In  In24  1  0.65884479  0.65877895  0.31870510  1
  In  In25  1  0.65934256  0.33432642  0.32848655  1
  In  In26  1  0.32856068  0.84506346  0.85337955  1
  In  In27  1  0.32038636  0.82007656  0.17819311  1
  In  In28  1  0.84832145  0.50416182  0.00996878  1
  In  In29  1  -0.03966684  0.14343029  0.86370911  1
  In  In30  1  0.82015999  0.66013657  0.51647062  1
  In  In31  1  -0.00331468  0.31141811  0.68955817  1
  In  In32  1  0.33669160  0.34140735  0.33718168  1
  In  In33  1  0.00972430  0.00283936  0.33606832  1
  In  In34  1  0.72843428  0.13494254  0.89942986  1
  In  In35  1  0.34382273  0.49214419  0.15402683  1
  In  In36  1  0.52395493  0.82166968  0.67184849  1
  In  In37  1  0.67847738  0.35042266  0.67779762  1
  In  In38  1  0.17571981  0.17032418  0.01454124  1
  In  In39  1  0.00204103  0.77685365  0.07749378  1
  In  In40  1  -0.00011950  0.49592809  0.50842948  1
  In  In41  1  0.81511943  -0.03137478  0.16163799  1
  In  In42  1  -0.02774910  0.19209904  0.15036566  1
  In  In43  1  -0.02225959  0.84261181  0.52405946  1
  In  In44  1  0.16046356  0.49199157  0.65698957  1
  In  In45  1  0.00800985  0.67389457  0.31957088  1
  In  In46  1  0.18579560  0.83760257  0.67148437  1
  In  In47  1  0.48343943  0.51072757  0.66813749  1
  In  In48  1  0.18990093  -0.00786338  0.48410259  1
  In  In49  1  0.66365062  0.85102906  0.50281395  1
  In  In50  1  0.50801997  0.33007088  0.81146266  1
  In  In51  1  0.65863656  0.50530459  0.84380448  1
  In  In52  1  0.17933290  0.32969916  0.48881533  1
  In  In53  1  0.12772380  0.65679395  0.81243801  1
  In  In54  1  0.49189803  -0.00619027  0.50929391  1
  In  In55  1  0.53257833  0.00321900  0.11705791  1
  In  In56  1  0.14941173  -0.01124884  0.13499627  1
  In  In57  1  0.33048293  0.00557004  0.01215353  1
  In  In58  1  0.50328021  0.66659487  0.85211102  1
  In  In59  1  0.82663754  0.17698581  0.66944241  1
  In  In60  1  0.17439267  0.32380651  0.17112435  1
  In  In61  1  0.81666412  0.83085051  -0.00549403  1
  In  In62  1  0.33311270  0.16083983  0.18518226  1
  In  In63  1  0.82679680  0.57525315  0.72967904  1
  In  In64  1  0.83423582  0.34611276  0.48426589  1
  In  In65  1  0.50700935  0.16959948  0.67231216  1
  In  In66  1  0.90188197  0.52369068  0.25273521  1
  In  In67  1  0.81931263  0.17070221  0.32150725  1
  In  In68  1  0.15885892  0.65848066  0.48235562  1
  In  In69  1  0.53083290  0.34059384  0.14276751  1
  In  In70  1  0.64548671  0.49940110  0.49693271  1
  In  In71  1  0.51540424  0.16294392  0.33243824  1
  Te  Te72  1  0.05864377  0.09440931  0.07229773  1
  Te  Te73  1  0.09266194  0.08327122  0.42455570  1
  Te  Te74  1  0.05900175  0.07477334  0.76979913  1
  Te  Te75  1  0.08103795  0.40419180  0.08257334  1
  Te  Te76  1  0.08379548  0.42038603  0.40966032  1
  Te  Te77  1  0.07992021  0.41603613  0.75982546  1
  Te  Te78  1  0.12898854  0.70691201  0.08863834  1
  Te  Te79  1  0.07012985  0.77806483  0.42288679  1
  Te  Te80  1  0.06969611  0.78045844  0.74767506  1
  Te  Te81  1  0.42514357  0.10379396  0.07887848  1
  Te  Te82  1  0.41303125  0.08635880  0.41348829  1
  Te  Te83  1  0.44829032  0.06356237  0.76423446  1
  Te  Te84  1  0.43016847  0.41634618  0.06540055  1
  Te  Te85  1  0.42583199  0.40998140  0.43006944  1
  Te  Te86  1  0.39926568  0.42444779  0.75877476  1
  Te  Te87  1  0.40481511  0.75490273  0.07014150  1
  Te  Te88  1  0.40918527  0.79832881  0.38570928  1
  Te  Te89  1  0.40440412  0.75402234  0.75612222  1
  Te  Te90  1  0.77328189  0.08711745  0.08015782  1
  Te  Te91  1  0.72653705  0.09905085  0.40940295  1
  Te  Te92  1  0.76002065  0.07542274  0.75829685  1
  Te  Te93  1  0.74134294  0.40279893  0.04224070  1
  Te  Te94  1  0.74595370  0.43744561  0.40170243  1
  Te  Te95  1  0.76609350  0.43326207  0.76545858  1
  Te  Te96  1  0.75210992  0.75428551  0.10177435  1
  Te  Te97  1  0.75635316  0.74756548  0.41107558  1
  Te  Te98  1  0.75949416  0.69859044  0.77890467  1
  Te  Te99  1  0.08128052  0.23395296  0.24831265  1
  Te  Te100  1  0.07885475  0.25306553  0.57792207  1
  Te  Te101  1  0.08390497  0.23879205  0.90733648  1
  Te  Te102  1  0.04911207  0.55694696  0.24076317  1
  Te  Te103  1  0.07364655  0.59873988  0.59225705  1
  Te  Te104  1  0.05195172  0.58234028  0.91789173  1
  Te  Te105  1  0.07110155  0.90768791  0.23729798  1
  Te  Te106  1  0.08526760  0.93042476  0.58783336  1
  Te  Te107  1  0.10515659  0.91846660  0.97747973  1
  Te  Te108  1  0.43725920  0.25939719  0.24115456  1
  Te  Te109  1  0.41387039  0.23123834  0.57846038  1
  Te  Te110  1  0.42331280  0.24430034  0.89644344  1
  Te  Te111  1  0.40933487  0.60617999  0.23857298  1
  Te  Te112  1  0.41290142  0.60022144  0.57585359  1
  Te  Te113  1  0.41199005  0.57381037  0.91672436  1
  Te  Te114  1  0.43358094  0.91899287  0.20287389  1
  Te  Te115  1  0.41459291  0.89764251  0.59723569  1
  Te  Te116  1  0.42197117  0.92802914  0.92953213  1
  Te  Te117  1  0.75025009  0.26884876  0.22742635  1
  Te  Te118  1  0.74529810  0.26163365  0.57353968  1
  Te  Te119  1  0.75837251  0.27082668  0.95275289  1
  Te  Te120  1  0.76116339  0.59196684  0.23097736  1
  Te  Te121  1  0.74853679  0.55509868  0.59418383  1
  Te  Te122  1  0.75199030  0.59301564  0.92892094  1
  Te  Te123  1  0.73803349  0.91504772  0.27264158  1
  Te  Te124  1  0.76492140  0.91496415  0.60288769  1
  Te  Te125  1  0.71938620  0.92283410  0.92601332  1
  Te  Te126  1  0.27703411  0.25935780  0.08206630  1
  Te  Te127  1  0.25087774  0.24133524  0.39885405  1
  Te  Te128  1  0.23375481  0.25259697  0.73212591  1
  Te  Te129  1  0.23113975  0.58909408  0.09576152  1
  Te  Te130  1  0.24541253  0.57411265  0.40285605  1
  Te  Te131  1  0.23967058  0.56850503  0.76152840  1
  Te  Te132  1  0.23538066  0.88759655  0.06355590  1
  Te  Te133  1  0.29683720  0.89899097  0.41456327  1
  Te  Te134  1  0.23821142  0.93838936  0.77015924  1
  Te  Te135  1  0.59083893  0.24851332  0.04576548  1
  Te  Te136  1  0.58803120  0.25153365  0.42388970  1
  Te  Te137  1  0.61517744  0.23714982  0.75594064  1
  Te  Te138  1  0.57532407  0.57592432  0.07003930  1
  Te  Te139  1  0.56349614  0.60409685  0.42295428  1
  Te  Te140  1  0.58214539  0.59438212  0.74551268  1
  Te  Te141  1  0.63036591  0.91255460  0.05206826  1
  Te  Te142  1  0.56430961  0.91037786  0.41262515  1
  Te  Te143  1  0.60833575  0.88013041  0.77779179  1
  Te  Te144  1  0.88750346  0.25629430  0.04383198  1
  Te  Te145  1  0.91755848  0.24271560  0.41297894  1
  Te  Te146  1  0.89319553  0.25299991  0.78269447  1
  Te  Te147  1  0.93795836  0.56480258  0.11231144  1
  Te  Te148  1  0.92140794  0.59532673  0.42432162  1
  Te  Te149  1  0.96262677  0.58580696  0.78712317  1
  Te  Te150  1  0.92074861  0.91022689  0.07406143  1
  Te  Te151  1  0.90155503  0.93163293  0.42702123  1
  Te  Te152  1  0.90592702  0.91128089  0.79488524  1
  Te  Te153  1  0.23593277  0.06169249  0.24266549  1
  Te  Te154  1  0.25681785  0.08533501  0.58447507  1
  Te  Te155  1  0.25257398  0.09130285  0.91334202  1
  Te  Te156  1  0.24667195  0.42897994  0.25137615  1
  Te  Te157  1  0.26284543  0.43015572  0.56641746  1
  Te  Te158  1  0.26355097  0.41591843  0.93889452  1
  Te  Te159  1  0.21670236  0.73410434  0.24776767  1
  Te  Te160  1  0.24778590  0.74880042  0.56880246  1
  Te  Te161  1  0.22776260  0.74107249  0.89655499  1
  Te  Te162  1  0.59326994  0.07452933  0.23869367  1
  Te  Te163  1  0.59239286  0.07752658  0.58625050  1
  Te  Te164  1  0.62086747  0.04240092  0.95071933  1
  Te  Te165  1  0.58106670  0.44635603  0.24948307  1
  Te  Te166  1  0.56867451  0.40980737  0.59186782  1
  Te  Te167  1  0.57579962  0.40946999  0.91514466  1
  Te  Te168  1  0.59385884  0.76566198  0.24298470  1
  Te  Te169  1  0.61219704  0.74356624  0.58653382  1
  Te  Te170  1  0.56835368  0.77103111  0.93203532  1
  Te  Te171  1  0.91391290  0.07837718  0.24368559  1
  Te  Te172  1  0.92316373  0.09527069  0.58651827  1
  Te  Te173  1  0.85961058  0.07147133  0.94395821  1
  Te  Te174  1  0.89274456  0.38022475  0.22344321  1
  Te  Te175  1  0.91687726  0.40649666  0.59682010  1
  Te  Te176  1  0.92415387  0.44612703  0.89576220  1
  Te  Te177  1  0.93065651  0.75334871  0.21683042  1
  Te  Te178  1  0.90539593  0.74322518  0.60994219  1
  Te  Te179  1  0.93274356  0.74445378  0.94474894  1
