# generated using pymatgen
data_In2Te3
_symmetry_space_group_name_H-M   'P 1'
_cell_length_a   18.82008619
_cell_length_b   18.82813269
_cell_length_c   18.82886009
_cell_angle_alpha   89.87752118
_cell_angle_beta   90.02852032
_cell_angle_gamma   89.89826146
_symmetry_Int_Tables_number   1
_chemical_formula_structural   In2Te3
_chemical_formula_sum   'In72 Te108'
_cell_volume   6671.92499451
_cell_formula_units_Z   36
loop_
 _symmetry_equiv_pos_site_id
 _symmetry_equiv_pos_as_xyz
  1  'x, y, z'
loop_
 _atom_site_type_symbol
 _atom_site_label
 _atom_site_symmetry_multiplicity
 _atom_site_fract_x
 _atom_site_fract_y
 _atom_site_fract_z
 _atom_site_occupancy
  In  In0  1  0.66417443  0.32105377  0.31416949  1
  In  In1  1  0.33546882  0.00488032  0.00273421  1
  In  In2  1  0.31823794  0.84473984  0.16700096  1
  In  In3  1  0.16014749  0.17270882  0.00992507  1
  In  In4  1  0.16089470  0.83773680  0.65103538  1
  In  In5  1  0.18201844  0.47423416  0.32578371  1
  In  In6  1  0.50545868  0.32705204  0.17323114  1
  In  In7  1  0.00713437  0.13777426  0.47572734  1
  In  In8  1  0.85013167  0.15858768  0.64791388  1
  In  In9  1  0.14179417  0.82856682  0.01838168  1
  In  In10  1  0.32210183  0.32563915  -0.00497894  1
  In  In11  1  0.69127622  0.66200645  0.31147156  1
  In  In12  1  0.47732012  0.82338414  0.32111487  1
  In  In13  1  0.17093502  0.32275309  0.48902778  1
  In  In14  1  0.49212147  -0.00276741  0.49920804  1
  In  In15  1  0.50111003  0.31131339  0.49443492  1
  In  In16  1  0.17702672  0.14962958  0.65430481  1
  In  In17  1  0.66602935  0.66820286  0.67121589  1
  In  In18  1  0.85508979  0.49638025  0.02399544  1
  In  In19  1  0.31968982  0.47619322  0.18682031  1
  In  In20  1  0.02023499  0.34108685  0.69097113  1
  In  In21  1  0.28979274  0.32503203  0.33586553  1
  In  In22  1  0.31488292  0.31357150  0.67759263  1
  In  In23  1  0.83158935  0.15520178  0.31639799  1
  In  In24  1  0.32717370  0.81730296  0.81263680  1
  In  In25  1  0.47935373  0.67944556  0.46936455  1
  In  In26  1  0.32729858  0.65059043  0.01435685  1
  In  In27  1  0.49445334  0.15623348  0.32333747  1
  In  In28  1  0.02551735  0.17895217  0.84019450  1
  In  In29  1  0.84170802  0.32147868  0.49454360  1
  In  In30  1  0.49147442  -0.00414633  0.80758709  1
  In  In31  1  0.66118862  0.16309864  0.83352137  1
  In  In32  1  0.00009589  0.68632823  0.66746106  1
  In  In33  1  0.01591755  0.52901866  0.48648917  1
  In  In34  1  0.84357798  -0.01435185  0.81083819  1
  In  In35  1  0.69524780  0.32090738  0.68292582  1
  In  In36  1  0.35172350  0.48254424  0.51332902  1
  In  In37  1  0.84608517  0.84257845  0.64327742  1
  In  In38  1  0.16088928  0.64603314  0.83914723  1
  In  In39  1  0.84495361  0.82204439  0.02134116  1
  In  In40  1  0.64325970  0.83504576  0.82887685  1
  In  In41  1  -0.03191634  0.00423629  0.01014899  1
  In  In42  1  0.67574555  0.35043341  0.02196376  1
  In  In43  1  0.85230952  0.83216304  0.32965137  1
  In  In44  1  0.00497448  0.50288343  0.85843879  1
  In  In45  1  0.50873966  0.51593517  0.66621957  1
  In  In46  1  0.87447276  0.48512864  0.28219189  1
  In  In47  1  0.66684559  0.01898595  0.33331565  1
  In  In48  1  0.50178230  0.50648881  0.31245221  1
  In  In49  1  0.01713377  0.86218054  0.47589781  1
  In  In50  1  0.49632515  0.34776673  0.85846159  1
  In  In51  1  0.66899783  0.82261010  0.15603131  1
  In  In52  1  0.47808988  0.15669140  0.65104661  1
  In  In53  1  0.29360355  -0.02011842  0.33523765  1
  In  In54  1  0.83358850  0.67008699  0.86474299  1
  In  In55  1  0.68788539  0.49484179  0.50745156  1
  In  In56  1  0.47946252  0.17636984  0.00736454  1
  In  In57  1  0.68456793  0.00549430  0.01269421  1
  In  In58  1  0.82834002  0.49164704  0.66568041  1
  In  In59  1  -0.01896246  0.66180537  0.31964747  1
  In  In60  1  0.47847416  0.84872309  0.65620550  1
  In  In61  1  0.68239490  0.84538569  0.50901510  1
  In  In62  1  0.51841741  0.82112283  0.00352396  1
  In  In63  1  0.15800713  0.68194814  0.50853871  1
  In  In64  1  0.82201445  0.36723786  0.83197981  1
  In  In65  1  0.14516242  0.00218453  0.83921015  1
  In  In66  1  0.34298078  0.67036743  0.34314552  1
  In  In67  1  0.16024613  0.66442166  0.15328105  1
  In  In68  1  0.84317931  0.17692763  0.03171420  1
  In  In69  1  0.02075416  0.16021063  0.20239146  1
  In  In70  1  0.31352409  0.49537275  0.84707127  1
  In  In71  1  0.51816142  0.54070067  0.03771489  1
  Te  Te72  1  0.07868155  0.07163784  0.08967504  1
  Te  Te73  1  0.11922757  0.09418373  0.38650655  1
  Te  Te74  1  0.06270707  0.07778754  0.73580592  1
  Te  Te75  1  0.01665666  0.47155142  0.11441896  1
  Te  Te76  1  0.06987826  0.40967371  0.41201228  1
  Te  Te77  1  0.10234728  0.43272278  0.76989063  1
  Te  Te78  1  0.06481966  0.77841986  0.13501506  1
  Te  Te79  1  0.08314908  0.74943132  0.39493877  1
  Te  Te80  1  0.08984649  0.75928110  0.76494715  1
  Te  Te81  1  0.40438468  0.09138542  0.10141490  1
  Te  Te82  1  0.39951792  0.07213997  0.40498107  1
  Te  Te83  1  0.38955681  0.08380312  0.74470099  1
  Te  Te84  1  0.42269331  0.41713920  0.07954016  1
  Te  Te85  1  0.41978746  0.40712515  0.39710477  1
  Te  Te86  1  0.41838897  0.41465664  0.74145169  1
  Te  Te87  1  0.41343261  0.75118741  0.09041289  1
  Te  Te88  1  0.37974631  0.79012783  0.43359990  1
  Te  Te89  1  0.44403200  0.74720105  0.75796430  1
  Te  Te90  1  0.76650801  0.07860363  0.11021349  1
  Te  Te91  1  0.76215119  0.08138659  0.42568567  1
  Te  Te92  1  0.74771343  0.08232890  0.73946811  1
  Te  Te93  1  0.77855040  0.40251547  0.11347010  1
  Te  Te94  1  0.75975089  0.41349239  0.40012348  1
  Te  Te95  1  0.71491221  0.44981831  0.75918271  1
  Te  Te96  1  0.73837636  0.72251197  0.06695247  1
  Te  Te97  1  0.75797945  0.74816981  0.41713626  1
  Te  Te98  1  0.76258491  0.76040858  0.74824704  1
  Te  Te99  1  0.09171170  0.27854057  0.26181109  1
  Te  Te100  1  0.06851227  0.24482454  0.58105537  1
  Te  Te101  1  0.07568398  0.27385190  0.93996293  1
  Te  Te102  1  0.08680059  0.57183610  0.25283864  1
  Te  Te103  1  0.09267907  0.58091965  0.60573144  1
  Te  Te104  1  0.06696764  0.60557432  0.94951564  1
  Te  Te105  1  0.14600166  0.95303441  0.29354426  1
  Te  Te106  1  0.10689435  0.94834359  0.56121436  1
  Te  Te107  1  0.05565784  0.91309879  0.92334597  1
  Te  Te108  1  0.39981631  0.25252590  0.25174310  1
  Te  Te109  1  0.38587088  0.24084262  0.56104013  1
  Te  Te110  1  0.39849232  0.23738884  0.89376494  1
  Te  Te111  1  0.41034657  0.59281577  0.22805880  1
  Te  Te112  1  0.41163170  0.60209312  0.58510479  1
  Te  Te113  1  0.41973990  0.57724810  0.92038715  1
  Te  Te114  1  0.41499033  0.93469280  0.24117230  1
  Te  Te115  1  0.38134416  0.94342271  0.58893230  1
  Te  Te116  1  0.41643574  0.90681469  0.91400891  1
  Te  Te117  1  0.76323185  0.25484718  0.22735897  1
  Te  Te118  1  0.73980862  0.23462566  0.56797206  1
  Te  Te119  1  0.74854488  0.25527176  0.91736929  1
  Te  Te120  1  0.77343735  0.57784860  0.22109441  1
  Te  Te121  1  0.76898191  0.60226007  0.57807316  1
  Te  Te122  1  0.76043372  0.55943231  0.92595618  1
  Te  Te123  1  0.74293860  0.90968711  0.25473289  1
  Te  Te124  1  0.77325867  0.94689021  0.56459022  1
  Te  Te125  1  0.75192928  0.90895961  0.91502276  1
  Te  Te126  1  0.27180677  0.22625128  0.09337849  1
  Te  Te127  1  0.23519651  0.20906923  0.41516493  1
  Te  Te128  1  0.21405680  0.24566403  0.76009176  1
  Te  Te129  1  0.23512797  0.55046072  0.08133750  1
  Te  Te130  1  0.25577399  0.57230373  0.42307603  1
  Te  Te131  1  0.26391198  0.59387832  0.74912370  1
  Te  Te132  1  0.22701383  0.93629540  0.08703248  1
  Te  Te133  1  0.20337786  0.91656859  0.44034948  1
  Te  Te134  1  0.24222785  0.92535784  0.74936005  1
  Te  Te135  1  0.59418092  0.23751643  0.08698229  1
  Te  Te136  1  0.59722398  0.22712789  0.41378103  1
  Te  Te137  1  0.57228489  0.25772894  0.75092325  1
  Te  Te138  1  0.63248646  0.60937707  0.09856671  1
  Te  Te139  1  0.58707243  0.57782156  0.41844635  1
  Te  Te140  1  0.57788708  0.59823623  0.76724428  1
  Te  Te141  1  0.57779937  0.92904889  0.09227626  1
  Te  Te142  1  0.57970520  0.90106362  0.40678141  1
  Te  Te143  1  0.59476714  0.92774356  0.71767549  1
  Te  Te144  1  0.94842673  0.25053755  0.10374713  1
  Te  Te145  1  0.92815231  0.24351787  0.39851725  1
  Te  Te146  1  0.90434748  0.25890117  0.75168956  1
  Te  Te147  1  0.95320680  0.59932409  0.07169763  1
  Te  Te148  1  0.89428718  0.57363057  0.40921887  1
  Te  Te149  1  0.91604251  0.58273170  0.75126676  1
  Te  Te150  1  0.90051598  0.92287126  0.11379245  1
  Te  Te151  1  0.93524811  0.94601947  0.38206653  1
  Te  Te152  1  0.94131172  0.90406761  0.73868818  1
  Te  Te153  1  0.21533095  0.09010257  0.26056176  1
  Te  Te154  1  0.28559507  0.06800819  0.59569980  1
  Te  Te155  1  0.24526970  0.08919394  0.91199456  1
  Te  Te156  1  0.20487956  0.37305638  0.20526656  1
  Te  Te157  1  0.23887846  0.41626560  0.58966404  1
  Te  Te158  1  0.22359987  0.41808140  0.93475455  1
  Te  Te159  1  0.24323491  0.74710594  0.25577417  1
  Te  Te160  1  0.26009525  0.74514749  0.59245950  1
  Te  Te161  1  0.24872400  0.75532165  0.93223047  1
  Te  Te162  1  0.58831290  0.09015271  0.23110017  1
  Te  Te163  1  0.58139109  0.08378737  0.57778706  1
  Te  Te164  1  0.57145733  0.07391432  0.91921198  1
  Te  Te165  1  0.60227720  0.43279193  0.22758948  1
  Te  Te166  1  0.58431261  0.40721840  0.57991659  1
  Te  Te167  1  0.58629850  0.43939749  0.93716826  1
  Te  Te168  1  0.57460730  0.73525722  0.24373755  1
  Te  Te169  1  0.57781181  0.74834935  0.57144531  1
  Te  Te170  1  0.59234442  0.72843196  0.91666705  1
  Te  Te171  1  0.93116021  0.05481200  0.26107286  1
  Te  Te172  1  0.92503455  0.05821945  0.57063301  1
  Te  Te173  1  0.90366669  0.09882979  0.90553711  1
  Te  Te174  1  0.96831533  0.37913305  0.22706012  1
  Te  Te175  1  0.92807263  0.41557109  0.57969443  1
  Te  Te176  1  0.93047841  0.39210931  0.93270252  1
  Te  Te177  1  0.90763997  0.74563267  0.22135224  1
  Te  Te178  1  0.93182693  0.75535454  0.55145426  1
  Te  Te179  1  0.93654079  0.75429251  0.92659004  1
