# generated using pymatgen
data_In2Te3
_symmetry_space_group_name_H-M   'P 1'
_cell_length_a   19.07245373
_cell_length_b   19.08673554
_cell_length_c   19.03568799
_cell_angle_alpha   89.92354288
_cell_angle_beta   89.95241329
_cell_angle_gamma   90.04097204
_symmetry_Int_Tables_number   1
_chemical_formula_structural   In2Te3
_chemical_formula_sum   'In72 Te108'
_cell_volume   6929.56791754
_cell_formula_units_Z   36
loop_
 _symmetry_equiv_pos_site_id
 _symmetry_equiv_pos_as_xyz
  1  'x, y, z'
loop_
 _atom_site_type_symbol
 _atom_site_label
 _atom_site_symmetry_multiplicity
 _atom_site_fract_x
 _atom_site_fract_y
 _atom_site_fract_z
 _atom_site_occupancy
  In  In0  1  0.51168089  0.83539728  0.33987657  1
  In  In1  1  0.83115412  0.51290650  0.02156566  1
  In  In2  1  0.82147009  0.33099789  0.15086467  1
  In  In3  1  0.65855442  -0.00705298  0.33955162  1
  In  In4  1  0.00045026  0.85667138  0.50539715  1
  In  In5  1  0.30559303  0.65782925  0.33190298  1
  In  In6  1  -0.00227442  0.64050613  0.66004239  1
  In  In7  1  0.17296700  0.49818771  0.66515520  1
  In  In8  1  0.84295915  0.84448924  -0.01399970  1
  In  In9  1  0.18492028  -0.03420813  0.79539404  1
  In  In10  1  0.83796109  0.16173382  0.01763541  1
  In  In11  1  0.18151060  -0.00692685  0.17228968  1
  In  In12  1  0.79599127  0.51774617  0.35138671  1
  In  In13  1  0.50942702  0.34913918  0.50249758  1
  In  In14  1  0.82985022  0.83870116  0.35333927  1
  In  In15  1  0.17249071  0.17458158  -0.00588595  1
  In  In16  1  0.82417319  0.49170662  0.65923313  1
  In  In17  1  -0.00521495  0.31921471  0.00356697  1
  In  In18  1  0.24289461  0.54608082  -0.06350676  1
  In  In19  1  0.35221730  0.16059767  0.81759105  1
  In  In20  1  0.69470446  0.19283329  0.49517035  1
  In  In21  1  0.82991852  0.18073249  0.33308937  1
  In  In22  1  0.82156469  0.66145051  0.50048047  1
  In  In23  1  0.64010785  0.82811366  0.15022510  1
  In  In24  1  0.86157697  0.32947506  0.80572315  1
  In  In25  1  0.29560206  0.82281706  0.15061659  1
  In  In26  1  0.01432094  0.81524337  0.84363968  1
  In  In27  1  0.48239608  0.33364702  0.82537676  1
  In  In28  1  0.46503353  0.50245626  -0.02310927  1
  In  In29  1  0.35549273  0.33647331  0.34467650  1
  In  In30  1  0.66432896  -0.00871230  0.65993805  1
  In  In31  1  0.30627066  0.19129445  0.19080488  1
  In  In32  1  0.00887792  0.00680098  0.00204269  1
  In  In33  1  0.50178841  0.14848570  0.67602920  1
  In  In34  1  0.33777400  0.34618808  0.67114547  1
  In  In35  1  0.82560955  0.02543619  0.18290292  1
  In  In36  1  0.37375442  -0.01535160  0.36055301  1
  In  In37  1  0.66733735  0.34316673  0.32690978  1
  In  In38  1  0.32155335  0.50401108  0.13277496  1
  In  In39  1  0.17339842  0.84847168  0.35004956  1
  In  In40  1  -0.01630365  0.49832119  0.19830772  1
  In  In41  1  0.18222650  0.67652073  0.81598337  1
  In  In42  1  0.47464716  0.82651890  0.00500759  1
  In  In43  1  0.35923130  0.82665598  0.52301817  1
  In  In44  1  0.84893566  0.33521646  0.50558203  1
  In  In45  1  0.46780745  0.66119778  0.80015310  1
  In  In46  1  0.47685535  0.00662551  0.16612071  1
  In  In47  1  0.18594565  0.16205007  0.66243432  1
  In  In48  1  0.64463804  0.66227146  0.00933811  1
  In  In49  1  0.64925926  0.33130626  -0.00512532  1
  In  In50  1  0.01904172  0.31565716  0.64756447  1
  In  In51  1  0.00640835  0.68669717  0.34808130  1
  In  In52  1  0.32805784  0.15689531  0.49889902  1
  In  In53  1  0.02584625  0.03231379  0.62251718  1
  In  In54  1  0.52707126  0.15883875  -0.02038437  1
  In  In55  1  0.82658982  0.65905711  0.18585926  1
  In  In56  1  0.52500996  0.51522427  0.38015990  1
  In  In57  1  0.01298999  0.32845016  0.32341814  1
  In  In58  1  0.36198113  0.00948363  -0.02801439  1
  In  In59  1  0.65567923  0.80769869  0.52168459  1
  In  In60  1  0.06274802  0.83931187  0.11332706  1
  In  In61  1  0.64631872  0.84876746  0.80890162  1
  In  In62  1  0.83716753  0.01103342  0.84456681  1
  In  In63  1  0.16615662  0.50366405  0.35122014  1
  In  In64  1  0.68146353  0.15933275  0.83686688  1
  In  In65  1  0.81214417  0.69939453  0.84861341  1
  In  In66  1  0.15344810  0.33951918  0.17983750  1
  In  In67  1  0.81774698  0.83761259  0.67716570  1
  In  In68  1  0.47914089  0.67106749  0.16118581  1
  In  In69  1  -0.00053724  0.49271436  0.81007073  1
  In  In70  1  0.49995238  0.51000789  0.65703000  1
  In  In71  1  0.15833873  0.14044374  0.36850694  1
  Te  Te72  1  0.09470470  0.08925075  0.09400586  1
  Te  Te73  1  0.08671731  0.07602340  0.48368358  1
  Te  Te74  1  0.09197965  0.07639670  0.75123193  1
  Te  Te75  1  0.06275139  0.42226411  0.09315026  1
  Te  Te76  1  0.07636279  0.41294861  0.42140420  1
  Te  Te77  1  0.09662385  0.39791666  0.75201094  1
  Te  Te78  1  0.13202975  0.73273014  0.04042533  1
  Te  Te79  1  0.09813416  0.75646439  0.44422749  1
  Te  Te80  1  0.07952484  0.74775714  0.72661209  1
  Te  Te81  1  0.38317053  0.09833401  0.09247423  1
  Te  Te82  1  0.43828148  0.09627893  0.42477388  1
  Te  Te83  1  0.39844306  0.05449742  0.72578899  1
  Te  Te84  1  0.41463478  0.40827202  0.07567130  1
  Te  Te85  1  0.40784106  0.44250218  0.44005129  1
  Te  Te86  1  0.37734343  0.43689797  0.78701471  1
  Te  Te87  1  0.37726135  0.72854621  0.06666147  1
  Te  Te88  1  0.40737514  0.74730460  0.40259857  1
  Te  Te89  1  0.37966790  0.76003814  0.73468840  1
  Te  Te90  1  0.74184004  0.06857020  0.07415038  1
  Te  Te91  1  0.75613335  0.07763281  0.41695944  1
  Te  Te92  1  0.76234528  0.08121020  0.73484308  1
  Te  Te93  1  0.72621625  0.42800925  0.08813555  1
  Te  Te94  1  0.73630462  0.41435398  0.44113505  1
  Te  Te95  1  0.75486586  0.41521451  0.76121064  1
  Te  Te96  1  0.75369160  0.75217904  0.07582403  1
  Te  Te97  1  0.73122513  0.74005558  0.40763756  1
  Te  Te98  1  0.72001848  0.73890004  0.73468658  1
  Te  Te99  1  0.09533288  0.22278533  0.25559763  1
  Te  Te100  1  0.12932315  0.25970651  0.56892062  1
  Te  Te101  1  0.08746344  0.25842842  0.91055380  1
  Te  Te102  1  0.08363983  0.59224030  0.25859530  1
  Te  Te103  1  0.08970094  0.57606324  0.56977183  1
  Te  Te104  1  0.09461721  0.57250651  0.89161311  1
  Te  Te105  1  0.07979989  0.91156424  0.24866165  1
  Te  Te106  1  0.09444868  0.90362831  0.60579050  1
  Te  Te107  1  0.09553532  0.91946372  0.91486792  1
  Te  Te108  1  0.42398189  0.25032337  0.25080733  1
  Te  Te109  1  0.42350400  0.25008247  0.58818951  1
  Te  Te110  1  0.41510819  0.24335440  0.92693517  1
  Te  Te111  1  0.39915885  0.57660601  0.24692392  1
  Te  Te112  1  0.43036195  0.61877293  0.58977059  1
  Te  Te113  1  0.38441864  0.61238247  0.91400038  1
  Te  Te114  1  0.40549360  0.88572410  0.23565665  1
  Te  Te115  1  0.46440600  0.91350705  0.57420676  1
  Te  Te116  1  0.41134961  0.89745127  0.89479745  1
  Te  Te117  1  0.73309887  0.24165656  0.23500995  1
  Te  Te118  1  0.77913437  0.24857923  0.60043545  1
  Te  Te119  1  0.76474106  0.25635531  0.92333039  1
  Te  Te120  1  0.72090143  0.57732357  0.24272985  1
  Te  Te121  1  0.73085731  0.57458675  0.57822048  1
  Te  Te122  1  0.74224080  0.58706681  0.92301235  1
  Te  Te123  1  0.73675867  0.90290641  0.24103315  1
  Te  Te124  1  0.75647477  0.91588757  0.56520171  1
  Te  Te125  1  0.73718203  0.91957966  0.91093675  1
  Te  Te126  1  0.24658649  0.27562653  0.07990215  1
  Te  Te127  1  0.24766086  0.25421553  0.41508516  1
  Te  Te128  1  0.25343305  0.25608212  0.75988139  1
  Te  Te129  1  0.21393569  0.58562893  0.07654681  1
  Te  Te130  1  0.23644180  0.59405866  0.44325774  1
  Te  Te131  1  0.26606035  0.59829384  0.72288213  1
  Te  Te132  1  0.25674584  0.93292761  0.05800442  1
  Te  Te133  1  0.26416694  0.92386425  0.44215899  1
  Te  Te134  1  0.27148222  0.87207392  0.72158435  1
  Te  Te135  1  0.59127254  0.23304337  0.08546748  1
  Te  Te136  1  0.58261090  0.25227528  0.41308406  1
  Te  Te137  1  0.58523089  0.24476344  0.75673781  1
  Te  Te138  1  0.55719241  0.56855125  0.08370295  1
  Te  Te139  1  0.59874696  0.59471952  0.47790059  1
  Te  Te140  1  0.58035593  0.58080401  0.75796785  1
  Te  Te141  1  0.56567770  0.92952226  0.06983229  1
  Te  Te142  1  0.57675535  0.91767165  0.44815932  1
  Te  Te143  1  0.55527308  0.89711082  0.70091699  1
  Te  Te144  1  0.93066390  0.23549050  0.11121352  1
  Te  Te145  1  0.93825513  0.24075926  0.42506996  1
  Te  Te146  1  0.92783063  0.22999623  0.72501183  1
  Te  Te147  1  0.93123533  0.59821242  0.09527071  1
  Te  Te148  1  0.91730071  0.58308000  0.41432748  1
  Te  Te149  1  0.89559441  0.59723637  0.76479716  1
  Te  Te150  1  0.92381804  0.91720141  0.08980617  1
  Te  Te151  1  0.92135899  0.93447604  0.41156457  1
  Te  Te152  1  0.91488944  0.90586525  0.76885396  1
  Te  Te153  1  0.26065640  0.06621132  0.27934297  1
  Te  Te154  1  0.28430012  0.06570034  0.60700657  1
  Te  Te155  1  0.24396167  0.07842795  0.89632166  1
  Te  Te156  1  0.25623820  0.42033265  0.25445372  1
  Te  Te157  1  0.25587943  0.41614508  0.57430285  1
  Te  Te158  1  0.29089564  0.41197857  0.90726994  1
  Te  Te159  1  0.21375973  0.74359973  0.24831821  1
  Te  Te160  1  0.27380420  0.74975099  0.61865197  1
  Te  Te161  1  0.21247070  0.77292048  0.92294874  1
  Te  Te162  1  0.56960722  0.07257956  0.25621544  1
  Te  Te163  1  0.60179164  0.09909094  0.57611750  1
  Te  Te164  1  0.58038694  0.06477044  0.88460924  1
  Te  Te165  1  0.56949662  0.43354951  0.26825213  1
  Te  Te166  1  0.58447321  0.39919360  0.61611003  1
  Te  Te167  1  0.57527290  0.42436404  0.90288690  1
  Te  Te168  1  0.58279206  0.73346366  0.25270868  1
  Te  Te169  1  0.54399238  0.71190993  0.56529035  1
  Te  Te170  1  0.57899914  0.75868107  0.91495711  1
  Te  Te171  1  0.92246880  0.08374428  0.27167617  1
  Te  Te172  1  0.94760215  0.11693853  0.53396803  1
  Te  Te173  1  0.93313211  0.10287815  0.91468402  1
  Te  Te174  1  0.88590634  0.40655007  0.26749835  1
  Te  Te175  1  0.93637987  0.42981793  0.58418277  1
  Te  Te176  1  0.91270692  0.42697016  0.92633546  1
  Te  Te177  1  0.91423525  0.76039403  0.25435971  1
  Te  Te178  1  0.90635219  0.75110005  0.58736613  1
  Te  Te179  1  0.93114808  0.73176984  0.93771616  1
