# generated using pymatgen
data_In2Te3
_symmetry_space_group_name_H-M   'P 1'
_cell_length_a   18.76582866
_cell_length_b   18.77018889
_cell_length_c   18.77756706
_cell_angle_alpha   89.94649675
_cell_angle_beta   90.00334765
_cell_angle_gamma   89.92886708
_symmetry_Int_Tables_number   1
_chemical_formula_structural   In2Te3
_chemical_formula_sum   'In72 Te108'
_cell_volume   6614.16746620
_cell_formula_units_Z   36
loop_
 _symmetry_equiv_pos_site_id
 _symmetry_equiv_pos_as_xyz
  1  'x, y, z'
loop_
 _atom_site_type_symbol
 _atom_site_label
 _atom_site_symmetry_multiplicity
 _atom_site_fract_x
 _atom_site_fract_y
 _atom_site_fract_z
 _atom_site_occupancy
  In  In0  1  0.18697340  0.49725863  0.00023216  1
  In  In1  1  -0.02162104  0.01110005  0.67608416  1
  In  In2  1  0.66652749  0.48377722  0.15823807  1
  In  In3  1  -0.01170900  0.50873974  0.84844923  1
  In  In4  1  0.67803545  0.34890118  0.36262388  1
  In  In5  1  0.17547755  0.65501552  0.49462352  1
  In  In6  1  0.32147431  0.69151952  -0.01987498  1
  In  In7  1  0.82242735  0.48595244  0.00152359  1
  In  In8  1  0.49268709  0.19651001  0.00609861  1
  In  In9  1  -0.02584639  0.33810575  0.34283863  1
  In  In10  1  0.34173497  -0.00310991  0.00007454  1
  In  In11  1  0.83544598  0.63636132  0.52412529  1
  In  In12  1  0.47164169  0.83818317  0.33228422  1
  In  In13  1  0.67713750  -0.00608376  0.65715465  1
  In  In14  1  0.17519613  0.01041455  0.16623446  1
  In  In15  1  0.49213582  0.83140767  0.66214910  1
  In  In16  1  0.00311241  0.82975752  0.82197387  1
  In  In17  1  0.31310221  -0.01624524  0.66208198  1
  In  In18  1  0.00412461  0.47470812  0.19111148  1
  In  In19  1  0.49877891  0.64859141  0.50900991  1
  In  In20  1  0.81828420  0.63612630  0.81117746  1
  In  In21  1  0.18679855  -0.01933449  0.46632514  1
  In  In22  1  0.67111873  0.67097479  -0.02162015  1
  In  In23  1  0.49885177  0.50936532  0.32758391  1
  In  In24  1  0.52260456  0.19418768  0.68151001  1
  In  In25  1  0.33357923  0.82929788  0.17080338  1
  In  In26  1  0.80573634  0.00036219  0.83030372  1
  In  In27  1  0.33890227  0.17748303  0.82747380  1
  In  In28  1  0.15879285  0.83113516  0.67618775  1
  In  In29  1  0.20249676  0.66885057  0.18439958  1
  In  In30  1  0.33798802  0.17170967  0.48895406  1
  In  In31  1  0.48463280  0.16724555  0.31301976  1
  In  In32  1  0.65091074  0.66685707  0.33115196  1
  In  In33  1  0.84312492  0.16505717  0.33283684  1
  In  In34  1  0.33576538  0.65016415  0.66139612  1
  In  In35  1  -0.00762304  0.81763176  0.51714787  1
  In  In36  1  0.15265707  -0.02013777  0.82176887  1
  In  In37  1  0.49129517  0.01087191  0.84605916  1
  In  In38  1  0.15497787  0.15913554  0.31739809  1
  In  In39  1  0.53024297  0.35317588  0.52140355  1
  In  In40  1  0.83098606  0.83887328  -0.00900516  1
  In  In41  1  0.34658538  0.33824548  0.32269136  1
  In  In42  1  0.66257107  0.00809220  0.31186899  1
  In  In43  1  0.48370379  0.46564697  0.00527378  1
  In  In44  1  0.01320377  -0.01048107  -0.01600830  1
  In  In45  1  0.01507743  0.65455483  -0.00385270  1
  In  In46  1  0.80904337  0.35825740  0.82101298  1
  In  In47  1  0.49927370  0.66911781  0.17494093  1
  In  In48  1  0.65201173  0.17527214  0.83114115  1
  In  In49  1  0.66114553  0.17477529  0.15953161  1
  In  In50  1  0.68312489  0.81049316  0.84254940  1
  In  In51  1  -0.01489988  0.34961255  0.65491969  1
  In  In52  1  0.17149558  0.32504586  0.16871816  1
  In  In53  1  0.80361304  0.85491380  0.31546027  1
  In  In54  1  0.18351361  0.16934591  0.02434707  1
  In  In55  1  0.00630526  0.17742289  0.83017059  1
  In  In56  1  0.84987395  0.19360323  0.02570523  1
  In  In57  1  0.16342237  0.33628765  0.52937696  1
  In  In58  1  0.01163584  0.83628397  0.16614535  1
  In  In59  1  0.18406303  0.32680844  0.84448590  1
  In  In60  1  0.69287240  0.21886365  0.51952228  1
  In  In61  1  0.51835357  0.63379168  0.82414451  1
  In  In62  1  0.34471979  0.36778277  0.69017732  1
  In  In63  1  0.17104302  0.50966555  0.67161883  1
  In  In64  1  0.48296243  0.01855951  0.49641553  1
  In  In65  1  -0.00277837  0.01858426  0.31733546  1
  In  In66  1  -0.00653203  0.66450684  0.37307351  1
  In  In67  1  0.65763923  0.81360042  0.49930617  1
  In  In68  1  -0.01710706  0.48491781  0.52245467  1
  In  In69  1  0.83882781  0.00658808  0.49995517  1
  In  In70  1  0.81904623  0.67134806  0.17026554  1
  In  In71  1  0.17954540  0.51770440  0.33927200  1
  Te  Te72  1  0.06903651  0.08717929  0.08647000  1
  Te  Te73  1  0.07793079  0.08682379  0.42682648  1
  Te  Te74  1  0.09396284  0.09305758  0.73752244  1
  Te  Te75  1  0.08142520  0.41532000  0.07583144  1
  Te  Te76  1  0.08741183  0.42430363  0.41879376  1
  Te  Te77  1  0.08589213  0.41062771  0.75659665  1
  Te  Te78  1  0.10142953  0.73906127  0.08981365  1
  Te  Te79  1  0.09669771  0.76492125  0.41874869  1
  Te  Te80  1  0.08100569  0.72885989  0.74840344  1
  Te  Te81  1  0.40964421  0.09837532  0.08231292  1
  Te  Te82  1  0.38938673  0.07033685  0.38677888  1
  Te  Te83  1  0.41666373  0.07925032  0.72733421  1
  Te  Te84  1  0.41122146  0.38186316  0.10412571  1
  Te  Te85  1  0.42561549  0.41672873  0.42672666  1
  Te  Te86  1  0.45428405  0.40228968  0.78538448  1
  Te  Te87  1  0.42736766  0.75763388  0.07366108  1
  Te  Te88  1  0.41482823  0.74086310  0.42746840  1
  Te  Te89  1  0.42044762  0.73764515  0.75645128  1
  Te  Te90  1  0.75496342  0.09315251  0.07678942  1
  Te  Te91  1  0.73336965  0.08838481  0.42211995  1
  Te  Te92  1  0.74992698  0.10392372  0.73417660  1
  Te  Te93  1  0.74153215  0.38439216  0.07577538  1
  Te  Te94  1  0.76546662  0.43104671  0.44719951  1
  Te  Te95  1  0.75391540  0.46168519  0.72710806  1
  Te  Te96  1  0.72540663  0.76403922  0.09040187  1
  Te  Te97  1  0.76472974  0.73709967  0.41659600  1
  Te  Te98  1  0.74384409  0.73665481  0.73126922  1
  Te  Te99  1  0.05370906  0.24284835  0.23525209  1
  Te  Te100  1  0.06554742  0.24417093  0.58587324  1
  Te  Te101  1  0.08608808  0.25184488  0.93542832  1
  Te  Te102  1  0.07505564  0.59801267  0.24911722  1
  Te  Te103  1  0.07196422  0.59121323  0.58751546  1
  Te  Te104  1  0.11023000  0.58587551  0.89955573  1
  Te  Te105  1  0.09789079  0.91810965  0.26139458  1
  Te  Te106  1  0.07912510  0.92713942  0.58481271  1
  Te  Te107  1  0.10293756  0.87507354  0.93137790  1
  Te  Te108  1  0.42444257  0.26653979  0.21514229  1
  Te  Te109  1  0.41428623  0.26159146  0.58632928  1
  Te  Te110  1  0.42723890  0.27762074  0.89406014  1
  Te  Te111  1  0.40093751  0.59303608  0.25489842  1
  Te  Te112  1  0.42896383  0.55228556  0.59875006  1
  Te  Te113  1  0.41648000  0.57985226  0.92457655  1
  Te  Te114  1  0.43088683  0.92863901  0.22295331  1
  Te  Te115  1  0.40207237  0.90697183  0.56359084  1
  Te  Te116  1  0.42629525  0.90346652  0.92242638  1
  Te  Te117  1  0.74652553  0.25718385  0.26000673  1
  Te  Te118  1  0.75147150  0.29527303  0.62928418  1
  Te  Te119  1  0.75309616  0.25215503  0.91652725  1
  Te  Te120  1  0.74592434  0.57057195  0.25674444  1
  Te  Te121  1  0.73553989  0.55676950  0.60258167  1
  Te  Te122  1  0.72651680  0.55202081  0.90253806  1
  Te  Te123  1  0.73800528  0.93287741  0.20210452  1
  Te  Te124  1  0.76223468  0.89683737  0.57664603  1
  Te  Te125  1  0.71782494  0.93239708  0.93544528  1
  Te  Te126  1  0.27380178  0.28127792  0.06674761  1
  Te  Te127  1  0.23799758  0.26181262  0.40562040  1
  Te  Te128  1  0.24996576  0.25179136  0.72720819  1
  Te  Te129  1  0.28056292  0.58363805  0.08501277  1
  Te  Te130  1  0.28264271  0.58719706  0.41821155  1
  Te  Te131  1  0.26684223  0.56938244  0.76603576  1
  Te  Te132  1  0.24206579  0.90881236  0.07597453  1
  Te  Te133  1  0.26746861  0.89385789  0.38239116  1
  Te  Te134  1  0.27014090  0.89039777  0.77451452  1
  Te  Te135  1  0.59725927  0.28031617  0.07376656  1
  Te  Te136  1  0.57025193  0.23849580  0.41756892  1
  Te  Te137  1  0.59131259  0.29962797  0.76510112  1
  Te  Te138  1  0.58230970  0.58154989  0.07580427  1
  Te  Te139  1  0.59986264  0.56387277  0.42879343  1
  Te  Te140  1  0.59411622  0.55186307  0.72558672  1
  Te  Te141  1  0.64119377  0.89797157  0.08413803  1
  Te  Te142  1  0.58507067  0.92292823  0.42095051  1
  Te  Te143  1  0.58310807  0.91951109  0.75160759  1
  Te  Te144  1  0.94562721  0.25027432  0.12017987  1
  Te  Te145  1  0.91870930  0.23854811  0.43704151  1
  Te  Te146  1  0.90527841  0.25817009  0.75117129  1
  Te  Te147  1  0.91142795  0.58214594  0.08492780  1
  Te  Te148  1  0.90088681  0.55121419  0.40838753  1
  Te  Te149  1  0.91649185  0.55867756  0.72948074  1
  Te  Te150  1  0.91571808  0.92417108  0.08540617  1
  Te  Te151  1  0.91991137  0.91126876  0.40812788  1
  Te  Te152  1  0.89312873  0.90577929  0.74755118  1
  Te  Te153  1  0.26482334  0.10640835  0.23405125  1
  Te  Te154  1  0.24229201  0.08270185  0.56931830  1
  Te  Te155  1  0.23990560  0.08199991  0.90432336  1
  Te  Te156  1  0.25645520  0.43202262  0.23987062  1
  Te  Te157  1  0.26720311  0.43615610  0.57585183  1
  Te  Te158  1  0.27781870  0.41557698  0.91525923  1
  Te  Te159  1  0.25442834  0.76847865  0.28577759  1
  Te  Te160  1  0.25223074  0.75425978  0.58302516  1
  Te  Te161  1  0.22668614  0.77235567  0.90155345  1
  Te  Te162  1  0.55985748  0.07239226  0.21875415  1
  Te  Te163  1  0.58752759  0.09347073  0.58032664  1
  Te  Te164  1  0.58304679  0.08939308  0.93742108  1
  Te  Te165  1  0.58013514  0.40337462  0.25549440  1
  Te  Te166  1  0.60300855  0.44531233  0.61080161  1
  Te  Te167  1  0.56773525  0.40514521  0.89586863  1
  Te  Te168  1  0.58542608  0.77322812  0.24757208  1
  Te  Te169  1  0.59079417  0.72898886  0.60499429  1
  Te  Te170  1  0.56247989  0.75637016  0.91553714  1
  Te  Te171  1  0.89200119  0.07155325  0.22933730  1
  Te  Te172  1  0.90302885  0.10456632  0.58965760  1
  Te  Te173  1  0.91439314  0.07877369  0.90726466  1
  Te  Te174  1  0.88558581  0.40654377  0.24487642  1
  Te  Te175  1  0.86483681  0.38136730  0.55686860  1
  Te  Te176  1  0.92072599  0.39736696  0.92472131  1
  Te  Te177  1  0.91824699  0.75031423  0.25639921  1
  Te  Te178  1  0.91233000  0.73301043  0.60630097  1
  Te  Te179  1  0.90616546  0.72930945  0.91384853  1
