# generated using pymatgen
data_In2Te3
_symmetry_space_group_name_H-M   'P 1'
_cell_length_a   18.78263422
_cell_length_b   18.77947602
_cell_length_c   18.79061827
_cell_angle_alpha   90.01132678
_cell_angle_beta   90.02700502
_cell_angle_gamma   90.00850116
_symmetry_Int_Tables_number   1
_chemical_formula_structural   In2Te3
_chemical_formula_sum   'In72 Te108'
_cell_volume   6627.97680250
_cell_formula_units_Z   36
loop_
 _symmetry_equiv_pos_site_id
 _symmetry_equiv_pos_as_xyz
  1  'x, y, z'
loop_
 _atom_site_type_symbol
 _atom_site_label
 _atom_site_symmetry_multiplicity
 _atom_site_fract_x
 _atom_site_fract_y
 _atom_site_fract_z
 _atom_site_occupancy
  In  In0  1  0.18149847  0.31028414  0.47214661  1
  In  In1  1  -0.01716034  0.66070887  0.35905000  1
  In  In2  1  0.81357877  0.86984588  -0.01779308  1
  In  In3  1  0.32650554  0.15838711  0.83634249  1
  In  In4  1  0.49670621  0.66461812  0.17009165  1
  In  In5  1  -0.01492774  0.82900075  0.49387244  1
  In  In6  1  0.65946291  0.32360888  0.69243774  1
  In  In7  1  0.17714101  0.86086975  0.01822005  1
  In  In8  1  0.15864657  0.50793614  0.33976247  1
  In  In9  1  0.15558213  0.16128899  0.69294994  1
  In  In10  1  0.52626994  0.66240646  0.81821533  1
  In  In11  1  0.66840126  0.86308838  0.15876214  1
  In  In12  1  0.69094114  0.66260249  0.35619971  1
  In  In13  1  0.32368610  0.67677585  0.65219516  1
  In  In14  1  0.84989742  0.36340986  0.52289553  1
  In  In15  1  -0.00570247  0.83273628  0.82227948  1
  In  In16  1  0.32945368  0.46430624  0.84012388  1
  In  In17  1  0.50244637  0.68308989  0.48855893  1
  In  In18  1  0.34775458  0.47845079  0.17448376  1
  In  In19  1  0.83808222  0.16153683  0.32466932  1
  In  In20  1  0.17037368  0.32102107  0.15440287  1
  In  In21  1  0.86275886  0.30095368  0.14175117  1
  In  In22  1  0.82123728  0.00542172  0.16974108  1
  In  In23  1  0.51713383  0.48870312  0.36421326  1
  In  In24  1  0.83484958  0.17503161  0.68375348  1
  In  In25  1  0.49061399  0.29637879  0.15540697  1
  In  In26  1  0.67737371  0.66961570  -0.02378486  1
  In  In27  1  0.69666441  0.47256078  0.16032908  1
  In  In28  1  0.17532761  0.83393078  0.67887945  1
  In  In29  1  0.29768399  0.66638793  0.33113426  1
  In  In30  1  0.02004328  0.33162243  0.31648009  1
  In  In31  1  -0.00033774  0.01161346  0.69611561  1
  In  In32  1  0.67642866  0.48949715  0.82398031  1
  In  In33  1  0.48423549  -0.00104073  0.51892219  1
  In  In34  1  -0.00633927  0.49091345  0.16967185  1
  In  In35  1  0.15289071  0.49784116  0.64877352  1
  In  In36  1  -0.02161548  0.48752432  0.82974487  1
  In  In37  1  0.48706034  0.81694653  0.33233806  1
  In  In38  1  0.17628344  0.01408387  0.51240984  1
  In  In39  1  0.31239895  0.01969365  0.31852561  1
  In  In40  1  0.34104228  0.65621253  -0.00879459  1
  In  In41  1  -0.00728963  0.34573817  0.67867455  1
  In  In42  1  0.68048053  0.82339903  0.49499272  1
  In  In43  1  0.16164320  0.67615031  0.82031384  1
  In  In44  1  0.01169068  0.66979187  0.02489475  1
  In  In45  1  0.66512560  0.00366056  0.68588281  1
  In  In46  1  0.48679990  0.16316610  0.32158839  1
  In  In47  1  0.82830847  0.67469574  0.82083492  1
  In  In48  1  0.47223057  0.03025511  0.13043352  1
  In  In49  1  0.33568600  0.48801004  0.49281811  1
  In  In50  1  0.48718821  0.32462734  0.83882822  1
  In  In51  1  0.47595205  0.31676282  0.53223909  1
  In  In52  1  0.51619762  0.49040191  0.68433199  1
  In  In53  1  0.17816395  0.46743844  -0.02066911  1
  In  In54  1  0.51434110  0.47094453  0.00502424  1
  In  In55  1  0.01572067  -0.02441068  0.31505597  1
  In  In56  1  0.33773883  0.02431306  0.67240242  1
  In  In57  1  0.49847917  0.86401535  -0.01006689  1
  In  In58  1  0.84550529  0.83978285  0.66836175  1
  In  In59  1  0.18677916  0.68941354  0.15922427  1
  In  In60  1  -0.00640979  0.15381538  0.50449046  1
  In  In61  1  0.15489776  0.15857308  -0.00560765  1
  In  In62  1  0.30734523  0.85841963  0.16103369  1
  In  In63  1  0.65930103  0.15319925  0.49590500  1
  In  In64  1  0.82874018  0.31672671  0.83709992  1
  In  In65  1  0.66974948  0.35356772  0.33252025  1
  In  In66  1  0.66686593  0.15770918  0.13150517  1
  In  In67  1  0.50730074  0.85835997  0.65533910  1
  In  In68  1  0.68127306  -0.01271213  0.32572562  1
  In  In69  1  -0.00602369  0.02133582  -0.00100008  1
  In  In70  1  0.34194388  0.86700661  0.82959995  1
  In  In71  1  0.85727728  0.67646663  0.17649909  1
  Te  Te72  1  0.10343010  0.05716844  0.09657661  1
  Te  Te73  1  0.08583095  0.08286709  0.40969648  1
  Te  Te74  1  0.07076879  0.09539366  0.79525951  1
  Te  Te75  1  0.07157086  0.40455297  0.07011327  1
  Te  Te76  1  0.07654655  0.41666969  0.42970969  1
  Te  Te77  1  0.09804319  0.41552301  0.76573288  1
  Te  Te78  1  0.07552399  0.78294609  0.10541112  1
  Te  Te79  1  0.08573958  0.74811818  0.42064761  1
  Te  Te80  1  0.06230675  0.73828522  0.72380531  1
  Te  Te81  1  0.39904794  0.14529078  0.07198434  1
  Te  Te82  1  0.40524432  0.09054280  0.42717572  1
  Te  Te83  1  0.43589240  0.08046815  0.76774773  1
  Te  Te84  1  0.39958237  0.39142271  0.06225723  1
  Te  Te85  1  0.41266370  0.38702928  0.40871124  1
  Te  Te86  1  0.40618738  0.39417727  0.72756861  1
  Te  Te87  1  0.41361934  0.77004222  0.08267536  1
  Te  Te88  1  0.38562570  0.75639186  0.42719961  1
  Te  Te89  1  0.41399078  0.74841963  0.75482904  1
  Te  Te90  1  0.78304237  0.09808547  0.05479761  1
  Te  Te91  1  0.76464119  0.07008086  0.42394280  1
  Te  Te92  1  0.73220421  0.10974901  0.77321532  1
  Te  Te93  1  0.76120424  0.37885884  0.06777250  1
  Te  Te94  1  0.75709167  0.43809029  0.42335733  1
  Te  Te95  1  0.77276518  0.41721989  0.73016354  1
  Te  Te96  1  0.75184149  0.75322623  0.08077872  1
  Te  Te97  1  0.78888650  0.75202766  0.42389270  1
  Te  Te98  1  0.74218133  0.76989371  0.74957094  1
  Te  Te99  1  0.07469290  0.23024062  0.22487243  1
  Te  Te100  1  0.07743973  0.25327781  0.58519045  1
  Te  Te101  1  0.05566017  0.25834466  0.94583479  1
  Te  Te102  1  0.08402862  0.59474834  0.23802410  1
  Te  Te103  1  0.04824970  0.57831908  0.58542124  1
  Te  Te104  1  0.08993656  0.58630450  0.92230834  1
  Te  Te105  1  0.11553847  0.90956393  0.22967741  1
  Te  Te106  1  0.07719446  0.92715509  0.59520704  1
  Te  Te107  1  0.07648895  0.91829342  0.91681076  1
  Te  Te108  1  0.38621530  0.24757409  0.25162842  1
  Te  Te109  1  0.39267489  0.21214665  0.58715566  1
  Te  Te110  1  0.43225685  0.21764965  0.93156473  1
  Te  Te111  1  0.41371604  0.57776058  0.28106282  1
  Te  Te112  1  0.42666223  0.57589205  0.58314189  1
  Te  Te113  1  0.44053747  0.56300877  0.89876116  1
  Te  Te114  1  0.42982746  0.92765525  0.24454879  1
  Te  Te115  1  0.38216024  0.90539791  0.58464948  1
  Te  Te116  1  0.40177334  0.95931647  0.92933063  1
  Te  Te117  1  0.73667315  0.24544805  0.24623583  1
  Te  Te118  1  0.75065209  0.25128984  0.57439838  1
  Te  Te119  1  0.75894113  0.20302462  0.90445272  1
  Te  Te120  1  0.76259883  0.57841111  0.24924445  1
  Te  Te121  1  0.77044957  0.56198239  0.52770395  1
  Te  Te122  1  0.77024482  0.56624906  0.91614860  1
  Te  Te123  1  0.77947979  0.89133489  0.26366426  1
  Te  Te124  1  0.74895213  0.92739468  0.58347314  1
  Te  Te125  1  0.72155746  0.94907225  0.89714715  1
  Te  Te126  1  0.26302845  0.23189004  0.07511329  1
  Te  Te127  1  0.25021021  0.22853263  0.37013031  1
  Te  Te128  1  0.23884102  0.25989972  0.76783297  1
  Te  Te129  1  0.24591783  0.56384213  0.08687215  1
  Te  Te130  1  0.23116095  0.58921838  0.44687719  1
  Te  Te131  1  0.25839488  0.57585349  0.75286270  1
  Te  Te132  1  0.25003795  0.97509978  0.08573937  1
  Te  Te133  1  0.25355066  0.92904892  0.41951792  1
  Te  Te134  1  0.23301759  0.94812726  0.75880840  1
  Te  Te135  1  0.58133690  0.24568805  0.04880713  1
  Te  Te136  1  0.58064234  0.25330616  0.41129131  1
  Te  Te137  1  0.57106994  0.22880177  0.76145326  1
  Te  Te138  1  0.59683459  0.58123092  0.07363197  1
  Te  Te139  1  0.60688935  0.57541428  0.45244082  1
  Te  Te140  1  0.62444204  0.59260178  0.72362704  1
  Te  Te141  1  0.60334643  0.96260323  0.05958186  1
  Te  Te142  1  0.57520587  0.91887632  0.42149044  1
  Te  Te143  1  0.56013693  0.93625852  0.76866503  1
  Te  Te144  1  0.94866930  0.21969002  0.04479544  1
  Te  Te145  1  0.91255076  0.25818164  0.42070869  1
  Te  Te146  1  0.94582701  0.23294889  0.76988545  1
  Te  Te147  1  0.90521698  0.57162798  0.07452105  1
  Te  Te148  1  0.88087817  0.56911324  0.43079518  1
  Te  Te149  1  0.91954844  0.58913483  0.73972522  1
  Te  Te150  1  0.91429775  0.91724131  0.08326643  1
  Te  Te151  1  0.92117684  0.94235621  0.42342914  1
  Te  Te152  1  0.89407786  0.93906380  0.77916316  1
  Te  Te153  1  0.22720204  0.12387655  0.25868102  1
  Te  Te154  1  0.25962716  0.12711547  0.57981607  1
  Te  Te155  1  0.24560908  0.06377007  0.91958870  1
  Te  Te156  1  0.24422540  0.40930591  0.26239475  1
  Te  Te157  1  0.24893166  0.39818219  0.58053759  1
  Te  Te158  1  0.25305769  0.35765938  0.91125264  1
  Te  Te159  1  0.22445842  0.79095872  0.27293526  1
  Te  Te160  1  0.22360681  0.74654876  0.57017262  1
  Te  Te161  1  0.24729219  0.76402781  0.91325870  1
  Te  Te162  1  0.58878839  0.07743861  0.24282319  1
  Te  Te163  1  0.56977577  0.09442239  0.60208120  1
  Te  Te164  1  0.62053473  0.05175686  0.93414379  1
  Te  Te165  1  0.56762609  0.42057517  0.22950310  1
  Te  Te166  1  0.59134861  0.40619077  0.58161796  1
  Te  Te167  1  0.60706465  0.39029540  0.91485776  1
  Te  Te168  1  0.60364649  0.75330810  0.25603713  1
  Te  Te169  1  0.59244583  0.74787509  0.59462845  1
  Te  Te170  1  0.59067518  0.77108392  0.90453221  1
  Te  Te171  1  0.93326681  0.08714719  0.23510696  1
  Te  Te172  1  0.90216803  0.07198860  0.59309442  1
  Te  Te173  1  0.88849189  0.10989873  0.93462405  1
  Te  Te174  1  0.90101154  0.40300841  0.25207675  1
  Te  Te175  1  0.94751466  0.46081675  0.58761754  1
  Te  Te176  1  0.90948101  0.40222294  0.92851950  1
  Te  Te177  1  0.93731601  0.76454861  0.26223860  1
  Te  Te178  1  0.90240897  0.73708828  0.57671177  1
  Te  Te179  1  0.91866881  0.75001923  0.93013010  1
