# generated using pymatgen
data_In2Te3
_symmetry_space_group_name_H-M   'P 1'
_cell_length_a   18.97549563
_cell_length_b   18.97466527
_cell_length_c   18.95142774
_cell_angle_alpha   90.10902483
_cell_angle_beta   89.84845616
_cell_angle_gamma   90.06199209
_symmetry_Int_Tables_number   1
_chemical_formula_structural   In2Te3
_chemical_formula_sum   'In72 Te108'
_cell_volume   6823.49108277
_cell_formula_units_Z   36
loop_
 _symmetry_equiv_pos_site_id
 _symmetry_equiv_pos_as_xyz
  1  'x, y, z'
loop_
 _atom_site_type_symbol
 _atom_site_label
 _atom_site_symmetry_multiplicity
 _atom_site_fract_x
 _atom_site_fract_y
 _atom_site_fract_z
 _atom_site_occupancy
  In  In0  1  0.47103367  0.14434812  0.69122000  1
  In  In1  1  0.33132871  0.32493392  0.35879091  1
  In  In2  1  -0.01697222  0.62836552  0.32358019  1
  In  In3  1  0.86397756  0.81142419  0.39249551  1
  In  In4  1  0.12724648  0.50130257  0.64539429  1
  In  In5  1  0.33209222  0.66876698  0.66486955  1
  In  In6  1  0.12392756  0.67867014  0.83264148  1
  In  In7  1  0.75388585  0.61063747  0.35464489  1
  In  In8  1  0.84393826  0.18821238  -0.00810699  1
  In  In9  1  0.84941186  0.02062689  0.15836083  1
  In  In10  1  0.17557522  0.00427850  0.50001686  1
  In  In11  1  0.16495307  0.68298257  0.17544986  1
  In  In12  1  0.14698382  0.46980547  0.35599345  1
  In  In13  1  0.16179200  0.33106278  0.82583146  1
  In  In14  1  0.51054718  0.67872395  0.84217005  1
  In  In15  1  0.48793448  0.53264504  0.01614779  1
  In  In16  1  0.15280002  0.29524377  0.17261832  1
  In  In17  1  0.00100476  0.32969522  -0.01358419  1
  In  In18  1  0.64520687  0.16488404  0.50263295  1
  In  In19  1  0.14046631  0.33712332  0.50490345  1
  In  In20  1  0.48584926  0.83603505  0.32128326  1
  In  In21  1  0.14446851  0.16433788  0.33633446  1
  In  In22  1  0.50671974  0.50021959  0.64328225  1
  In  In23  1  0.00663924  0.83162891  0.17905101  1
  In  In24  1  0.84532149  0.30075900  0.51117907  1
  In  In25  1  0.31540785  0.68613116  0.34189021  1
  In  In26  1  0.46707387  0.02255469  0.49433849  1
  In  In27  1  0.00565670  -0.00840562  0.65382877  1
  In  In28  1  -0.01329415  0.16277944  0.82674648  1
  In  In29  1  0.35192116  0.70429982  -0.00287547  1
  In  In30  1  0.14438087  0.66644492  0.50202683  1
  In  In31  1  0.31542714  0.31842026  0.63755187  1
  In  In32  1  0.16730549  0.84556380  0.32603302  1
  In  In33  1  0.49116944  0.67058178  0.15937623  1
  In  In34  1  0.17319387  0.15964131  0.66374821  1
  In  In35  1  0.67429618  0.01070259  -0.02737241  1
  In  In36  1  0.84244021  0.16592928  0.33271178  1
  In  In37  1  0.52239602  0.65985618  0.48267231  1
  In  In38  1  0.69891759  0.48116079  0.85444222  1
  In  In39  1  -0.00479138  0.46170922  0.16425091  1
  In  In40  1  0.33959387  0.87019263  0.84953995  1
  In  In41  1  0.86320997  0.48700250  0.68847110  1
  In  In42  1  0.48873941  0.88254554  0.67861385  1
  In  In43  1  0.66531845  0.63365369  0.01073028  1
  In  In44  1  0.67302137  0.82519724  0.15930978  1
  In  In45  1  0.33703913  0.02232228  -0.00381161  1
  In  In46  1  0.00333772  0.66871583  -0.02580446  1
  In  In47  1  0.03192494  0.02204791  -0.00058884  1
  In  In48  1  0.67115405  -0.03084687  0.34352886  1
  In  In49  1  0.49471491  -0.00512874  0.17173670  1
  In  In50  1  0.48314678  0.18128587  0.33297799  1
  In  In51  1  0.85633342  -0.01138875  0.50644609  1
  In  In52  1  0.18233473  0.87405810  -0.01268802  1
  In  In53  1  0.32393936  0.51293378  0.18276307  1
  In  In54  1  0.65361962  0.18701382  0.17789832  1
  In  In55  1  0.66428029  0.82145174  0.82419742  1
  In  In56  1  0.68799546  0.48706745  0.50925257  1
  In  In57  1  0.51755038  0.32287183  0.84075312  1
  In  In58  1  0.85801721  0.49671396  -0.00784997  1
  In  In59  1  0.67018273  0.83080270  0.52812955  1
  In  In60  1  0.68283154  0.37580175  0.29463511  1
  In  In61  1  0.32026490  0.48763689  0.79722925  1
  In  In62  1  0.15044135  0.53550778  -0.02011716  1
  In  In63  1  0.49485148  0.33076097  0.49212120  1
  In  In64  1  0.85241756  0.82025714  0.64125170  1
  In  In65  1  0.83310055  0.80847077  0.01662445  1
  In  In66  1  0.50603463  0.15402309  -0.00549831  1
  In  In67  1  0.81642747  0.12936028  0.69913093  1
  In  In68  1  0.16379169  0.83040883  0.68018608  1
  In  In69  1  0.67082848  0.65073475  0.66334896  1
  In  In70  1  0.68187690  0.33860528  0.02541587  1
  In  In71  1  0.32144456  0.31995080  0.01818608  1
  Te  Te72  1  0.11703566  0.09296797  0.09535401  1
  Te  Te73  1  0.07125009  0.08426026  0.43576054  1
  Te  Te74  1  0.08500766  0.07433139  0.75332344  1
  Te  Te75  1  0.10680200  0.41569080  0.07004022  1
  Te  Te76  1  0.04149665  0.43819905  0.45580304  1
  Te  Te77  1  0.07160948  0.38761233  0.72335322  1
  Te  Te78  1  0.09253540  0.75958576  0.06788631  1
  Te  Te79  1  0.08010694  0.73601143  0.38337522  1
  Te  Te80  1  0.04789713  0.75109844  0.73023147  1
  Te  Te81  1  0.41478575  0.10306301  0.10399203  1
  Te  Te82  1  0.38603207  0.08630022  0.39002953  1
  Te  Te83  1  0.41418786  0.05752995  0.80084077  1
  Te  Te84  1  0.40548533  0.42523818  0.08916639  1
  Te  Te85  1  0.42040978  0.42699275  0.41309029  1
  Te  Te86  1  0.42568275  0.40221786  0.73086346  1
  Te  Te87  1  0.43452651  0.78359424  0.08626741  1
  Te  Te88  1  0.41667596  0.75707945  0.43155164  1
  Te  Te89  1  0.41527787  0.76055271  0.75538880  1
  Te  Te90  1  0.73817473  0.09960582  0.08495007  1
  Te  Te91  1  0.74638961  0.07436017  0.42377860  1
  Te  Te92  1  0.71606675  0.06631178  0.78870686  1
  Te  Te93  1  0.77412848  0.43110418  0.09679569  1
  Te  Te94  1  0.76780580  0.39648609  0.41891842  1
  Te  Te95  1  0.74046702  0.41713542  0.73137993  1
  Te  Te96  1  0.75751295  0.71108737  0.10431992  1
  Te  Te97  1  0.72315241  0.75289568  0.41322631  1
  Te  Te98  1  0.76232998  0.74081737  0.74225022  1
  Te  Te99  1  0.05794842  0.27561929  0.28442447  1
  Te  Te100  1  0.07543612  0.26012077  0.61414464  1
  Te  Te101  1  0.09223673  0.23098414  0.91421918  1
  Te  Te102  1  0.09997385  0.56279473  0.23829667  1
  Te  Te103  1  0.04283544  0.61383747  0.59864484  1
  Te  Te104  1  0.04517890  0.54797127  0.86827660  1
  Te  Te105  1  0.09230834  0.93900927  0.23663568  1
  Te  Te106  1  0.08462192  0.89593107  0.56855147  1
  Te  Te107  1  0.07672448  0.92223923  0.90118290  1
  Te  Te108  1  0.39765155  0.25936753  0.24480985  1
  Te  Te109  1  0.41604154  0.22918325  0.57065490  1
  Te  Te110  1  0.41167107  0.24686926  0.91868932  1
  Te  Te111  1  0.41521349  0.59589629  0.26907724  1
  Te  Te112  1  0.41130969  0.58581893  0.56569871  1
  Te  Te113  1  0.40108314  0.58035487  0.89468236  1
  Te  Te114  1  0.39906684  0.94406391  0.27305542  1
  Te  Te115  1  0.38693147  0.94122616  0.59220678  1
  Te  Te116  1  0.44506651  0.94587077  0.92002354  1
  Te  Te117  1  0.76893077  0.26280796  0.23878419  1
  Te  Te118  1  0.74451463  0.22556376  0.59686952  1
  Te  Te119  1  0.75295092  0.27356398  0.91434576  1
  Te  Te120  1  0.78407028  0.52730455  0.23497900  1
  Te  Te121  1  0.77730292  0.57866311  0.59003308  1
  Te  Te122  1  0.77271764  0.59857554  0.90886507  1
  Te  Te123  1  0.76561203  0.91594785  0.23825450  1
  Te  Te124  1  0.75086234  0.93205640  0.60160925  1
  Te  Te125  1  0.75808611  0.89894088  0.91707552  1
  Te  Te126  1  0.22989787  0.21545362  0.07184891  1
  Te  Te127  1  0.23413157  0.24074489  0.43621452  1
  Te  Te128  1  0.26530255  0.24394163  0.75804540  1
  Te  Te129  1  0.26069950  0.60015940  0.07318479  1
  Te  Te130  1  0.23589891  0.57927504  0.41571823  1
  Te  Te131  1  0.22311705  0.58953408  0.73985010  1
  Te  Te132  1  0.26366139  0.93570486  0.08992720  1
  Te  Te133  1  0.25918763  0.92002855  0.41135582  1
  Te  Te134  1  0.24294077  0.93249816  0.75659538  1
  Te  Te135  1  0.56401085  0.26398354  0.08519414  1
  Te  Te136  1  0.59866734  0.26032558  0.39459207  1
  Te  Te137  1  0.57598138  0.23633384  0.73925251  1
  Te  Te138  1  0.59419015  0.55243077  0.12825166  1
  Te  Te139  1  0.60926200  0.56458651  0.40671407  1
  Te  Te140  1  0.58026203  0.57191842  0.75937129  1
  Te  Te141  1  0.59910799  0.93135031  0.08214527  1
  Te  Te142  1  0.56761150  0.91158330  0.43885397  1
  Te  Te143  1  0.59642362  0.93759566  0.76161394  1
  Te  Te144  1  0.93236554  0.25119210  0.08942893  1
  Te  Te145  1  0.94033873  0.24928662  0.40771008  1
  Te  Te146  1  0.89012821  0.24391453  0.75446623  1
  Te  Te147  1  0.94454618  0.58325649  0.08292055  1
  Te  Te148  1  0.88222467  0.59531155  0.42794860  1
  Te  Te149  1  0.95199745  0.58846620  0.74957122  1
  Te  Te150  1  0.92944200  0.91743996  0.07720398  1
  Te  Te151  1  0.93486923  0.93986584  0.39313648  1
  Te  Te152  1  0.90337788  0.92166398  0.73313491  1
  Te  Te153  1  0.19279046  0.07219266  0.22916360  1
  Te  Te154  1  0.26928971  0.06882863  0.59707835  1
  Te  Te155  1  0.27441038  0.05524378  0.86449170  1
  Te  Te156  1  0.24117880  0.40325413  0.24787904  1
  Te  Te157  1  0.24447544  0.43199111  0.57376374  1
  Te  Te158  1  0.25119847  0.42069661  0.91506808  1
  Te  Te159  1  0.27032798  0.77359664  0.22781872  1
  Te  Te160  1  0.24636517  0.75389081  0.57575545  1
  Te  Te161  1  0.24629792  0.74883625  0.89905039  1
  Te  Te162  1  0.59329817  0.07518051  0.26646371  1
  Te  Te163  1  0.57111328  0.07200992  0.59362929  1
  Te  Te164  1  0.61480891  0.12346804  0.89347084  1
  Te  Te165  1  0.57543477  0.42342023  0.21186218  1
  Te  Te166  1  0.59628259  0.39361261  0.58610296  1
  Te  Te167  1  0.57753594  0.43429601  0.93421533  1
  Te  Te168  1  0.58646980  0.74444618  0.25398485  1
  Te  Te169  1  0.56739723  0.74728738  0.60680799  1
  Te  Te170  1  0.59288914  0.74989673  0.94450569  1
  Te  Te171  1  0.93829925  0.09348318  0.24711096  1
  Te  Te172  1  0.92024595  0.09768962  0.58726122  1
  Te  Te173  1  0.90920052  0.07192613  0.92152479  1
  Te  Te174  1  0.91253157  0.46778710  0.28708816  1
  Te  Te175  1  0.92323866  0.41353653  0.57247296  1
  Te  Te176  1  0.90469511  0.39476024  0.89664240  1
  Te  Te177  1  0.91093963  0.74523845  0.25503356  1
  Te  Te178  1  0.90621910  0.75279422  0.52097349  1
  Te  Te179  1  0.92017795  0.76596520  0.90577268  1
