# generated using pymatgen
data_In2Te3
_symmetry_space_group_name_H-M   'P 1'
_cell_length_a   18.82589872
_cell_length_b   18.80792777
_cell_length_c   18.81000678
_cell_angle_alpha   90.00473736
_cell_angle_beta   89.97390273
_cell_angle_gamma   90.15971002
_symmetry_Int_Tables_number   1
_chemical_formula_structural   In2Te3
_chemical_formula_sum   'In72 Te108'
_cell_volume   6660.14806938
_cell_formula_units_Z   36
loop_
 _symmetry_equiv_pos_site_id
 _symmetry_equiv_pos_as_xyz
  1  'x, y, z'
loop_
 _atom_site_type_symbol
 _atom_site_label
 _atom_site_symmetry_multiplicity
 _atom_site_fract_x
 _atom_site_fract_y
 _atom_site_fract_z
 _atom_site_occupancy
  In  In0  1  -0.02195759  0.49502137  0.52648615  1
  In  In1  1  0.50235809  0.84182490  0.66450089  1
  In  In2  1  0.83806143  0.84368962  0.64145210  1
  In  In3  1  0.65512460  0.02885115  0.00660759  1
  In  In4  1  0.81258597  0.01061651  0.50344963  1
  In  In5  1  0.83138218  0.18579800  0.32283553  1
  In  In6  1  0.85343854  0.81749397  0.32752106  1
  In  In7  1  0.49243022  0.17608602  0.65959750  1
  In  In8  1  0.50334592  0.01606115  0.49346917  1
  In  In9  1  0.82287656  0.49491021  0.31061426  1
  In  In10  1  0.17578404  -0.02309527  0.16869886  1
  In  In11  1  0.01348118  0.65891169  0.31501529  1
  In  In12  1  0.14735207  -0.01986915  0.82651375  1
  In  In13  1  0.33294406  0.50404792  0.47707142  1
  In  In14  1  0.64562252  0.82601548  0.81170330  1
  In  In15  1  0.33544499  0.49878154  0.84600987  1
  In  In16  1  0.49510508  0.17728703  0.34561807  1
  In  In17  1  0.01037492  0.36678318  0.03675794  1
  In  In18  1  0.16196101  0.17008265  0.64561202  1
  In  In19  1  -0.04107233  0.20099954  0.83088450  1
  In  In20  1  0.35088265  0.16129357  0.49526445  1
  In  In21  1  0.18707733  -0.01672778  0.49920357  1
  In  In22  1  0.34344580  0.82099024  0.47906999  1
  In  In23  1  0.34914360  0.33527207  0.33707705  1
  In  In24  1  0.34319174  0.16782208  0.82700956  1
  In  In25  1  0.52589517  0.36736935  0.86443130  1
  In  In26  1  0.66237496  -0.01365183  0.34487242  1
  In  In27  1  0.33538349  0.49098904  0.17647978  1
  In  In28  1  0.68579407  0.83580441  0.17478450  1
  In  In29  1  0.17161622  0.16777879  0.00887816  1
  In  In30  1  0.83938602  0.64453996  0.84457166  1
  In  In31  1  -0.00448541  0.33502724  0.31417707  1
  In  In32  1  0.47727271  0.84184003  0.32067567  1
  In  In33  1  0.15758460  0.81794614  0.68956293  1
  In  In34  1  0.67802330  0.34806935  0.65790556  1
  In  In35  1  0.17277856  0.51288501  0.31422260  1
  In  In36  1  0.67770799  0.16614041  0.83744250  1
  In  In37  1  0.50338316  0.63863453  0.16791853  1
  In  In38  1  0.50563321  0.49138719  0.67438752  1
  In  In39  1  0.32259946  0.84446192  0.86069958  1
  In  In40  1  0.82108548  0.19107307  0.68772984  1
  In  In41  1  0.82654954  0.66561933  0.50815416  1
  In  In42  1  0.31392521  0.66431662  0.66544340  1
  In  In43  1  0.51325675  0.33431697  0.17499627  1
  In  In44  1  0.67527953  0.18345685  0.16791441  1
  In  In45  1  0.68075109  0.64385077  0.66173316  1
  In  In46  1  0.67237271  0.63611758  0.01783009  1
  In  In47  1  0.47938744  0.00547706  0.16685351  1
  In  In48  1  0.84189579  0.19538265  0.00331639  1
  In  In49  1  0.49176785  0.64681810  0.82864072  1
  In  In50  1  -0.00661105  0.79384307  0.85044894  1
  In  In51  1  0.00081058  0.79904219  0.48101443  1
  In  In52  1  0.16476075  0.50624056  0.65543560  1
  In  In53  1  0.00018774  0.00875594  0.32239563  1
  In  In54  1  0.01281978  0.51681207  0.85377200  1
  In  In55  1  0.17509055  0.33275145  0.83626686  1
  In  In56  1  0.51839612  0.66798406  0.48248034  1
  In  In57  1  0.16193693  0.16181143  0.30803003  1
  In  In58  1  -0.00923770  0.19341787  0.48139504  1
  In  In59  1  0.01493907  -0.01793649  0.00600592  1
  In  In60  1  0.48029841  0.81669881  0.00776755  1
  In  In61  1  0.80897347  0.33778482  0.84190697  1
  In  In62  1  0.85319671  0.83649732  -0.01412394  1
  In  In63  1  0.66503881  0.33900826  0.34038017  1
  In  In64  1  0.81461677  0.00639693  0.83765343  1
  In  In65  1  0.31614611  0.33163327  -0.00673355  1
  In  In66  1  -0.00432799  0.00103047  0.67145826  1
  In  In67  1  0.33159913  -0.00928874  0.01780764  1
  In  In68  1  0.17832254  0.36198325  0.49732501  1
  In  In69  1  0.31779186  0.66439365  -0.00499723  1
  In  In70  1  0.68535011  0.65619335  0.33975551  1
  In  In71  1  0.01899381  0.80383528  0.14155969  1
  Te  Te72  1  0.08149335  0.08185035  0.09713022  1
  Te  Te73  1  0.08886668  0.08190139  0.43275517  1
  Te  Te74  1  0.07590999  0.10229411  0.75479136  1
  Te  Te75  1  0.10366564  0.46773137  0.09173217  1
  Te  Te76  1  0.07448351  0.43120281  0.40895212  1
  Te  Te77  1  0.08449545  0.41998720  0.75164384  1
  Te  Te78  1  0.10775074  0.70495683  0.07703032  1
  Te  Te79  1  0.10485078  0.74771487  0.39140398  1
  Te  Te80  1  0.06921545  0.71674220  0.75014257  1
  Te  Te81  1  0.41401819  0.09834214  0.07449652  1
  Te  Te82  1  0.40270608  0.06362572  0.38915706  1
  Te  Te83  1  0.41880930  0.07615446  0.74110150  1
  Te  Te84  1  0.41686815  0.40883064  0.07913599  1
  Te  Te85  1  0.43712314  0.41756466  0.42056955  1
  Te  Te86  1  0.41572293  0.40329106  0.76189685  1
  Te  Te87  1  0.40095650  0.73507843  0.10672122  1
  Te  Te88  1  0.41070970  0.71918454  0.38638278  1
  Te  Te89  1  0.41104063  0.75371904  0.75612170  1
  Te  Te90  1  0.76662194  0.08759005  0.08825184  1
  Te  Te91  1  0.73536669  0.10320777  0.41150215  1
  Te  Te92  1  0.73366955  0.07139015  0.72887258  1
  Te  Te93  1  0.78013226  0.44114496  0.04276743  1
  Te  Te94  1  0.74229700  0.43951790  0.42298042  1
  Te  Te95  1  0.75190397  0.43804931  0.75096843  1
  Te  Te96  1  0.75967886  0.74821654  0.07571116  1
  Te  Te97  1  0.74853852  0.76713584  0.42617891  1
  Te  Te98  1  0.76366192  0.75064185  0.75199927  1
  Te  Te99  1  0.07928347  0.25171543  0.22517867  1
  Te  Te100  1  0.07789383  0.27596633  0.57708246  1
  Te  Te101  1  0.07568507  0.25308674  0.92411780  1
  Te  Te102  1  0.07602731  0.56786326  0.20995061  1
  Te  Te103  1  0.08701579  0.58749473  0.56063207  1
  Te  Te104  1  0.06675011  0.59790552  0.96821832  1
  Te  Te105  1  0.07511213  0.89719149  0.25374342  1
  Te  Te106  1  0.07804640  0.90926859  0.58235121  1
  Te  Te107  1  0.09514693  0.87928551  0.92899904  1
  Te  Te108  1  0.40964865  0.23814633  0.23666782  1
  Te  Te109  1  0.41553353  0.26778394  0.57269728  1
  Te  Te110  1  0.42541982  0.25807025  0.91751694  1
  Te  Te111  1  0.41910089  0.57158197  0.26950866  1
  Te  Te112  1  0.42633474  0.59675914  0.59001398  1
  Te  Te113  1  0.42803536  0.57075033  0.94303747  1
  Te  Te114  1  0.37974126  0.89815964  0.21879419  1
  Te  Te115  1  0.41061695  0.92074349  0.57290277  1
  Te  Te116  1  0.43544244  0.92905321  0.91740781  1
  Te  Te117  1  0.76447586  0.28804775  0.23060946  1
  Te  Te118  1  0.75489407  0.25335854  0.57277709  1
  Te  Te119  1  0.72166692  0.26730479  0.94540277  1
  Te  Te120  1  0.74957141  0.59032786  0.22050217  1
  Te  Te121  1  0.75405367  0.55259929  0.57083517  1
  Te  Te122  1  0.75618689  0.54607490  0.92680347  1
  Te  Te123  1  0.77354790  0.92961079  0.25715334  1
  Te  Te124  1  0.72851978  0.92403223  0.58838568  1
  Te  Te125  1  0.73178068  0.90973924  0.92372456  1
  Te  Te126  1  0.24272202  0.25911009  0.09913270  1
  Te  Te127  1  0.24032744  0.24554886  0.41970737  1
  Te  Te128  1  0.25577683  0.25355949  0.73410288  1
  Te  Te129  1  0.24666182  0.59047840  0.10546229  1
  Te  Te130  1  0.24027666  0.59860080  0.41405362  1
  Te  Te131  1  0.23547466  0.58483370  0.76874294  1
  Te  Te132  1  0.23844608  0.88755429  0.06740575  1
  Te  Te133  1  0.25179086  0.90434945  0.38843770  1
  Te  Te134  1  0.25882716  0.91947369  0.74190228  1
  Te  Te135  1  0.58883683  0.25566890  0.07336587  1
  Te  Te136  1  0.58261168  0.25483470  0.43270829  1
  Te  Te137  1  0.58687828  0.26628282  0.76184796  1
  Te  Te138  1  0.58591429  0.53602871  0.09106299  1
  Te  Te139  1  0.59886178  0.56354715  0.41630147  1
  Te  Te140  1  0.60370032  0.56463868  0.76797030  1
  Te  Te141  1  0.58071030  0.90996364  0.08947115  1
  Te  Te142  1  0.57371676  0.89540217  0.42688530  1
  Te  Te143  1  0.57053829  0.93788204  0.75471297  1
  Te  Te144  1  0.92768846  0.26206838  0.10267530  1
  Te  Te145  1  0.89240338  0.28926563  0.41889489  1
  Te  Te146  1  0.92215820  0.30317660  0.72137960  1
  Te  Te147  1  0.86806331  0.53552916  0.11097624  1
  Te  Te148  1  0.91402547  0.58629473  0.40688540  1
  Te  Te149  1  0.92181570  0.56906717  0.74886183  1
  Te  Te150  1  0.91591385  0.91500184  0.09968202  1
  Te  Te151  1  0.91715062  0.92397843  0.43106476  1
  Te  Te152  1  0.91927985  0.91044456  0.76768194  1
  Te  Te153  1  0.25951109  0.07394518  0.24372717  1
  Te  Te154  1  0.26666738  0.07434850  0.59145902  1
  Te  Te155  1  0.24049909  0.07292093  0.90716469  1
  Te  Te156  1  0.23962676  0.39321213  0.24965173  1
  Te  Te157  1  0.27768397  0.42311779  0.59560714  1
  Te  Te158  1  0.22539281  0.43915153  0.93392608  1
  Te  Te159  1  0.26454780  0.81089994  0.26358447  1
  Te  Te160  1  0.23837782  0.75638442  0.57308363  1
  Te  Te161  1  0.23545727  0.72969352  0.89065727  1
  Te  Te162  1  0.58723258  0.08059235  0.24762983  1
  Te  Te163  1  0.58942668  0.10512424  0.57175670  1
  Te  Te164  1  0.56985697  0.09458651  0.90899943  1
  Te  Te165  1  0.59071479  0.43330860  0.25213497  1
  Te  Te166  1  0.57973976  0.41868723  0.57138328  1
  Te  Te167  1  0.60691729  0.45371185  0.95467456  1
  Te  Te168  1  0.58638933  0.74882410  0.25161430  1
  Te  Te169  1  0.59610760  0.74692941  0.58811104  1
  Te  Te170  1  0.58544990  0.73367638  0.92598007  1
  Te  Te171  1  0.91999167  0.10066494  0.24145184  1
  Te  Te172  1  0.91745981  0.09941447  0.58618906  1
  Te  Te173  1  0.92248657  0.07524849  0.92191373  1
  Te  Te174  1  0.93107186  0.43804933  0.22184328  1
  Te  Te175  1  0.90128343  0.39037389  0.59182244  1
  Te  Te176  1  0.92243025  0.40973326  0.92088300  1
  Te  Te177  1  0.91133035  0.72673133  0.22248352  1
  Te  Te178  1  0.93149081  0.73185768  0.59878815  1
  Te  Te179  1  0.92616731  0.70375337  0.95802289  1
