# generated using pymatgen
data_In2Te3
_symmetry_space_group_name_H-M   'P 1'
_cell_length_a   18.91217870
_cell_length_b   18.92886366
_cell_length_c   18.91731171
_cell_angle_alpha   89.92890795
_cell_angle_beta   90.01576412
_cell_angle_gamma   89.93260436
_symmetry_Int_Tables_number   1
_chemical_formula_structural   In2Te3
_chemical_formula_sum   'In72 Te108'
_cell_volume   6772.12357814
_cell_formula_units_Z   36
loop_
 _symmetry_equiv_pos_site_id
 _symmetry_equiv_pos_as_xyz
  1  'x, y, z'
loop_
 _atom_site_type_symbol
 _atom_site_label
 _atom_site_symmetry_multiplicity
 _atom_site_fract_x
 _atom_site_fract_y
 _atom_site_fract_z
 _atom_site_occupancy
  In  In0  1  0.34261760  0.65150341  0.68049712  1
  In  In1  1  0.82702940  0.66577977  0.15070870  1
  In  In2  1  0.18139337  0.66167320  0.15311483  1
  In  In3  1  0.03744322  0.46475291  0.51784193  1
  In  In4  1  0.32426018  0.84718475  0.16849960  1
  In  In5  1  0.67671643  0.15968165  0.51090504  1
  In  In6  1  0.68708542  0.68910028  0.69934127  1
  In  In7  1  0.34621836  0.66710798  -0.00242302  1
  In  In8  1  -0.01483350  0.15737578  0.48506056  1
  In  In9  1  0.63941264  0.30123959  0.04212270  1
  In  In10  1  -0.03789393  0.01516653  -0.03273209  1
  In  In11  1  0.68648250  0.67636661  -0.03669171  1
  In  In12  1  0.47366102  0.84154700  0.32034031  1
  In  In13  1  0.61672608  0.51119402  0.84331706  1
  In  In14  1  0.66661095  0.49637744  0.49839927  1
  In  In15  1  0.48770343  0.62870517  0.52148205  1
  In  In16  1  0.48124217  0.49033344  0.00892920  1
  In  In17  1  0.82678733  0.31320965  0.83067972  1
  In  In18  1  0.87143170  0.65667411  0.52227301  1
  In  In19  1  0.66325253  0.31922072  0.30860753  1
  In  In20  1  0.81939388  0.48757546  0.32847919  1
  In  In21  1  0.47058474  0.33662636  0.49085545  1
  In  In22  1  0.35260003  0.18568640  0.14648451  1
  In  In23  1  0.00181148  0.65318624  0.32083658  1
  In  In24  1  -0.02476005  0.16303520  0.17054665  1
  In  In25  1  0.33137218  0.01524167  0.33639657  1
  In  In26  1  0.67623245  0.03404735  0.02482001  1
  In  In27  1  0.19323914  0.20230303  0.34737288  1
  In  In28  1  0.57058229  0.86761359  -0.02824669  1
  In  In29  1  -0.01290088  0.69029788  0.67703489  1
  In  In30  1  0.48759626  0.18269932  0.65173747  1
  In  In31  1  0.65055525  0.66452429  0.35809347  1
  In  In32  1  0.65897488  0.84305467  0.47621230  1
  In  In33  1  0.85118763  0.48501708  0.67394092  1
  In  In34  1  0.15610658  -0.00133212  0.17274195  1
  In  In35  1  0.49861637  -0.00198362  0.82920686  1
  In  In36  1  0.20501693  0.47756169  -0.01087254  1
  In  In37  1  0.00494327  0.53099386  0.16919977  1
  In  In38  1  -0.00314912  0.31132173  0.67405709  1
  In  In39  1  0.32412013  0.84437210  0.83098516  1
  In  In40  1  0.01394767  0.49685562  0.83693600  1
  In  In41  1  0.00835730  0.32449605  0.35576249  1
  In  In42  1  0.19652224  0.34517884  0.19013809  1
  In  In43  1  0.18077029  0.00231726  0.50981610  1
  In  In44  1  0.81689798  0.85791975  -0.01055551  1
  In  In45  1  0.83514855  0.32231947  0.15395497  1
  In  In46  1  0.18447019  0.16103832  0.00684225  1
  In  In47  1  -0.00609475  0.79718074  0.50019691  1
  In  In48  1  0.83152463  0.00115659  0.50630234  1
  In  In49  1  0.33576724  0.83626259  0.50029421  1
  In  In50  1  0.65688612  0.31238146  0.65296121  1
  In  In51  1  0.15245781  0.84196610  0.68967151  1
  In  In52  1  0.63505042  0.48040972  0.16411997  1
  In  In53  1  0.33752530  0.63309427  0.33108965  1
  In  In54  1  0.66147977  0.16902933  0.83436647  1
  In  In55  1  0.49923667  0.83144618  0.64994370  1
  In  In56  1  0.50628630  0.66871929  0.17621893  1
  In  In57  1  -0.00451306  0.01449219  0.31141032  1
  In  In58  1  0.16785939  0.16201804  0.65783431  1
  In  In59  1  0.02090344  0.33181422  -0.00082302  1
  In  In60  1  0.35814028  0.18785331  0.85814783  1
  In  In61  1  0.15849297  0.84635599  0.00856733  1
  In  In62  1  -0.00570537  -0.00710643  0.69671953  1
  In  In63  1  0.81914466  0.84742222  0.32688324  1
  In  In64  1  0.17483076  0.33794631  0.84138113  1
  In  In65  1  -0.00746663  0.84025780  0.84862854  1
  In  In66  1  0.17304054  0.65601138  0.50387816  1
  In  In67  1  0.65847950  0.02416097  0.68285580  1
  In  In68  1  0.64778166  0.00751266  0.32142372  1
  In  In69  1  0.47345234  0.17078289  0.33627183  1
  In  In70  1  0.00440085  0.66779747  0.00626714  1
  In  In71  1  0.25437424  0.48222649  0.64635581  1
  Te  Te72  1  0.06957663  0.08175569  0.07800089  1
  Te  Te73  1  0.09857277  0.08819042  0.40315417  1
  Te  Te74  1  0.10339702  0.07093998  0.75559141  1
  Te  Te75  1  0.09255623  0.42573414  0.09565439  1
  Te  Te76  1  0.10993179  0.41893326  0.39948118  1
  Te  Te77  1  0.09093513  0.41292519  0.73667772  1
  Te  Te78  1  0.07613568  0.75960741  0.10318245  1
  Te  Te79  1  0.09573460  0.74181519  0.40360058  1
  Te  Te80  1  0.08671379  0.74009029  0.78000236  1
  Te  Te81  1  0.43831200  0.12127061  0.04362328  1
  Te  Te82  1  0.39173658  0.10204246  0.44011661  1
  Te  Te83  1  0.41219093  0.09070743  0.74695974  1
  Te  Te84  1  0.40004860  0.37687288  0.06019208  1
  Te  Te85  1  0.37443972  0.41633089  0.40715662  1
  Te  Te86  1  0.47977542  0.48655323  0.78397935  1
  Te  Te87  1  0.42215173  0.76092940  0.08896641  1
  Te  Te88  1  0.42285094  0.73359081  0.42414075  1
  Te  Te89  1  0.42315837  0.75294584  0.75678581  1
  Te  Te90  1  0.76324653  0.10752790  0.11900958  1
  Te  Te91  1  0.75316256  0.08231630  0.40477690  1
  Te  Te92  1  0.76678497  0.08972090  0.76259122  1
  Te  Te93  1  0.74190924  0.41650354  0.07952222  1
  Te  Te94  1  0.74606076  0.39289204  0.41939491  1
  Te  Te95  1  0.74280491  0.40609355  0.74405288  1
  Te  Te96  1  0.73501589  0.76078396  0.08097052  1
  Te  Te97  1  0.76830106  0.73596892  0.42502478  1
  Te  Te98  1  0.79025268  0.77553152  0.75167294  1
  Te  Te99  1  0.08410558  0.24802100  0.23527284  1
  Te  Te100  1  0.07977115  0.24543586  0.56426801  1
  Te  Te101  1  0.08946966  0.23115870  0.90953258  1
  Te  Te102  1  0.11758819  0.57333625  0.26085765  1
  Te  Te103  1  0.07264563  0.58829227  0.59558522  1
  Te  Te104  1  0.10041115  0.57682292  0.93268595  1
  Te  Te105  1  0.07787893  0.90729950  0.25559390  1
  Te  Te106  1  0.07483572  0.91043607  0.57559504  1
  Te  Te107  1  0.08763550  0.93905579  0.91173649  1
  Te  Te108  1  0.39968956  0.27552527  0.25751074  1
  Te  Te109  1  0.39619872  0.29627995  0.61473042  1
  Te  Te110  1  0.43578111  0.28545458  0.94789631  1
  Te  Te111  1  0.42199778  0.56319541  0.23308648  1
  Te  Te112  1  0.38978940  0.53743765  0.58909463  1
  Te  Te113  1  0.42695668  0.58321890  0.90358567  1
  Te  Te114  1  0.41839837  0.95025007  0.22926228  1
  Te  Te115  1  0.40693070  0.92722364  0.58865695  1
  Te  Te116  1  0.42383541  0.90800081  0.92547415  1
  Te  Te117  1  0.74395732  0.22476083  0.22312789  1
  Te  Te118  1  0.76745727  0.23403196  0.59801295  1
  Te  Te119  1  0.74023101  0.24687392  0.93731669  1
  Te  Te120  1  0.73355228  0.58481576  0.24957805  1
  Te  Te121  1  0.75387960  0.58026749  0.59158315  1
  Te  Te122  1  0.74591089  0.56720491  0.88769064  1
  Te  Te123  1  0.72746733  0.91593511  0.23623026  1
  Te  Te124  1  0.72740761  0.92459345  0.58357794  1
  Te  Te125  1  0.71408903  0.93622798  0.91631321  1
  Te  Te126  1  0.25784266  0.28214269  0.06517550  1
  Te  Te127  1  0.27640463  0.29157312  0.43121785  1
  Te  Te128  1  0.25575803  0.24158387  0.75781439  1
  Te  Te129  1  0.27892796  0.56514026  0.08865302  1
  Te  Te130  1  0.26154334  0.55913251  0.43535299  1
  Te  Te131  1  0.24510028  0.57459424  0.76105978  1
  Te  Te132  1  0.25732680  0.94289742  0.07217905  1
  Te  Te133  1  0.24435885  0.91045553  0.40442694  1
  Te  Te134  1  0.25246082  0.93581920  0.73980872  1
  Te  Te135  1  0.54786770  0.20515693  0.11251435  1
  Te  Te136  1  0.58194265  0.24711178  0.42628888  1
  Te  Te137  1  0.56398808  0.25917338  0.75991611  1
  Te  Te138  1  0.58778297  0.59066239  0.07156110  1
  Te  Te139  1  0.55858341  0.55487414  0.40707847  1
  Te  Te140  1  0.57601944  0.59150398  0.71831204  1
  Te  Te141  1  0.58812752  0.93893633  0.09730004  1
  Te  Te142  1  0.55101283  0.93003906  0.41649011  1
  Te  Te143  1  0.58958603  0.90641325  0.74832698  1
  Te  Te144  1  0.91403640  0.23860213  0.05388845  1
  Te  Te145  1  0.90120652  0.23332125  0.39100333  1
  Te  Te146  1  0.93324943  0.22304353  0.77595990  1
  Te  Te147  1  0.90227223  0.56783214  0.06316196  1
  Te  Te148  1  0.92500042  0.55914562  0.41444466  1
  Te  Te149  1  0.91458176  0.58770647  0.76445922  1
  Te  Te150  1  0.91868722  0.92374191  0.07244716  1
  Te  Te151  1  0.92400213  0.91483858  0.41942655  1
  Te  Te152  1  0.89017384  0.90863879  0.76371275  1
  Te  Te153  1  0.24852861  0.10474865  0.23533457  1
  Te  Te154  1  0.27007942  0.10629578  0.56324925  1
  Te  Te155  1  0.27691497  0.08379622  0.92330705  1
  Te  Te156  1  0.30635554  0.41075785  0.26266634  1
  Te  Te157  1  0.24734370  0.35692843  0.57126842  1
  Te  Te158  1  0.28383251  0.43354625  0.87315873  1
  Te  Te159  1  0.25907620  0.74378690  0.25547391  1
  Te  Te160  1  0.24808187  0.75124765  0.59792985  1
  Te  Te161  1  0.24384360  0.75205868  0.92443887  1
  Te  Te162  1  0.56737988  0.10508137  0.23951263  1
  Te  Te163  1  0.56684156  0.07741096  0.57491478  1
  Te  Te164  1  0.56377738  0.09662811  0.92472311  1
  Te  Te165  1  0.55265208  0.39259718  0.24651875  1
  Te  Te166  1  0.57052448  0.41424791  0.58194421  1
  Te  Te167  1  0.57510454  0.39082962  0.93630350  1
  Te  Te168  1  0.59079444  0.76369334  0.25985231  1
  Te  Te169  1  0.58982498  0.73853791  0.56559942  1
  Te  Te170  1  0.58018728  0.74619065  0.89157748  1
  Te  Te171  1  0.88207101  0.05966425  0.22565826  1
  Te  Te172  1  0.91714499  0.08445219  0.59911482  1
  Te  Te173  1  0.88611021  0.09380451  0.87033966  1
  Te  Te174  1  0.92202930  0.41697096  0.23972872  1
  Te  Te175  1  0.91443871  0.39422857  0.57060957  1
  Te  Te176  1  0.91946844  0.40698656  0.91346917  1
  Te  Te177  1  0.90886919  0.74838088  0.24739555  1
  Te  Te178  1  0.88562627  0.78451958  0.60875751  1
  Te  Te179  1  0.90337382  0.74477891  0.92635224  1
