# generated using pymatgen
data_In2Te3
_symmetry_space_group_name_H-M   'P 1'
_cell_length_a   18.78540468
_cell_length_b   18.78634547
_cell_length_c   18.77385054
_cell_angle_alpha   89.98743975
_cell_angle_beta   89.97998720
_cell_angle_gamma   90.00587343
_symmetry_Int_Tables_number   1
_chemical_formula_structural   In2Te3
_chemical_formula_sum   'In72 Te108'
_cell_volume   6625.46213923
_cell_formula_units_Z   36
loop_
 _symmetry_equiv_pos_site_id
 _symmetry_equiv_pos_as_xyz
  1  'x, y, z'
loop_
 _atom_site_type_symbol
 _atom_site_label
 _atom_site_symmetry_multiplicity
 _atom_site_fract_x
 _atom_site_fract_y
 _atom_site_fract_z
 _atom_site_occupancy
  In  In0  1  0.33909598  0.49130215  0.49834483  1
  In  In1  1  -0.01097389  -0.00646345  0.68197800  1
  In  In2  1  0.32529525  0.00615943  0.33338502  1
  In  In3  1  0.84123611  0.49380437  0.65595616  1
  In  In4  1  0.66149725  0.32313858  -0.02185964  1
  In  In5  1  0.83417454  0.31005538  0.84510969  1
  In  In6  1  0.01655340  0.49161771  0.83210679  1
  In  In7  1  0.49450856  0.33547755  0.17145377  1
  In  In8  1  0.16221340  0.33058240  0.50911892  1
  In  In9  1  0.52357127  0.00350793  0.50800270  1
  In  In10  1  0.52476175  0.00847236  0.83228620  1
  In  In11  1  -0.01666654  0.82041144  0.49320936  1
  In  In12  1  -0.00506325  0.16446534  0.15577075  1
  In  In13  1  0.15967682  0.69246866  0.14283340  1
  In  In14  1  0.51391412  0.18796379  0.31809310  1
  In  In15  1  0.16725955  0.01774419  0.50186759  1
  In  In16  1  -0.00391283  0.34515339  0.01368662  1
  In  In17  1  0.67523378  0.65402673  0.32521919  1
  In  In18  1  0.13650575  -0.01991539  0.85066919  1
  In  In19  1  0.52456437  0.67041356  0.15043778  1
  In  In20  1  0.31648872  0.65062698  0.69823718  1
  In  In21  1  0.67506166  0.01611502  -0.00842163  1
  In  In22  1  0.84872521  0.35413100  0.16702919  1
  In  In23  1  0.83477742  0.15757481  0.33106618  1
  In  In24  1  0.65651449  0.31614066  0.66758326  1
  In  In25  1  0.67300866  0.51607281  0.15360959  1
  In  In26  1  0.85377783  0.66122346  0.51903941  1
  In  In27  1  0.00027456  0.17588147  0.50230065  1
  In  In28  1  0.81164674  0.70054740  0.82250554  1
  In  In29  1  0.17068813  0.82409484  0.67726423  1
  In  In30  1  0.82826436  0.33863681  0.49176166  1
  In  In31  1  0.34720759  0.84219996  0.14517440  1
  In  In32  1  0.30976975  0.50167476  0.14617482  1
  In  In33  1  -0.00853384  0.16720239  0.84369982  1
  In  In34  1  0.16183128  0.50091210  0.31727911  1
  In  In35  1  0.14911596  0.65458105  0.84914378  1
  In  In36  1  0.15353963  0.00898727  0.14553735  1
  In  In37  1  0.33498845  0.16762707  0.84680022  1
  In  In38  1  0.84035919  0.83712120  0.00037540  1
  In  In39  1  0.68016633  0.48525620  0.51171008  1
  In  In40  1  0.35843532  0.36005662  0.70604689  1
  In  In41  1  0.50727005  0.34539112  0.49820435  1
  In  In42  1  0.65555289  0.16634469  0.51115435  1
  In  In43  1  0.82432447  -0.01124042  0.51197066  1
  In  In44  1  0.50702965  0.16380718  0.67160824  1
  In  In45  1  0.32260056  0.33767424  -0.01132098  1
  In  In46  1  0.31007878  0.82883449  0.84273891  1
  In  In47  1  0.48351205  0.63782080  0.84348755  1
  In  In48  1  0.68198659  0.16122269  0.15553976  1
  In  In49  1  0.50879691  0.85745921  0.66590233  1
  In  In50  1  0.14474815  0.81421424  0.33263236  1
  In  In51  1  0.15890676  0.17181576  0.31375707  1
  In  In52  1  0.82003258  0.01558976  0.82570159  1
  In  In53  1  0.50649009  0.49717268  0.32622627  1
  In  In54  1  0.00016185  0.85467000  0.14954192  1
  In  In55  1  0.16231615  0.33771048  0.83147611  1
  In  In56  1  0.67295608  0.67418081  -0.00757442  1
  In  In57  1  0.32860778  0.01207995  0.01261719  1
  In  In58  1  0.49050905  0.02311546  0.15738811  1
  In  In59  1  0.34522330  0.82631629  0.52040139  1
  In  In60  1  0.00908188  0.50724887  0.51063424  1
  In  In61  1  0.34668443  0.66525712  0.35409135  1
  In  In62  1  0.01752464  0.67047395  0.67268465  1
  In  In63  1  0.66880732  0.84398916  0.51414845  1
  In  In64  1  0.83396044  0.83664013  0.31942261  1
  In  In65  1  0.16209089  0.34293359  0.14373811  1
  In  In66  1  0.50403006  0.81478333  -0.01201702  1
  In  In67  1  0.68786447  0.84068353  0.15684497  1
  In  In68  1  -0.01093854  0.64811684  0.32974965  1
  In  In69  1  0.47066861  0.67180590  0.51162447  1
  In  In70  1  0.32137719  0.16038832  0.50849853  1
  In  In71  1  0.66253277  0.50790422  0.84483262  1
  Te  Te72  1  0.06840462  0.08489500  0.05243004  1
  Te  Te73  1  0.07265405  0.08271776  0.40254055  1
  Te  Te74  1  0.08746990  0.08556801  0.75285040  1
  Te  Te75  1  0.09917552  0.44716414  0.05540342  1
  Te  Te76  1  0.07805926  0.41362125  0.41027704  1
  Te  Te77  1  0.07324830  0.40083744  0.73092450  1
  Te  Te78  1  0.06334682  0.76253859  0.04669039  1
  Te  Te79  1  0.07947567  0.71859731  0.43221354  1
  Te  Te80  1  0.07208950  0.76810809  0.77767053  1
  Te  Te81  1  0.41470725  0.11589091  0.07273961  1
  Te  Te82  1  0.42653852  0.09225907  0.41622905  1
  Te  Te83  1  0.41298228  0.07432323  0.75126560  1
  Te  Te84  1  0.42211817  0.42803787  0.07569440  1
  Te  Te85  1  0.40912208  0.40209804  0.39608943  1
  Te  Te86  1  0.44016422  0.45788837  0.78958151  1
  Te  Te87  1  0.40847481  0.72580904  0.06621616  1
  Te  Te88  1  0.43606483  0.77774819  0.40685753  1
  Te  Te89  1  0.41367999  0.76076745  0.74819955  1
  Te  Te90  1  0.77539841  0.06325553  0.09119939  1
  Te  Te91  1  0.73832764  0.07544124  0.42050335  1
  Te  Te92  1  0.73052869  0.08331045  0.73150972  1
  Te  Te93  1  0.74916162  0.41852376  0.05987148  1
  Te  Te94  1  0.75170145  0.42542171  0.39881779  1
  Te  Te95  1  0.75110663  0.41259495  0.74913342  1
  Te  Te96  1  0.77017404  0.73018972  0.09418618  1
  Te  Te97  1  0.76164622  0.74608757  0.42282392  1
  Te  Te98  1  0.74202570  0.78258665  0.72191975  1
  Te  Te99  1  0.06836253  0.26982665  0.24112805  1
  Te  Te100  1  0.09845014  0.23111339  0.59756137  1
  Te  Te101  1  0.08568872  0.25249925  0.93085118  1
  Te  Te102  1  0.07892428  0.58674950  0.22105659  1
  Te  Te103  1  0.10366433  0.57463454  0.60156828  1
  Te  Te104  1  0.06707749  0.57296144  0.94782110  1
  Te  Te105  1  0.08130263  0.92838747  0.25754593  1
  Te  Te106  1  0.08216082  0.90802464  0.57702891  1
  Te  Te107  1  0.08878715  0.88296615  0.94932264  1
  Te  Te108  1  0.40148230  0.24692308  0.24505681  1
  Te  Te109  1  0.41741091  0.26086483  0.58918046  1
  Te  Te110  1  0.42580868  0.26785690  0.90631032  1
  Te  Te111  1  0.41759838  0.58773031  0.24023218  1
  Te  Te112  1  0.41279530  0.56998951  0.60725387  1
  Te  Te113  1  0.38502792  0.54455318  0.90298086  1
  Te  Te114  1  0.42326940  0.92042493  0.25164333  1
  Te  Te115  1  0.40783837  0.94594755  0.58989651  1
  Te  Te116  1  0.41701310  0.92146621  0.91874574  1
  Te  Te117  1  0.75360521  0.25782963  0.24924512  1
  Te  Te118  1  0.76366149  0.24082731  0.58970708  1
  Te  Te119  1  0.74353711  0.21556499  0.91518031  1
  Te  Te120  1  0.77483805  0.58390960  0.24099855  1
  Te  Te121  1  0.74121845  0.59511379  0.59810763  1
  Te  Te122  1  0.77096656  0.58278594  0.92047746  1
  Te  Te123  1  0.75528852  0.93719091  0.24591390  1
  Te  Te124  1  0.76173318  0.90056416  0.61963711  1
  Te  Te125  1  0.73661765  0.90443518  0.91244558  1
  Te  Te126  1  0.24446902  0.24332734  0.07207195  1
  Te  Te127  1  0.24888582  0.25052851  0.40952043  1
  Te  Te128  1  0.25769028  0.25222646  0.74487327  1
  Te  Te129  1  0.24177852  0.60009911  0.05771219  1
  Te  Te130  1  0.24042023  0.58115996  0.42294233  1
  Te  Te131  1  0.23162230  0.55323793  0.77304266  1
  Te  Te132  1  0.23282501  0.90187943  0.06539521  1
  Te  Te133  1  0.24653010  0.90625908  0.42052862  1
  Te  Te134  1  0.24937756  0.93116833  0.74932401  1
  Te  Te135  1  0.57778975  0.24348304  0.08079250  1
  Te  Te136  1  0.60518679  0.26964381  0.41021061  1
  Te  Te137  1  0.57876000  0.24627913  0.77202244  1
  Te  Te138  1  0.57471802  0.56896594  0.04863837  1
  Te  Te139  1  0.57681923  0.58798086  0.42737396  1
  Te  Te140  1  0.59167404  0.60040235  0.75214153  1
  Te  Te141  1  0.57512187  0.91500143  0.07874165  1
  Te  Te142  1  0.59359022  0.91810035  0.41142490  1
  Te  Te143  1  0.60971642  0.90607792  0.76425148  1
  Te  Te144  1  0.89580430  0.24327062  0.06826090  1
  Te  Te145  1  0.92403771  0.26146294  0.40137522  1
  Te  Te146  1  0.91970614  0.24846313  0.74261403  1
  Te  Te147  1  0.88775492  0.50263827  0.12632106  1
  Te  Te148  1  0.89959605  0.55886385  0.41566041  1
  Te  Te149  1  0.91377373  0.58721840  0.75280552  1
  Te  Te150  1  0.90594989  0.94715167  0.07885972  1
  Te  Te151  1  0.92100072  0.92805868  0.40841398  1
  Te  Te152  1  0.91968731  0.91218303  0.78254907  1
  Te  Te153  1  0.25601889  0.09075790  0.22743813  1
  Te  Te154  1  0.24195659  0.08655944  0.60787043  1
  Te  Te155  1  0.23129286  0.08246555  0.91948600  1
  Te  Te156  1  0.25760488  0.40394987  0.24986446  1
  Te  Te157  1  0.25777641  0.41231117  0.59922303  1
  Te  Te158  1  0.24812166  0.43974122  0.90276903  1
  Te  Te159  1  0.26021218  0.75166481  0.25157282  1
  Te  Te160  1  0.24594999  0.73078160  0.58241483  1
  Te  Te161  1  0.25848448  0.72130327  0.92912768  1
  Te  Te162  1  0.59591807  0.07765460  0.25325536  1
  Te  Te163  1  0.61961985  0.06295479  0.62308347  1
  Te  Te164  1  0.58415465  0.10992761  0.92206808  1
  Te  Te165  1  0.60409203  0.41445657  0.24602754  1
  Te  Te166  1  0.57328101  0.43017305  0.60557665  1
  Te  Te167  1  0.56502744  0.40469967  0.89430672  1
  Te  Te168  1  0.59223597  0.75953035  0.25109699  1
  Te  Te169  1  0.57918677  0.74441719  0.58993218  1
  Te  Te170  1  0.59249946  0.74771484  0.88743424  1
  Te  Te171  1  0.91917997  0.07233645  0.24526717  1
  Te  Te172  1  0.90978390  0.08712961  0.59142048  1
  Te  Te173  1  0.92426126  0.06124450  0.92374094  1
  Te  Te174  1  0.95114969  0.43386368  0.23946386  1
  Te  Te175  1  0.93486591  0.39620863  0.58691090  1
  Te  Te176  1  0.90724433  0.42262191  0.91618216  1
  Te  Te177  1  0.92472068  0.74883822  0.23418718  1
  Te  Te178  1  0.91056056  0.76574603  0.61481800  1
  Te  Te179  1  0.91419896  0.73360577  0.92289999  1
