# generated using pymatgen
data_In2Te3
_symmetry_space_group_name_H-M   'P 1'
_cell_length_a   18.74911036
_cell_length_b   18.74203142
_cell_length_c   18.74506931
_cell_angle_alpha   90.00792732
_cell_angle_beta   90.13282380
_cell_angle_gamma   90.03256156
_symmetry_Int_Tables_number   1
_chemical_formula_structural   In2Te3
_chemical_formula_sum   'In72 Te108'
_cell_volume   6586.93133553
_cell_formula_units_Z   36
loop_
 _symmetry_equiv_pos_site_id
 _symmetry_equiv_pos_as_xyz
  1  'x, y, z'
loop_
 _atom_site_type_symbol
 _atom_site_label
 _atom_site_symmetry_multiplicity
 _atom_site_fract_x
 _atom_site_fract_y
 _atom_site_fract_z
 _atom_site_occupancy
  In  In0  1  0.33326339  0.15908465  0.50938264  1
  In  In1  1  0.65978455  -0.01710868  0.33593346  1
  In  In2  1  0.48986869  -0.00302747  0.18883569  1
  In  In3  1  0.67714685  0.16228417  0.80375499  1
  In  In4  1  0.82879978  -0.02237458  0.16426148  1
  In  In5  1  0.79510677  0.34988257  0.14381888  1
  In  In6  1  0.84241839  0.84273224  0.66083863  1
  In  In7  1  0.49019627  0.65811796  0.81743791  1
  In  In8  1  0.65720568  -0.02576326  -0.01047199  1
  In  In9  1  0.48970399  0.18527352  0.66380976  1
  In  In10  1  0.51432925  0.68075742  0.17317702  1
  In  In11  1  0.03640700  0.31015871  -0.02805342  1
  In  In12  1  0.01204882  0.15120669  0.13974880  1
  In  In13  1  0.20096460  -0.00184058  0.48203804  1
  In  In14  1  0.17218939  0.67236736  0.14299654  1
  In  In15  1  0.66168410  0.15268431  0.16439224  1
  In  In16  1  0.50284715  0.81532275  0.65648378  1
  In  In17  1  0.01378116  -0.04091023  0.33850936  1
  In  In18  1  0.02732274  0.35331387  0.34388908  1
  In  In19  1  0.33378059  0.84291961  0.16646777  1
  In  In20  1  0.32591202  -0.00134904  0.65974416  1
  In  In21  1  0.33118789  0.49138100  0.83215788  1
  In  In22  1  0.16872296  0.35102055  0.50468962  1
  In  In23  1  0.00914837  0.00677715  -0.01044947  1
  In  In24  1  0.18352022  0.49575071  0.33591018  1
  In  In25  1  0.80965701  0.34730330  0.52881163  1
  In  In26  1  -0.00029341  0.17559477  0.51291753  1
  In  In27  1  0.49495436  0.49841036  -0.00787786  1
  In  In28  1  0.62324207  0.29838323  0.36388979  1
  In  In29  1  0.14517500  0.50013441  0.66654691  1
  In  In30  1  0.47282425  0.16747655  0.00997423  1
  In  In31  1  -0.00953093  0.67194096  0.32985586  1
  In  In32  1  0.66404261  0.50664070  0.50409427  1
  In  In33  1  0.84708698  0.81265272  -0.01381545  1
  In  In34  1  0.34287716  0.49847975  0.50022831  1
  In  In35  1  0.17640446  0.84931597  0.32740058  1
  In  In36  1  0.31932775  0.51332369  0.16162121  1
  In  In37  1  0.16145313  0.81789863  0.67660157  1
  In  In38  1  0.84036824  0.51242199  0.34296921  1
  In  In39  1  0.84455704  0.34261480  0.83378659  1
  In  In40  1  0.01120378  0.00170372  0.68586247  1
  In  In41  1  0.66163016  0.36524252  -0.00073158  1
  In  In42  1  0.17045434  0.65482588  0.52498011  1
  In  In43  1  0.18144893  0.33155937  0.16720399  1
  In  In44  1  0.16037182  0.82652809  -0.00235830  1
  In  In45  1  0.16533304  0.00804799  0.84211826  1
  In  In46  1  0.46494212  0.29723138  0.19533317  1
  In  In47  1  0.67898991  0.83814791  0.84403653  1
  In  In48  1  -0.00005725  0.33899619  0.69519527  1
  In  In49  1  0.13802919  0.66886249  0.85073725  1
  In  In50  1  0.30933513  0.18171029  0.83393200  1
  In  In51  1  -0.01172654  0.50435412  0.14468268  1
  In  In52  1  0.48657780  0.84391830  0.01420398  1
  In  In53  1  0.85314730  0.51233482  0.68329017  1
  In  In54  1  0.69834178  0.66004106  -0.02770174  1
  In  In55  1  0.83732353  -0.01346419  0.50210584  1
  In  In56  1  0.84332254  0.67023260  0.15325040  1
  In  In57  1  -0.00895418  0.83173150  0.50857187  1
  In  In58  1  0.86181071  0.17592997  -0.01370754  1
  In  In59  1  0.83751810  0.15616166  0.33930921  1
  In  In60  1  0.49371743  0.49398880  0.66674201  1
  In  In61  1  0.31160927  0.33592291  -0.00856894  1
  In  In62  1  0.67758898  0.47795488  0.15114986  1
  In  In63  1  0.49492333  0.49367065  0.33823210  1
  In  In64  1  0.68040466  0.00293747  0.65345228  1
  In  In65  1  0.19143752  0.13917772  0.32302933  1
  In  In66  1  0.49014201  -0.01461709  0.85689331  1
  In  In67  1  0.68802303  0.70176730  0.34945875  1
  In  In68  1  0.66532262  0.33075790  0.65022010  1
  In  In69  1  0.50302532  0.01100423  0.48204186  1
  In  In70  1  0.33235238  0.68100666  0.65442670  1
  In  In71  1  0.66422812  0.67735372  0.65432101  1
  Te  Te72  1  0.11572985  0.09138287  0.05447804  1
  Te  Te73  1  0.07539835  0.08018923  0.41832131  1
  Te  Te74  1  0.08475319  0.10906080  0.76298290  1
  Te  Te75  1  0.09138258  0.41442526  0.07619430  1
  Te  Te76  1  0.07906103  0.45890183  0.44205619  1
  Te  Te77  1  0.08196392  0.42959352  0.78207539  1
  Te  Te78  1  0.06298863  0.75323610  0.08574464  1
  Te  Te79  1  0.09510084  0.75183184  0.42043066  1
  Te  Te80  1  0.05622330  0.74162361  0.74559663  1
  Te  Te81  1  0.39844935  0.06719761  0.09139578  1
  Te  Te82  1  0.41224933  0.09689346  0.39681229  1
  Te  Te83  1  0.41995876  0.07983975  0.75444048  1
  Te  Te84  1  0.41918140  0.41000774  0.09200152  1
  Te  Te85  1  0.41074872  0.39852234  0.41379063  1
  Te  Te86  1  0.41128272  0.40132101  0.74664632  1
  Te  Te87  1  0.40327984  0.73510472  0.08169224  1
  Te  Te88  1  0.36598666  0.71468265  0.46521307  1
  Te  Te89  1  0.40248707  0.77010194  0.76257074  1
  Te  Te90  1  0.76320203  0.08470724  0.07356281  1
  Te  Te91  1  0.74135197  0.08025172  0.42724118  1
  Te  Te92  1  0.76905988  0.05684962  0.75884313  1
  Te  Te93  1  0.78215706  0.45989572  0.03619607  1
  Te  Te94  1  0.73832880  0.41192297  0.40353267  1
  Te  Te95  1  0.74692558  0.42131867  0.74544268  1
  Te  Te96  1  0.73792316  0.75815396  0.08103138  1
  Te  Te97  1  0.78297576  0.77212502  0.43650896  1
  Te  Te98  1  0.75802165  0.74688286  0.75363280  1
  Te  Te99  1  0.08310994  0.24051240  0.25550007  1
  Te  Te100  1  0.09326465  0.25833336  0.59946785  1
  Te  Te101  1  0.11701525  0.22691942  0.87665728  1
  Te  Te102  1  0.08480037  0.57257556  0.24732324  1
  Te  Te103  1  0.05930013  0.61248564  0.61542499  1
  Te  Te104  1  0.04727382  0.58824141  0.93560710  1
  Te  Te105  1  0.10716404  0.93593576  0.22419959  1
  Te  Te106  1  0.09339590  0.92584260  0.57513547  1
  Te  Te107  1  0.07023662  0.90074608  0.89631110  1
  Te  Te108  1  0.38089759  0.19746595  0.26698271  1
  Te  Te109  1  0.39561130  0.26943409  0.58760879  1
  Te  Te110  1  0.41934839  0.26531200  0.90712572  1
  Te  Te111  1  0.41512688  0.59213845  0.25201386  1
  Te  Te112  1  0.43719785  0.60238812  0.57114765  1
  Te  Te113  1  0.39962798  0.59555665  0.92333760  1
  Te  Te114  1  0.41908848  0.89819388  0.27779084  1
  Te  Te115  1  0.42046455  0.91723532  0.57405056  1
  Te  Te116  1  0.38541693  0.92501065  0.94104364  1
  Te  Te117  1  0.74699242  0.24741525  0.25326980  1
  Te  Te118  1  0.75740764  0.22724800  0.59527648  1
  Te  Te119  1  0.74301495  0.25158100  0.92346224  1
  Te  Te120  1  0.74484389  0.58739644  0.24681886  1
  Te  Te121  1  0.76585695  0.58998683  0.57885648  1
  Te  Te122  1  0.77853929  0.56743787  0.89279055  1
  Te  Te123  1  0.74316343  0.89459219  0.24988904  1
  Te  Te124  1  0.73095780  0.89013882  0.56299953  1
  Te  Te125  1  0.77986680  0.93241985  0.91160963  1
  Te  Te126  1  0.24576952  0.23390917  0.07679498  1
  Te  Te127  1  0.24103530  0.24956275  0.41785442  1
  Te  Te128  1  0.21649922  0.27840572  0.77223105  1
  Te  Te129  1  0.23443647  0.57054633  0.05585839  1
  Te  Te130  1  0.26918400  0.60500102  0.40723776  1
  Te  Te131  1  0.24669152  0.59403125  0.74572897  1
  Te  Te132  1  0.22021613  0.91834932  0.10325927  1
  Te  Te133  1  0.29052000  0.92907431  0.38631622  1
  Te  Te134  1  0.25158865  0.91016411  0.75891780  1
  Te  Te135  1  0.58110584  0.25672000  0.08564294  1
  Te  Te136  1  0.55180174  0.21214975  0.45660234  1
  Te  Te137  1  0.57681673  0.26707414  0.76039303  1
  Te  Te138  1  0.59118066  0.58814825  0.07543080  1
  Te  Te139  1  0.58671790  0.59462792  0.40688745  1
  Te  Te140  1  0.59671976  0.57546347  0.74784309  1
  Te  Te141  1  0.58959187  0.90942786  0.10727217  1
  Te  Te142  1  0.57070837  0.89412431  0.41792101  1
  Te  Te143  1  0.58254815  0.92135616  0.74860803  1
  Te  Te144  1  0.92488703  0.26940723  0.08997315  1
  Te  Te145  1  0.91611082  0.26516661  0.41815605  1
  Te  Te146  1  0.90253792  0.23938656  0.74499163  1
  Te  Te147  1  0.94065284  0.61422146  0.04883278  1
  Te  Te148  1  0.91725821  0.59757384  0.43458820  1
  Te  Te149  1  0.90747328  0.59046900  0.80181101  1
  Te  Te150  1  0.93077393  0.90605672  0.07717546  1
  Te  Te151  1  0.88749926  0.88444487  0.39618297  1
  Te  Te152  1  0.92850756  0.90700535  0.76358787  1
  Te  Te153  1  0.28567816  0.08130390  0.22382035  1
  Te  Te154  1  0.22529073  0.09539315  0.59949386  1
  Te  Te155  1  0.26808384  0.07467363  0.92862489  1
  Te  Te156  1  0.27791703  0.40257930  0.26271272  1
  Te  Te157  1  0.26126868  0.42111034  0.60436634  1
  Te  Te158  1  0.22263411  0.42238688  0.90863523  1
  Te  Te159  1  0.25475299  0.74002221  0.25209447  1
  Te  Te160  1  0.26260208  0.78320118  0.55817015  1
  Te  Te161  1  0.24943822  0.74497251  0.91139194  1
  Te  Te162  1  0.57357069  0.09561763  0.27165626  1
  Te  Te163  1  0.58677196  0.10098058  0.57774885  1
  Te  Te164  1  0.58767872  0.09372681  0.92314489  1
  Te  Te165  1  0.58138838  0.40278571  0.24618506  1
  Te  Te166  1  0.56583320  0.40668771  0.56222062  1
  Te  Te167  1  0.58185430  0.43176967  0.89398210  1
  Te  Te168  1  0.57180531  0.76761949  0.27996120  1
  Te  Te169  1  0.57965499  0.74446695  0.55215722  1
  Te  Te170  1  0.57406823  0.75208646  0.91643456  1
  Te  Te171  1  0.92603353  0.07275801  0.24713591  1
  Te  Te172  1  0.91283412  0.08068283  0.59555331  1
  Te  Te173  1  0.93993599  0.09645516  0.89129647  1
  Te  Te174  1  0.91514267  0.41549552  0.24917924  1
  Te  Te175  1  0.92874877  0.42261252  0.58385614  1
  Te  Te176  1  0.94925820  0.41562092  0.91248476  1
  Te  Te177  1  0.92789084  0.76383896  0.23269203  1
  Te  Te178  1  0.92402670  0.73343555  0.59740415  1
  Te  Te179  1  0.92054637  0.71434061  0.90000986  1
