# generated using pymatgen
data_In2Te3
_symmetry_space_group_name_H-M   'P 1'
_cell_length_a   18.96681528
_cell_length_b   18.96923365
_cell_length_c   18.94777478
_cell_angle_alpha   89.87437727
_cell_angle_beta   89.89969872
_cell_angle_gamma   90.09287544
_symmetry_Int_Tables_number   1
_chemical_formula_structural   In2Te3
_chemical_formula_sum   'In72 Te108'
_cell_volume   6817.10733048
_cell_formula_units_Z   36
loop_
 _symmetry_equiv_pos_site_id
 _symmetry_equiv_pos_as_xyz
  1  'x, y, z'
loop_
 _atom_site_type_symbol
 _atom_site_label
 _atom_site_symmetry_multiplicity
 _atom_site_fract_x
 _atom_site_fract_y
 _atom_site_fract_z
 _atom_site_occupancy
  In  In0  1  0.65825396  0.46789794  0.78394396  1
  In  In1  1  0.34385335  0.50854022  0.49684096  1
  In  In2  1  0.51003873  -0.00428210  0.18514793  1
  In  In3  1  0.35535286  0.17974277  0.83193864  1
  In  In4  1  0.00598538  0.67801730  -0.02652937  1
  In  In5  1  0.51789788  0.65118343  0.83524577  1
  In  In6  1  0.16193169  0.51823663  0.64791569  1
  In  In7  1  0.65621614  0.64605625  0.01650204  1
  In  In8  1  0.65557211  0.32643471  0.00850994  1
  In  In9  1  0.84321166  0.17611019  0.33594964  1
  In  In10  1  0.82273441  0.83392459  0.31599725  1
  In  In11  1  0.82564096  0.32022544  0.16366054  1
  In  In12  1  0.66755341  0.82816331  0.82998649  1
  In  In13  1  0.17186439  0.33338659  0.82110550  1
  In  In14  1  0.68228362  0.01674976  0.02166835  1
  In  In15  1  0.01807287  0.51805761  0.15717934  1
  In  In16  1  0.52729484  0.16233689  0.00894711  1
  In  In17  1  0.47655147  0.17782583  0.63695259  1
  In  In18  1  0.79234684  0.48458264  0.36863113  1
  In  In19  1  0.48964827  -0.00969483  0.80122570  1
  In  In20  1  0.51282447  0.47448903  0.35354988  1
  In  In21  1  0.19617916  0.01924511  0.79266620  1
  In  In22  1  -0.06006214  0.50044389  0.52611997  1
  In  In23  1  0.01896214  0.01022070  0.32935825  1
  In  In24  1  0.68396365  0.15471556  0.81590409  1
  In  In25  1  -0.02358377  -0.02854833  -0.02469283  1
  In  In26  1  0.83864690  0.66768454  0.83443348  1
  In  In27  1  0.82387074  -0.00336834  0.50657487  1
  In  In28  1  0.50127589  0.81055745  0.66917586  1
  In  In29  1  0.82350901  -0.00103437  0.82292084  1
  In  In30  1  -0.00273279  0.34147295  0.33120066  1
  In  In31  1  0.18380501  0.01255453  0.16200743  1
  In  In32  1  0.15736824  0.67459461  0.83481889  1
  In  In33  1  -0.00405857  0.15846842  0.51297388  1
  In  In34  1  0.63840621  -0.03468696  0.37029324  1
  In  In35  1  0.16241929  0.69174963  0.50552735  1
  In  In36  1  0.81231453  0.63853892  0.18798222  1
  In  In37  1  0.19779512  0.32674732  0.47494301  1
  In  In38  1  0.35507463  0.00563813  0.36221392  1
  In  In39  1  0.35176074  0.65691982  0.02663412  1
  In  In40  1  -0.02379966  0.17587539  0.81554757  1
  In  In41  1  0.82272111  0.83704361  0.65731076  1
  In  In42  1  0.50184253  0.67263599  0.18984445  1
  In  In43  1  0.20569763  0.50203811  -0.00510520  1
  In  In44  1  0.82765792  0.48130506  -0.01384379  1
  In  In45  1  0.19458804  0.16422246  0.63874569  1
  In  In46  1  0.36997994  0.16946973  0.21030695  1
  In  In47  1  0.15977820  0.18585707  0.03446084  1
  In  In48  1  0.18826804  0.82759228  0.33496248  1
  In  In49  1  0.01036886  0.36447421  0.00113813  1
  In  In50  1  0.78393422  0.33260705  0.79097527  1
  In  In51  1  -0.01725421  0.83153293  0.14816082  1
  In  In52  1  0.20583765  0.32838378  0.20468778  1
  In  In53  1  0.34019070  0.83098362  0.50370736  1
  In  In54  1  0.62397479  0.33938039  0.63494887  1
  In  In55  1  0.00994313  0.82954041  0.81513407  1
  In  In56  1  0.16569392  0.47600307  0.32086855  1
  In  In57  1  0.02001250  0.18302198  0.16596468  1
  In  In58  1  0.32060901  0.00168996  -0.00531309  1
  In  In59  1  0.63951925  0.18472551  0.48274658  1
  In  In60  1  0.81160772  0.66717222  0.48329311  1
  In  In61  1  0.49611711  0.34394743  0.83298556  1
  In  In62  1  0.34807513  0.46558605  0.80784264  1
  In  In63  1  0.63444015  0.17321815  0.19603989  1
  In  In64  1  -0.01258040  0.50523612  0.80405044  1
  In  In65  1  0.34033383  0.68322974  0.36173688  1
  In  In66  1  0.15241294  0.84423493  0.00538200  1
  In  In67  1  0.01562255  0.86607026  0.52029384  1
  In  In68  1  0.30665312  0.84730654  0.81817237  1
  In  In69  1  0.49743886  0.66420772  0.50321784  1
  In  In70  1  0.66748708  0.83214210  0.16334227  1
  In  In71  1  0.46051467  0.47472154  0.03275302  1
  Te  Te72  1  0.07448750  0.06168552  0.06639581  1
  Te  Te73  1  0.09201188  0.09397879  0.42262301  1
  Te  Te74  1  0.08784264  0.10734660  0.73507524  1
  Te  Te75  1  0.11473429  0.40499956  0.10139280  1
  Te  Te76  1  0.07836220  0.41927783  0.43275852  1
  Te  Te77  1  0.08273490  0.41308513  0.72931267  1
  Te  Te78  1  0.08691220  0.73453957  0.08784770  1
  Te  Te79  1  0.07162726  0.76940607  0.41244406  1
  Te  Te80  1  0.08119760  0.73682150  0.72563858  1
  Te  Te81  1  0.41641893  0.07931300  0.08541834  1
  Te  Te82  1  0.42985922  0.07888705  0.46962528  1
  Te  Te83  1  0.39540025  0.07892363  0.72593107  1
  Te  Te84  1  0.35619123  0.44786475  0.13164483  1
  Te  Te85  1  0.45252423  0.40800082  0.47671889  1
  Te  Te86  1  0.44018025  0.40423412  0.71064398  1
  Te  Te87  1  0.43600137  0.75686814  0.08810936  1
  Te  Te88  1  0.44815137  0.78751891  0.39830485  1
  Te  Te89  1  0.41084935  0.74671483  0.77491111  1
  Te  Te90  1  0.73902413  0.12244315  0.10391730  1
  Te  Te91  1  0.74539911  0.08637548  0.41187338  1
  Te  Te92  1  0.75916042  0.07885615  0.71697416  1
  Te  Te93  1  0.73732549  0.42236715  0.09285628  1
  Te  Te94  1  0.73486528  0.38511942  0.46052081  1
  Te  Te95  1  0.79430961  0.46737059  0.71331678  1
  Te  Te96  1  0.75669318  0.73609584  0.08546794  1
  Te  Te97  1  0.72765955  0.74173172  0.38399236  1
  Te  Te98  1  0.74202776  0.73408332  0.73810544  1
  Te  Te99  1  0.10139378  0.24368014  0.27591357  1
  Te  Te100  1  0.09844920  0.26005414  0.57112442  1
  Te  Te101  1  0.08000517  0.25245037  0.91385627  1
  Te  Te102  1  0.08719801  0.58649854  0.26492015  1
  Te  Te103  1  0.06078981  0.59038117  0.56212013  1
  Te  Te104  1  0.08370049  0.55409420  0.91933759  1
  Te  Te105  1  0.08758889  0.91203484  0.23355965  1
  Te  Te106  1  0.10683040  0.92491902  0.61518917  1
  Te  Te107  1  0.10602782  0.93060778  0.88841325  1
  Te  Te108  1  0.44719636  0.25480468  0.30792576  1
  Te  Te109  1  0.37467222  0.21616392  0.52994072  1
  Te  Te110  1  0.42905659  0.25610086  0.93873225  1
  Te  Te111  1  0.42628708  0.58434561  0.28579729  1
  Te  Te112  1  0.39467274  0.60746456  0.59575527  1
  Te  Te113  1  0.41381331  0.56505621  0.91559009  1
  Te  Te114  1  0.41550127  0.91489545  0.26305866  1
  Te  Te115  1  0.43381081  0.91368545  0.58496304  1
  Te  Te116  1  0.41074522  0.91610789  0.90789004  1
  Te  Te117  1  0.73685550  0.26500701  0.27197109  1
  Te  Te118  1  0.73281284  0.25878880  0.57472601  1
  Te  Te119  1  0.74790528  0.24945844  0.91557267  1
  Te  Te120  1  0.72230206  0.54428424  0.25417198  1
  Te  Te121  1  0.77209251  0.56091899  0.58148291  1
  Te  Te122  1  0.74003084  0.57620604  0.90564203  1
  Te  Te123  1  0.73182269  0.93821464  0.25202136  1
  Te  Te124  1  0.73004011  0.89673924  0.55960253  1
  Te  Te125  1  0.74651460  0.91653885  0.92400987  1
  Te  Te126  1  0.27999647  0.24057756  0.10406264  1
  Te  Te127  1  0.30139485  0.26933156  0.38504845  1
  Te  Te128  1  0.27007200  0.25806817  0.73416568  1
  Te  Te129  1  0.25862818  0.57683012  0.11229538  1
  Te  Te130  1  0.23302335  0.58428061  0.41924635  1
  Te  Te131  1  0.24402687  0.57022938  0.76541240  1
  Te  Te132  1  0.26243154  0.90232802  0.09335587  1
  Te  Te133  1  0.24246690  0.92426510  0.43555864  1
  Te  Te134  1  0.23772332  0.91015888  0.69914716  1
  Te  Te135  1  0.55310394  0.27562027  0.11097618  1
  Te  Te136  1  0.54385020  0.28689605  0.43119330  1
  Te  Te137  1  0.57330357  0.23606043  0.74924041  1
  Te  Te138  1  0.56403910  0.56127753  0.10140689  1
  Te  Te139  1  0.59233553  0.57356881  0.43251131  1
  Te  Te140  1  0.57172695  0.56952399  0.72554294  1
  Te  Te141  1  0.57923166  0.91925179  0.07454094  1
  Te  Te142  1  0.55014017  0.88759724  0.46218907  1
  Te  Te143  1  0.59949020  0.91879598  0.73030773  1
  Te  Te144  1  0.92815902  0.25653934  0.06996500  1
  Te  Te145  1  0.91570907  0.26478286  0.43358746  1
  Te  Te146  1  0.89717285  0.25954488  0.72278389  1
  Te  Te147  1  0.91476087  0.58184536  0.05909687  1
  Te  Te148  1  0.90703272  0.57605538  0.39897695  1
  Te  Te149  1  0.94456543  0.62942659  0.73735119  1
  Te  Te150  1  0.89239340  0.92693269  0.08542282  1
  Te  Te151  1  0.91463040  0.92289019  0.40209952  1
  Te  Te152  1  0.92201256  0.92221532  0.73549857  1
  Te  Te153  1  0.25713134  0.08583428  0.27028485  1
  Te  Te154  1  0.28078229  0.09569276  0.53655242  1
  Te  Te155  1  0.24434880  0.10774672  0.91517334  1
  Te  Te156  1  0.29756511  0.41191514  0.28791459  1
  Te  Te157  1  0.25554853  0.41785136  0.58254124  1
  Te  Te158  1  0.27132368  0.38964267  0.92113107  1
  Te  Te159  1  0.26844067  0.74327212  0.24839207  1
  Te  Te160  1  0.27741966  0.72606322  0.59130777  1
  Te  Te161  1  0.24831915  0.74838073  0.93108788  1
  Te  Te162  1  0.56769798  0.07980076  0.29573188  1
  Te  Te163  1  0.57283595  0.08700421  0.57284668  1
  Te  Te164  1  0.58141994  0.06987065  0.90225035  1
  Te  Te165  1  0.53674900  0.36941731  0.25108936  1
  Te  Te166  1  0.64404993  0.46801831  0.55668520  1
  Te  Te167  1  0.58599706  0.42966823  0.91926679  1
  Te  Te168  1  0.60619924  0.74683499  0.26722395  1
  Te  Te169  1  0.59717695  0.74750884  0.57462401  1
  Te  Te170  1  0.58474463  0.74918489  0.93000534  1
  Te  Te171  1  0.92443026  0.09068422  0.24022280  1
  Te  Te172  1  0.90634572  0.07745124  0.59749086  1
  Te  Te173  1  0.90148175  0.09064542  0.91700820  1
  Te  Te174  1  0.92111241  0.42142730  0.22850699  1
  Te  Te175  1  0.90472038  0.39917911  0.62565551  1
  Te  Te176  1  0.91089985  0.39942141  0.88904231  1
  Te  Te177  1  0.91485605  0.73522583  0.24520824  1
  Te  Te178  1  0.90929227  0.76245106  0.55739141  1
  Te  Te179  1  0.90789392  0.77615018  0.91615651  1
