# generated using pymatgen
data_In2Te3
_symmetry_space_group_name_H-M   'P 1'
_cell_length_a   18.93242156
_cell_length_b   18.91355509
_cell_length_c   18.91651995
_cell_angle_alpha   90.11866543
_cell_angle_beta   89.88313885
_cell_angle_gamma   89.87436864
_symmetry_Int_Tables_number   1
_chemical_formula_structural   In2Te3
_chemical_formula_sum   'In72 Te108'
_cell_volume   6773.57111737
_cell_formula_units_Z   36
loop_
 _symmetry_equiv_pos_site_id
 _symmetry_equiv_pos_as_xyz
  1  'x, y, z'
loop_
 _atom_site_type_symbol
 _atom_site_label
 _atom_site_symmetry_multiplicity
 _atom_site_fract_x
 _atom_site_fract_y
 _atom_site_fract_z
 _atom_site_occupancy
  In  In0  1  0.50437336  0.17203742  -0.00755841  1
  In  In1  1  0.18500993  0.65167701  0.52380520  1
  In  In2  1  0.63767679  0.82845128  0.82647568  1
  In  In3  1  -0.00379095  0.66690845  0.34298933  1
  In  In4  1  0.67691900  0.66457223  0.01774896  1
  In  In5  1  -0.00090025  0.16362988  0.51413544  1
  In  In6  1  0.64785381  0.34647189  -0.00954936  1
  In  In7  1  0.14792530  0.81154766  0.67440941  1
  In  In8  1  0.84262647  0.50783574  0.01065008  1
  In  In9  1  -0.04794627  0.14626072  0.85934164  1
  In  In10  1  0.83650000  0.32020462  0.85253963  1
  In  In11  1  0.15878774  0.00810907  0.13762336  1
  In  In12  1  0.67392299  0.67197688  0.34993144  1
  In  In13  1  0.68436680  -0.01913358  0.67856331  1
  In  In14  1  0.33254620  0.31259215  0.68407613  1
  In  In15  1  0.33707381  -0.02327861  0.65673792  1
  In  In16  1  0.34796678  0.46823259  0.12871279  1
  In  In17  1  0.50027543  0.16743664  0.30939619  1
  In  In18  1  -0.00101230  0.31279834  0.01616442  1
  In  In19  1  0.64621254  0.49106935  0.76772013  1
  In  In20  1  0.66173002  0.00057841  0.33135458  1
  In  In21  1  0.16489323  -0.00455652  0.47561775  1
  In  In22  1  0.82095711  -0.00293014  0.48425071  1
  In  In23  1  0.02780825  0.63269307  -0.02231380  1
  In  In24  1  0.17031858  0.84360331  0.32534797  1
  In  In25  1  0.50925520  0.82893890  -0.00942241  1
  In  In26  1  0.34466379  0.19198799  0.83353214  1
  In  In27  1  0.51516355  0.66332415  0.18589415  1
  In  In28  1  0.32296141  0.00465637  0.33325750  1
  In  In29  1  0.67294312  0.50561295  0.17804190  1
  In  In30  1  0.32909412  0.20526622  0.15930082  1
  In  In31  1  0.16320656  0.65608746  0.15167629  1
  In  In32  1  0.84629340  0.50800850  0.35311134  1
  In  In33  1  0.33305210  0.84860995  0.16891586  1
  In  In34  1  0.50237860  0.67570589  0.51513766  1
  In  In35  1  0.82564300  0.83376281  -0.00090243  1
  In  In36  1  0.01092218  0.83961926  0.83169275  1
  In  In37  1  -0.02329170  0.13996228  0.14645463  1
  In  In38  1  0.34537721  -0.01164495  -0.02016217  1
  In  In39  1  0.57085444  0.34625396  0.53350330  1
  In  In40  1  0.16329002  0.34430771  0.48186586  1
  In  In41  1  0.51770187  -0.01148588  0.52217200  1
  In  In42  1  0.80841982  0.33158670  0.52170770  1
  In  In43  1  0.67917795  0.01104949  -0.00115253  1
  In  In44  1  -0.01269770  0.49454675  0.16825727  1
  In  In45  1  0.51896713  -0.00173788  0.14280953  1
  In  In46  1  0.67795028  0.32819273  0.34325874  1
  In  In47  1  0.49623438  0.32072142  0.83599143  1
  In  In48  1  -0.00045418  0.67454950  0.68401973  1
  In  In49  1  0.00143145  0.34316983  0.33462249  1
  In  In50  1  0.48522757  0.49009797  0.33615538  1
  In  In51  1  0.00340315  0.82789840  0.13682139  1
  In  In52  1  0.16327545  0.49933174  0.67840840  1
  In  In53  1  -0.01732929  0.81566129  0.51185600  1
  In  In54  1  0.00034572  0.34460619  0.67686309  1
  In  In55  1  0.51700438  0.14522548  0.68158431  1
  In  In56  1  0.31428184  0.68023990  -0.04355407  1
  In  In57  1  0.32863150  0.17357524  0.49025772  1
  In  In58  1  0.82105935  0.84178845  0.33478564  1
  In  In59  1  0.36841863  0.68959114  0.70638731  1
  In  In60  1  0.34272154  0.50881743  0.49196845  1
  In  In61  1  0.17451956  0.34602361  0.16000943  1
  In  In62  1  0.15387302  0.18591998  0.34510322  1
  In  In63  1  0.84172219  0.16374218  0.31517599  1
  In  In64  1  0.33766454  0.49461604  0.85093039  1
  In  In65  1  0.82835138  0.52319233  0.65061264  1
  In  In66  1  0.65230166  0.13683115  0.83020338  1
  In  In67  1  0.81332268  0.67180920  0.82721357  1
  In  In68  1  0.50351618  0.81840343  0.35936310  1
  In  In69  1  0.18717820  0.17500432  0.70169736  1
  In  In70  1  0.15807157  0.00799224  0.82967398  1
  In  In71  1  -0.03490216  -0.00256142  0.65914623  1
  Te  Te72  1  0.08636531  0.10440538  0.05352777  1
  Te  Te73  1  0.06120490  0.07972587  0.40209723  1
  Te  Te74  1  0.06377327  0.08612219  0.73621954  1
  Te  Te75  1  0.08443066  0.43069222  0.07207896  1
  Te  Te76  1  0.07648319  0.43997903  0.41406216  1
  Te  Te77  1  0.06929704  0.43374288  0.77181611  1
  Te  Te78  1  0.09966816  0.74754484  0.04930970  1
  Te  Te79  1  0.09827236  0.75517461  0.42856093  1
  Te  Te80  1  0.10545374  0.71487706  0.78806451  1
  Te  Te81  1  0.40445142  0.08364111  0.08999954  1
  Te  Te82  1  0.42705180  0.07553216  0.42224671  1
  Te  Te83  1  0.40405233  0.07443616  0.75311701  1
  Te  Te84  1  0.44446046  0.37722429  0.06459820  1
  Te  Te85  1  0.44713983  0.40535856  0.45595129  1
  Te  Te86  1  0.42360410  0.41606755  0.74301345  1
  Te  Te87  1  0.42676991  0.75384644  0.09561602  1
  Te  Te88  1  0.41035217  0.71818205  0.40674293  1
  Te  Te89  1  0.45345938  0.80065853  0.75806561  1
  Te  Te90  1  0.77633314  0.10737166  0.05615556  1
  Te  Te91  1  0.74012812  0.10326708  0.41164543  1
  Te  Te92  1  0.76447435  0.07454154  0.75971385  1
  Te  Te93  1  0.74994249  0.41345952  0.08383884  1
  Te  Te94  1  0.74049371  0.43532891  0.43379135  1
  Te  Te95  1  0.77688671  0.41571939  0.74823615  1
  Te  Te96  1  0.76258219  0.74805777  0.10053932  1
  Te  Te97  1  0.77675203  0.73846945  0.43277095  1
  Te  Te98  1  0.72743431  0.74968356  0.73463704  1
  Te  Te99  1  0.06824304  0.24882535  0.23610684  1
  Te  Te100  1  0.09968989  0.25253624  0.58651591  1
  Te  Te101  1  0.06232358  0.22661578  0.91216347  1
  Te  Te102  1  0.08208333  0.57720527  0.25334803  1
  Te  Te103  1  0.06938060  0.57917435  0.58786835  1
  Te  Te104  1  0.12674348  0.53885839  0.91910463  1
  Te  Te105  1  0.07975034  0.92214709  0.23497243  1
  Te  Te106  1  0.08530785  0.92230315  0.58316185  1
  Te  Te107  1  0.07103444  0.93601078  0.92379244  1
  Te  Te108  1  0.41705552  0.27374452  0.25298838  1
  Te  Te109  1  0.42412938  0.23133812  0.59304034  1
  Te  Te110  1  0.39728791  0.28296702  0.94761701  1
  Te  Te111  1  0.40706201  0.57063891  0.23550196  1
  Te  Te112  1  0.41416008  0.58541627  0.60059382  1
  Te  Te113  1  0.42614319  0.59990791  0.90544350  1
  Te  Te114  1  0.43482977  0.92702480  0.25500001  1
  Te  Te115  1  0.42287439  0.89012088  0.57484299  1
  Te  Te116  1  0.40753012  0.88185447  0.89473048  1
  Te  Te117  1  0.75203519  0.25244376  0.24145131  1
  Te  Te118  1  0.69052686  0.27722034  0.59104358  1
  Te  Te119  1  0.72788217  0.23807809  0.91879230  1
  Te  Te120  1  0.76707447  0.59459728  0.25503742  1
  Te  Te121  1  0.70288501  0.59042248  0.59955975  1
  Te  Te122  1  0.74234577  0.56950551  0.91445074  1
  Te  Te123  1  0.76501688  0.94323723  0.24065683  1
  Te  Te124  1  0.74966784  0.90346808  0.57152360  1
  Te  Te125  1  0.74339585  0.91271374  0.90001716  1
  Te  Te126  1  0.23381625  0.25372508  0.06104080  1
  Te  Te127  1  0.26761204  0.27385644  0.39445012  1
  Te  Te128  1  0.22887916  0.28906305  0.79459982  1
  Te  Te129  1  0.26862458  0.58756023  0.06726845  1
  Te  Te130  1  0.24024352  0.57505158  0.41190878  1
  Te  Te131  1  0.26342762  0.58512692  0.75023579  1
  Te  Te132  1  0.24459050  0.90754413  0.06096514  1
  Te  Te133  1  0.27196778  0.89799167  0.42771878  1
  Te  Te134  1  0.24153293  0.90575581  0.75233389  1
  Te  Te135  1  0.56973631  0.26287963  0.08793496  1
  Te  Te136  1  0.57727505  0.24109383  0.41631226  1
  Te  Te137  1  0.59942538  0.25620708  0.74811062  1
  Te  Te138  1  0.57444095  0.56938277  0.08232563  1
  Te  Te139  1  0.57665486  0.58004463  0.41853947  1
  Te  Te140  1  0.59572459  0.62681274  0.71400732  1
  Te  Te141  1  0.61182383  0.89852264  0.07958813  1
  Te  Te142  1  0.60637834  0.90122190  0.43368830  1
  Te  Te143  1  0.55855784  0.91696919  0.73417721  1
  Te  Te144  1  0.88646630  0.23798022  0.07913296  1
  Te  Te145  1  0.91319930  0.26017660  0.42897951  1
  Te  Te146  1  0.91012173  0.24333199  0.74314009  1
  Te  Te147  1  0.92534338  0.60744792  0.08875379  1
  Te  Te148  1  0.90022728  0.61370654  0.44279642  1
  Te  Te149  1  0.91576579  0.57658398  0.76437373  1
  Te  Te150  1  0.92448308  0.92952230  0.06010962  1
  Te  Te151  1  0.93076320  0.91731181  0.41432498  1
  Te  Te152  1  0.90515385  0.89166131  0.74238515  1
  Te  Te153  1  0.23610797  0.09296837  0.24869285  1
  Te  Te154  1  0.24324575  0.08403158  0.57909731  1
  Te  Te155  1  0.25727862  0.09030153  0.91090283  1
  Te  Te156  1  0.26237735  0.42750965  0.24247541  1
  Te  Te157  1  0.25575633  0.40740563  0.58763821  1
  Te  Te158  1  0.23075561  0.42588433  0.92311865  1
  Te  Te159  1  0.25132780  0.74494969  0.24369025  1
  Te  Te160  1  0.26675845  0.74940262  0.60263663  1
  Te  Te161  1  0.23025182  0.76107034  0.87019519  1
  Te  Te162  1  0.60243728  0.09517478  0.22358300  1
  Te  Te163  1  0.61442768  0.08535970  0.58298724  1
  Te  Te164  1  0.55638138  0.05439339  0.91511769  1
  Te  Te165  1  0.58386653  0.41017410  0.25315281  1
  Te  Te166  1  0.60390240  0.46655789  0.62173158  1
  Te  Te167  1  0.57541310  0.43832981  0.89392154  1
  Te  Te168  1  0.60145448  0.76717606  0.25470512  1
  Te  Te169  1  0.60557664  0.73588587  0.60597951  1
  Te  Te170  1  0.57997925  0.71772270  0.91356895  1
  Te  Te171  1  0.89793130  0.05095448  0.23592663  1
  Te  Te172  1  0.88158562  0.10026308  0.58363183  1
  Te  Te173  1  0.88600849  0.05729105  0.95895137  1
  Te  Te174  1  0.89392908  0.40682630  0.24836265  1
  Te  Te175  1  0.91823579  0.42104093  0.57489228  1
  Te  Te176  1  0.92793348  0.41586973  0.92569789  1
  Te  Te177  1  0.92476068  0.76199558  0.25029575  1
  Te  Te178  1  0.89815238  0.76128757  0.61930171  1
  Te  Te179  1  0.92086215  0.73784266  0.91571849  1
