# generated using pymatgen
data_In2Te3
_symmetry_space_group_name_H-M   'P 1'
_cell_length_a   18.97470647
_cell_length_b   18.96898057
_cell_length_c   18.96294394
_cell_angle_alpha   90.05954053
_cell_angle_beta   89.86363248
_cell_angle_gamma   90.04338523
_symmetry_Int_Tables_number   1
_chemical_formula_structural   In2Te3
_chemical_formula_sum   'In72 Te108'
_cell_volume   6825.32335003
_cell_formula_units_Z   36
loop_
 _symmetry_equiv_pos_site_id
 _symmetry_equiv_pos_as_xyz
  1  'x, y, z'
loop_
 _atom_site_type_symbol
 _atom_site_label
 _atom_site_symmetry_multiplicity
 _atom_site_fract_x
 _atom_site_fract_y
 _atom_site_fract_z
 _atom_site_occupancy
  In  In0  1  0.16473530  0.17119843  0.66382153  1
  In  In1  1  0.15782767  -0.01541770  0.83877034  1
  In  In2  1  0.33217013  0.50128536  0.81935544  1
  In  In3  1  0.15522495  0.00734565  0.18538554  1
  In  In4  1  0.17740174  -0.02384210  0.47451009  1
  In  In5  1  0.15414033  0.49663631  0.03707484  1
  In  In6  1  0.48624737  0.67967404  0.50519967  1
  In  In7  1  0.67119544  0.49526154  0.16945791  1
  In  In8  1  0.16992375  0.65395326  0.83070386  1
  In  In9  1  0.03064819  0.67504878  0.34134709  1
  In  In10  1  0.66662159  0.50023537  0.84663244  1
  In  In11  1  0.50018274  0.00821686  0.82052222  1
  In  In12  1  0.00142813  0.51098472  0.47454127  1
  In  In13  1  0.84265816  -0.01540906  0.82690536  1
  In  In14  1  0.17535463  0.67951755  0.50857306  1
  In  In15  1  0.83230846  0.33431254  0.47770481  1
  In  In16  1  0.83525677  0.16632328  0.65336924  1
  In  In17  1  -0.01235992  0.16708618  0.17967330  1
  In  In18  1  0.34226204  0.14696123  0.83557220  1
  In  In19  1  -0.00860002  -0.00983438  0.31882312  1
  In  In20  1  0.31908627  0.14259864  0.17790193  1
  In  In21  1  -0.03742346  0.16248873  0.46424670  1
  In  In22  1  0.84149340  0.85004412  0.02095885  1
  In  In23  1  0.50261965  0.68418241  0.83336121  1
  In  In24  1  0.50329440  0.51928269  0.36536410  1
  In  In25  1  0.66852036  0.65843861  -0.00276254  1
  In  In26  1  0.50954753  0.48931362  -0.01860287  1
  In  In27  1  0.33358022  0.53265275  0.18408562  1
  In  In28  1  0.68368897  0.00785666  0.33384267  1
  In  In29  1  0.49446885  0.79865135  0.08095868  1
  In  In30  1  0.33706704  0.35091783  0.64943873  1
  In  In31  1  0.50394956  0.17690870  0.31911271  1
  In  In32  1  0.69353339  0.33019361  0.01599332  1
  In  In33  1  0.31859784  0.32472694  0.01483919  1
  In  In34  1  0.50874694  0.16806746  0.00080440  1
  In  In35  1  0.16606983  0.31356432  0.18306198  1
  In  In36  1  0.31197358  0.69234176  0.34225235  1
  In  In37  1  -0.01659577  0.67454312  0.01855936  1
  In  In38  1  0.33274499  0.84354616  0.82832789  1
  In  In39  1  -0.00742138  0.48465251  0.82913729  1
  In  In40  1  0.82105478  0.00499433  0.49155094  1
  In  In41  1  0.82544455  0.33362005  0.85218584  1
  In  In42  1  0.18361486  0.83171465  0.65900917  1
  In  In43  1  0.83777457  0.51988810  0.65028483  1
  In  In44  1  0.32553984  0.00988899  -0.02237491  1
  In  In45  1  -0.00903764  0.49347714  0.22846459  1
  In  In46  1  0.82116074  0.66267763  0.85085439  1
  In  In47  1  0.51432842  0.35567391  0.48523806  1
  In  In48  1  0.70187253  0.00548487  0.03335056  1
  In  In49  1  0.01021903  0.15361858  0.84973198  1
  In  In50  1  0.00875675  0.70124545  0.65113012  1
  In  In51  1  0.68682563  0.34466317  0.31690084  1
  In  In52  1  0.33638005  0.16925267  0.49183961  1
  In  In53  1  0.82546103  0.65203072  0.18248199  1
  In  In54  1  0.67774645  0.66230361  0.64493935  1
  In  In55  1  0.49103764  0.50459236  0.64125363  1
  In  In56  1  0.53112324  0.33786093  0.13237713  1
  In  In57  1  0.16173528  0.33840775  0.48806486  1
  In  In58  1  0.00245129  0.83808245  0.15447651  1
  In  In59  1  0.67470579  0.18477842  0.83062216  1
  In  In60  1  0.82289100  0.83136507  0.66335425  1
  In  In61  1  0.01857085  0.33324011  0.67756107  1
  In  In62  1  0.17774950  0.83660389  0.01102900  1
  In  In63  1  0.65111266  0.33197163  0.66372198  1
  In  In64  1  0.50817423  -0.02711466  0.47871115  1
  In  In65  1  0.64610927  -0.00640160  0.64626930  1
  In  In66  1  0.48071172  -0.02913189  0.20067614  1
  In  In67  1  0.63764772  0.83746628  0.24416356  1
  In  In68  1  0.14800604  0.31843204  0.84570283  1
  In  In69  1  0.48270929  0.85572402  0.66234680  1
  In  In70  1  0.35230574  0.33640752  0.33068919  1
  In  In71  1  0.81618678  0.81208947  0.35715267  1
  Te  Te72  1  0.05955556  0.06906155  0.09164707  1
  Te  Te73  1  0.07436291  0.07641273  0.41288469  1
  Te  Te74  1  0.07759839  0.07428362  0.74028214  1
  Te  Te75  1  0.06715348  0.40693056  0.11817974  1
  Te  Te76  1  0.08431946  0.42067977  0.39427393  1
  Te  Te77  1  0.10921302  0.43019353  0.74904162  1
  Te  Te78  1  0.09735940  0.73576599  0.09535374  1
  Te  Te79  1  0.08276163  0.77331133  0.43911020  1
  Te  Te80  1  0.09139818  0.76377606  0.76120908  1
  Te  Te81  1  0.42319455  0.07375386  0.08402687  1
  Te  Te82  1  0.42477313  0.08278510  0.40470599  1
  Te  Te83  1  0.41777382  0.08389041  0.72785850  1
  Te  Te84  1  0.40960268  0.42691710  0.08192399  1
  Te  Te85  1  0.39583762  0.43684147  0.43368040  1
  Te  Te86  1  0.43471130  0.41387956  0.74923261  1
  Te  Te87  1  0.36146216  0.73326197  0.08770797  1
  Te  Te88  1  0.41795817  0.77226281  0.41034902  1
  Te  Te89  1  0.40579394  0.74687702  0.73694516  1
  Te  Te90  1  0.79897122  0.05472290  0.13210618  1
  Te  Te91  1  0.77051807  0.10875163  0.39927565  1
  Te  Te92  1  0.74305319  0.07975563  0.73728841  1
  Te  Te93  1  0.77724344  0.41129991  0.10774838  1
  Te  Te94  1  0.74651579  0.43381286  0.41543485  1
  Te  Te95  1  0.75657105  0.42340613  0.74413619  1
  Te  Te96  1  0.75226423  0.74548095  0.08866228  1
  Te  Te97  1  0.70030627  0.72152694  0.37324477  1
  Te  Te98  1  0.73591940  0.74444724  0.75971853  1
  Te  Te99  1  0.09280007  0.22010307  0.26847048  1
  Te  Te100  1  0.06423058  0.23779781  0.56791982  1
  Te  Te101  1  0.05152489  0.26309049  0.94008154  1
  Te  Te102  1  0.10131707  0.59007287  0.24523211  1
  Te  Te103  1  0.07543850  0.58494999  0.58565484  1
  Te  Te104  1  0.07260046  0.57960074  0.92959746  1
  Te  Te105  1  0.09395231  0.89167470  0.26186593  1
  Te  Te106  1  0.08903916  0.89325584  0.56052551  1
  Te  Te107  1  0.07722828  0.90439822  0.92923140  1
  Te  Te108  1  0.41768586  0.25245255  0.21653464  1
  Te  Te109  1  0.42921768  0.26099356  0.56959238  1
  Te  Te110  1  0.41371881  0.25371846  0.91966489  1
  Te  Te111  1  0.42954151  0.60876781  0.26884778  1
  Te  Te112  1  0.39372270  0.58773139  0.57416674  1
  Te  Te113  1  0.41723346  0.58690089  0.91336547  1
  Te  Te114  1  0.38764066  0.88022894  0.27591197  1
  Te  Te115  1  0.39808636  0.91387400  0.55789915  1
  Te  Te116  1  0.42927888  0.91605683  0.92031530  1
  Te  Te117  1  0.77008063  0.26873172  0.22170034  1
  Te  Te118  1  0.74246230  0.25118348  0.57211454  1
  Te  Te119  1  0.77321586  0.22157682  0.94027166  1
  Te  Te120  1  0.72849686  0.58528729  0.27269395  1
  Te  Te121  1  0.78477538  0.61702061  0.55296360  1
  Te  Te122  1  0.76810119  0.55524996  0.94409745  1
  Te  Te123  1  0.76892358  0.90916637  0.24956017  1
  Te  Te124  1  0.73424214  0.90380004  0.56204923  1
  Te  Te125  1  0.74548915  0.91205185  0.92172542  1
  Te  Te126  1  0.23227278  0.22012371  0.08094349  1
  Te  Te127  1  0.24883229  0.24920734  0.39886952  1
  Te  Te128  1  0.25588547  0.25667933  0.75032659  1
  Te  Te129  1  0.26074315  0.59417710  0.07056847  1
  Te  Te130  1  0.22338561  0.59074370  0.40012180  1
  Te  Te131  1  0.26110282  0.59441375  0.73309003  1
  Te  Te132  1  0.25792248  0.93754284  0.09066318  1
  Te  Te133  1  0.26990708  0.92601032  0.36921644  1
  Te  Te134  1  0.26095758  0.93957883  0.73858989  1
  Te  Te135  1  0.61645039  0.22041086  0.09418545  1
  Te  Te136  1  0.59705216  0.25545191  0.40665014  1
  Te  Te137  1  0.57214414  0.23761015  0.74201812  1
  Te  Te138  1  0.57493474  0.57701250  0.08490485  1
  Te  Te139  1  0.59918799  0.61066253  0.43185324  1
  Te  Te140  1  0.58542376  0.58397735  0.75055246  1
  Te  Te141  1  0.59338196  0.92173480  0.10037945  1
  Te  Te142  1  0.59163435  0.89522584  0.38045753  1
  Te  Te143  1  0.59128007  0.90544693  0.75655620  1
  Te  Te144  1  0.89498799  0.27479465  0.13155663  1
  Te  Te145  1  0.93205716  0.28098487  0.37789155  1
  Te  Te146  1  0.91471192  0.25082195  0.75280302  1
  Te  Te147  1  0.92551073  0.56820041  0.10723737  1
  Te  Te148  1  0.91733226  0.59166348  0.38617143  1
  Te  Te149  1  0.92086567  0.59775814  0.75374024  1
  Te  Te150  1  0.93137877  0.95027074  0.08622353  1
  Te  Te151  1  0.91410499  0.90831532  0.42132687  1
  Te  Te152  1  0.92464249  0.90681031  0.73552606  1
  Te  Te153  1  0.25553814  0.06240441  0.28449361  1
  Te  Te154  1  0.24236653  0.08133636  0.57061025  1
  Te  Te155  1  0.22218571  0.10056810  0.91519983  1
  Te  Te156  1  0.25655239  0.41956260  0.24844660  1
  Te  Te157  1  0.23166314  0.42502906  0.58263158  1
  Te  Te158  1  0.24073693  0.42076501  0.92626934  1
  Te  Te159  1  0.28729105  0.77150541  0.21600753  1
  Te  Te160  1  0.27689275  0.77497675  0.56051570  1
  Te  Te161  1  0.25692130  0.74666229  0.91511731  1
  Te  Te162  1  0.58535452  0.07731948  0.24007212  1
  Te  Te163  1  0.58104568  0.07924801  0.54899785  1
  Te  Te164  1  0.59848937  0.07674324  0.91879943  1
  Te  Te165  1  0.55791934  0.42176689  0.25538503  1
  Te  Te166  1  0.60827130  0.44214178  0.56893375  1
  Te  Te167  1  0.59427433  0.38427919  0.91279469  1
  Te  Te168  1  0.54523645  0.73175371  0.20360298  1
  Te  Te169  1  0.58270747  0.76373536  0.58794032  1
  Te  Te170  1  0.57058655  0.75854556  0.94359920  1
  Te  Te171  1  0.88708436  0.08235447  0.25908670  1
  Te  Te172  1  0.92621839  0.07004921  0.58154039  1
  Te  Te173  1  0.90540984  0.07939881  0.91929781  1
  Te  Te174  1  0.89605974  0.38157137  0.26320680  1
  Te  Te175  1  0.92247861  0.40924806  0.58691199  1
  Te  Te176  1  0.92722423  0.40270795  0.93126942  1
  Te  Te177  1  0.91611711  0.75431490  0.24954159  1
  Te  Te178  1  0.89752254  0.74487922  0.56636619  1
  Te  Te179  1  0.91431902  0.76159403  0.91693881  1
