# generated using pymatgen
data_In2Te3
_symmetry_space_group_name_H-M   'P 1'
_cell_length_a   18.80180606
_cell_length_b   18.80964298
_cell_length_c   18.81150771
_cell_angle_alpha   89.97493669
_cell_angle_beta   90.00716963
_cell_angle_gamma   89.89211978
_symmetry_Int_Tables_number   1
_chemical_formula_structural   In2Te3
_chemical_formula_sum   'In72 Te108'
_cell_volume   6652.77615402
_cell_formula_units_Z   36
loop_
 _symmetry_equiv_pos_site_id
 _symmetry_equiv_pos_as_xyz
  1  'x, y, z'
loop_
 _atom_site_type_symbol
 _atom_site_label
 _atom_site_symmetry_multiplicity
 _atom_site_fract_x
 _atom_site_fract_y
 _atom_site_fract_z
 _atom_site_occupancy
  In  In0  1  0.20062680  0.17906257  0.65943381  1
  In  In1  1  0.85059644  0.13079592  0.66099259  1
  In  In2  1  0.82410276  0.34928539  0.85059320  1
  In  In3  1  0.31782431  0.00852011  0.68654692  1
  In  In4  1  0.50310001  0.35729674  0.49223338  1
  In  In5  1  0.82573697  0.86506052  -0.01385715  1
  In  In6  1  0.84353464  0.50411057  0.34451971  1
  In  In7  1  0.63606864  0.16239126  0.82566995  1
  In  In8  1  0.85275705  0.33909679  0.48565319  1
  In  In9  1  0.17133883  0.83920842  0.00499134  1
  In  In10  1  -0.00916207  0.67404846  0.00869377  1
  In  In11  1  0.67658020  0.16379570  0.17352219  1
  In  In12  1  0.63635820  0.35101725  0.33021127  1
  In  In13  1  0.82870481  0.51420140  0.01952697  1
  In  In14  1  0.00688077  0.83664872  0.49905545  1
  In  In15  1  0.49244225  0.84012129  -0.00895530  1
  In  In16  1  0.64096958  0.66204460  0.34068902  1
  In  In17  1  0.17351617  0.65535736  0.19992862  1
  In  In18  1  0.01686604  -0.00854555  0.32497285  1
  In  In19  1  0.85277305  -0.00456337  0.17434511  1
  In  In20  1  0.01117174  0.17182526  0.82563584  1
  In  In21  1  0.01570271  0.00184424  0.00970337  1
  In  In22  1  -0.00270980  0.65800183  0.34847523  1
  In  In23  1  0.66330504  0.36290596  -0.00093163  1
  In  In24  1  0.64190737  -0.02880597  0.35044176  1
  In  In25  1  0.86159066  0.19333645  0.00603693  1
  In  In26  1  0.65058765  0.79348159  0.18439660  1
  In  In27  1  0.49216204  -0.01666779  0.17214423  1
  In  In28  1  0.67103501  0.17987860  0.49485947  1
  In  In29  1  0.49500283  0.80853654  0.63614049  1
  In  In30  1  0.17312859  0.50399618  0.64566762  1
  In  In31  1  0.83371309  -0.01608449  0.53895724  1
  In  In32  1  0.33162359  0.34423938  0.68526684  1
  In  In33  1  0.01511676  0.35355820  0.67242178  1
  In  In34  1  0.82325130  0.49966183  0.65117183  1
  In  In35  1  0.20614685  0.15729445  -0.01765501  1
  In  In36  1  0.64643458  0.53028294  0.51135300  1
  In  In37  1  0.47715653  0.14026056  0.67675579  1
  In  In38  1  0.33095021  0.83120400  0.18197800  1
  In  In39  1  0.49244897  0.50025741  0.01271113  1
  In  In40  1  0.84036061  0.16300590  0.33981949  1
  In  In41  1  0.50048234  -0.02042988  0.50301701  1
  In  In42  1  0.34763855  0.52677994  0.19568475  1
  In  In43  1  0.01445651  0.82705327  0.84038517  1
  In  In44  1  0.02598828  -0.00500082  0.65512252  1
  In  In45  1  0.80977610  0.81857001  0.67771356  1
  In  In46  1  0.63759439  0.33432822  0.64211344  1
  In  In47  1  0.00103749  0.49001511  0.79642543  1
  In  In48  1  0.01785889  0.32818023  0.02227803  1
  In  In49  1  0.31832672  0.16132665  0.17335957  1
  In  In50  1  0.22479746  0.66609393  0.48178192  1
  In  In51  1  0.46452932  0.19010767  -0.02128995  1
  In  In52  1  0.64682948  0.65948256  -0.00142171  1
  In  In53  1  0.16796465  0.48841987  -0.01627941  1
  In  In54  1  0.32797855  0.34071826  0.31960613  1
  In  In55  1  -0.00089261  0.65785148  0.66138616  1
  In  In56  1  0.64920673  -0.03671596  0.68057333  1
  In  In57  1  0.16783590  0.65837896  0.80211350  1
  In  In58  1  0.67509395  -0.00292369  -0.02495391  1
  In  In59  1  0.02422249  0.34370543  0.32660065  1
  In  In60  1  0.36493250  0.84354510  0.80154607  1
  In  In61  1  0.16091801  0.01132554  0.17089330  1
  In  In62  1  0.63158614  0.52467768  0.81293723  1
  In  In63  1  0.82568622  0.80809894  0.33362006  1
  In  In64  1  0.34029643  0.67787419  -0.00595162  1
  In  In65  1  0.82149731  -0.03125970  0.85155846  1
  In  In66  1  0.31983581  0.51086284  0.82947639  1
  In  In67  1  0.83651429  0.66347768  0.17592683  1
  In  In68  1  0.49844407  0.33606000  0.16450804  1
  In  In69  1  0.35624339  0.14717138  0.49743178  1
  In  In70  1  0.16345296  0.16240624  0.32967699  1
  In  In71  1  0.15655807  0.34849819  0.49195139  1
  Te  Te72  1  0.08965090  0.11109087  0.07989443  1
  Te  Te73  1  0.10351980  0.06276035  0.42112172  1
  Te  Te74  1  0.10746314  0.08681969  0.74685358  1
  Te  Te75  1  0.09717362  0.42779176  0.09708474  1
  Te  Te76  1  0.08211353  0.45093776  0.41408832  1
  Te  Te77  1  0.12562075  0.41107431  0.76098145  1
  Te  Te78  1  0.09586295  0.74300587  0.09533139  1
  Te  Te79  1  0.09771134  0.74830504  0.41712774  1
  Te  Te80  1  0.09108123  0.76405180  0.72338413  1
  Te  Te81  1  0.42040259  0.08863671  0.08521370  1
  Te  Te82  1  0.42740311  0.06059888  0.40211286  1
  Te  Te83  1  0.39083845  0.09188551  0.79095930  1
  Te  Te84  1  0.39288481  0.41684744  0.09159468  1
  Te  Te85  1  0.41351470  0.43570956  0.40093627  1
  Te  Te86  1  0.42084317  0.44897669  0.73824397  1
  Te  Te87  1  0.42816191  0.74756953  0.09494187  1
  Te  Te88  1  0.39811225  0.75359254  0.45984174  1
  Te  Te89  1  0.42199955  0.72147663  0.73603530  1
  Te  Te90  1  0.76478941  0.07809334  0.07671696  1
  Te  Te91  1  0.74809744  0.06958336  0.42130604  1
  Te  Te92  1  0.74215109  0.07309253  0.75696228  1
  Te  Te93  1  0.75519827  0.41485129  0.09932242  1
  Te  Te94  1  0.72874469  0.41578445  0.43909532  1
  Te  Te95  1  0.73187129  0.41425132  0.74711197  1
  Te  Te96  1  0.75818186  0.75066355  0.07605975  1
  Te  Te97  1  0.73604528  0.73800342  0.42494421  1
  Te  Te98  1  0.71278353  0.76288381  0.77130277  1
  Te  Te99  1  0.11479735  0.26594970  0.23751070  1
  Te  Te100  1  0.08625569  0.24910806  0.58595985  1
  Te  Te101  1  0.09840485  0.25550081  0.91510075  1
  Te  Te102  1  0.09108059  0.56102939  0.28157087  1
  Te  Te103  1  0.09792603  0.60230563  0.56058122  1
  Te  Te104  1  0.07370639  0.59335694  0.90390800  1
  Te  Te105  1  0.10059222  0.90016138  0.24616384  1
  Te  Te106  1  0.11275797  0.91367029  0.56819261  1
  Te  Te107  1  0.10232384  0.93469141  0.90451139  1
  Te  Te108  1  0.42309452  0.24001470  0.25500442  1
  Te  Te109  1  0.42242597  0.25518233  0.58410483  1
  Te  Te110  1  0.38133291  0.28067269  0.89794086  1
  Te  Te111  1  0.44248181  0.61546050  0.26551265  1
  Te  Te112  1  0.36543635  0.61104829  0.52655307  1
  Te  Te113  1  0.42738077  0.59013004  0.90729365  1
  Te  Te114  1  0.41706700  0.91010845  0.27658729  1
  Te  Te115  1  0.38749812  0.91845670  0.58377048  1
  Te  Te116  1  0.38388078  0.92335089  0.93027930  1
  Te  Te117  1  0.74671417  0.26018853  0.26770613  1
  Te  Te118  1  0.76595464  0.25160085  0.59100094  1
  Te  Te119  1  0.73880394  0.23840763  0.91441764  1
  Te  Te120  1  0.74227012  0.57784870  0.25629875  1
  Te  Te121  1  0.73679507  0.61135350  0.60040761  1
  Te  Te122  1  0.74045357  0.57602338  0.91023357  1
  Te  Te123  1  0.74408229  0.91303042  0.24313230  1
  Te  Te124  1  0.71994427  0.88924914  0.56878895  1
  Te  Te125  1  0.70229384  0.87185009  0.88168229  1
  Te  Te126  1  0.24526634  0.25502224  0.08591546  1
  Te  Te127  1  0.25838245  0.24805491  0.42854171  1
  Te  Te128  1  0.27138585  0.24146982  0.77650703  1
  Te  Te129  1  0.24738925  0.59021488  0.07582390  1
  Te  Te130  1  0.29300162  0.55103086  0.40746503  1
  Te  Te131  1  0.27276302  0.60149520  0.71059967  1
  Te  Te132  1  0.26123586  0.92981257  0.08693887  1
  Te  Te133  1  0.29129252  0.84564246  0.41039594  1
  Te  Te134  1  0.23900171  0.90036012  0.74928937  1
  Te  Te135  1  0.58795288  0.24066097  0.07374966  1
  Te  Te136  1  0.56287593  0.24160214  0.40924641  1
  Te  Te137  1  0.55248675  0.25990709  0.74693364  1
  Te  Te138  1  0.58744547  0.57148656  0.10165020  1
  Te  Te139  1  0.54117556  0.57878573  0.41556367  1
  Te  Te140  1  0.56859572  0.62693054  0.72340488  1
  Te  Te141  1  0.59992382  0.91177469  0.08534982  1
  Te  Te142  1  0.56764089  0.87028177  0.42730889  1
  Te  Te143  1  0.52394481  0.91529445  0.74072514  1
  Te  Te144  1  0.91210759  0.27666701  0.11465764  1
  Te  Te145  1  0.94519894  0.24143189  0.41801774  1
  Te  Te146  1  0.91149535  0.26419099  0.75303245  1
  Te  Te147  1  0.93945987  0.57111739  0.10906473  1
  Te  Te148  1  0.89467508  0.60256383  0.43972903  1
  Te  Te149  1  0.89654848  0.59179346  0.75357497  1
  Te  Te150  1  0.93652592  0.90007424  0.08908783  1
  Te  Te151  1  0.90152245  0.91917685  0.40991474  1
  Te  Te152  1  0.92143205  0.91712372  0.74256925  1
  Te  Te153  1  0.26360060  0.06057186  0.27371167  1
  Te  Te154  1  0.24418960  0.06912296  0.56304144  1
  Te  Te155  1  0.29250879  0.06009926  0.91238087  1
  Te  Te156  1  0.24125835  0.43523169  0.24590362  1
  Te  Te157  1  0.27020715  0.41858312  0.56558866  1
  Te  Te158  1  0.27838454  0.40241259  0.92576652  1
  Te  Te159  1  0.26198864  0.74273066  0.28389640  1
  Te  Te160  1  0.28075149  0.78524409  0.56110922  1
  Te  Te161  1  0.24310893  0.75001546  0.90181417  1
  Te  Te162  1  0.58317365  0.07893310  0.25682477  1
  Te  Te163  1  0.59399821  0.08675332  0.58981889  1
  Te  Te164  1  0.55684829  0.07222606  0.91756176  1
  Te  Te165  1  0.57013354  0.44394232  0.23626577  1
  Te  Te166  1  0.54812089  0.45272439  0.60387995  1
  Te  Te167  1  0.56367864  0.41719882  0.90145035  1
  Te  Te168  1  0.53449302  0.74359982  0.26598504  1
  Te  Te169  1  0.59532439  0.70438541  0.59331939  1
  Te  Te170  1  0.56163165  0.73913512  0.90723615  1
  Te  Te171  1  0.93959400  0.09879677  0.24235331  1
  Te  Te172  1  0.94754851  0.08351517  0.55445133  1
  Te  Te173  1  0.91841827  0.08135038  0.91107500  1
  Te  Te174  1  0.90930185  0.40787581  0.25548536  1
  Te  Te175  1  0.93658361  0.43599256  0.56983314  1
  Te  Te176  1  0.92957844  0.42910711  0.92306267  1
  Te  Te177  1  0.93617036  0.75557249  0.24462060  1
  Te  Te178  1  0.90935657  0.75172527  0.58058828  1
  Te  Te179  1  0.90295392  0.75145305  0.90989380  1
