# generated using pymatgen
data_In2Te3
_symmetry_space_group_name_H-M   'P 1'
_cell_length_a   19.00221202
_cell_length_b   18.99914438
_cell_length_c   18.99834924
_cell_angle_alpha   89.90125457
_cell_angle_beta   89.84918607
_cell_angle_gamma   90.07654264
_symmetry_Int_Tables_number   1
_chemical_formula_structural   In2Te3
_chemical_formula_sum   'In72 Te108'
_cell_volume   6858.85354555
_cell_formula_units_Z   36
loop_
 _symmetry_equiv_pos_site_id
 _symmetry_equiv_pos_as_xyz
  1  'x, y, z'
loop_
 _atom_site_type_symbol
 _atom_site_label
 _atom_site_symmetry_multiplicity
 _atom_site_fract_x
 _atom_site_fract_y
 _atom_site_fract_z
 _atom_site_occupancy
  In  In0  1  0.84127091  0.01009103  0.51359866  1
  In  In1  1  0.67107862  0.14020836  0.17019260  1
  In  In2  1  0.64834645  0.63794962  0.36065621  1
  In  In3  1  0.33267970  0.83394994  0.15336677  1
  In  In4  1  0.67681015  0.51258979  0.81493777  1
  In  In5  1  0.16219550  0.50488792  0.65987416  1
  In  In6  1  0.65546623  0.34966506  0.32201182  1
  In  In7  1  0.00779113  0.19832720  0.15678441  1
  In  In8  1  0.67745391  0.67146709  0.01632830  1
  In  In9  1  0.15680991  0.49956639  0.01256012  1
  In  In10  1  0.31909559  0.65715534  0.66305415  1
  In  In11  1  0.18422224  0.19856346  0.03369991  1
  In  In12  1  0.16080240  -0.01142819  0.83656596  1
  In  In13  1  0.48939675  0.31739251  0.81609736  1
  In  In14  1  0.86055188  0.84345845  0.30775893  1
  In  In15  1  0.66535409  0.15041624  0.83746514  1
  In  In16  1  0.31589727  0.49248351  0.15701885  1
  In  In17  1  0.62097174  0.35693516  0.61412944  1
  In  In18  1  0.31965218  0.20387018  0.50534613  1
  In  In19  1  0.02818675  0.68103318  0.03223622  1
  In  In20  1  -0.02438257  0.00237889  0.66872728  1
  In  In21  1  0.68744398  0.16850069  0.47624664  1
  In  In22  1  0.82300412  0.19227262  0.66072393  1
  In  In23  1  0.33807986  0.48651531  0.83880243  1
  In  In24  1  0.01282022  0.01602955  0.33160296  1
  In  In25  1  0.64579995  0.66143335  0.64249654  1
  In  In26  1  0.32254251  0.00617436  0.69229349  1
  In  In27  1  0.32767695  0.16095591  0.83662471  1
  In  In28  1  0.84226997  -0.00162284  0.14575434  1
  In  In29  1  0.86682113  0.67634214  0.85813374  1
  In  In30  1  0.48975492  0.81543544  0.00328336  1
  In  In31  1  0.84950198  0.49457486  0.64591927  1
  In  In32  1  0.84598050  0.35424942  0.82548002  1
  In  In33  1  0.67436828  0.32153339  0.00022365  1
  In  In34  1  0.49455855  0.35678433  0.16796529  1
  In  In35  1  0.48516930  0.66936994  0.79849031  1
  In  In36  1  0.49419899  0.18928744  0.29659391  1
  In  In37  1  0.51472920  0.51303654  -0.01987989  1
  In  In38  1  0.84554022  0.65513741  0.47868984  1
  In  In39  1  0.16074326  0.17134882  0.67529137  1
  In  In40  1  0.01041931  0.49441111  0.16724494  1
  In  In41  1  0.17952792  0.82781496  0.33524319  1
  In  In42  1  0.17376569  0.64146903  0.48937826  1
  In  In43  1  0.83008648  0.67482541  0.18031743  1
  In  In44  1  0.64894681  0.79767346  0.49768660  1
  In  In45  1  0.49761039  0.14563711  -0.00462970  1
  In  In46  1  0.49100391  -0.01591733  0.16200292  1
  In  In47  1  0.51045810  0.82548623  0.32840860  1
  In  In48  1  0.01263068  0.66368820  0.69568944  1
  In  In49  1  0.33532002  -0.01608762  0.01337652  1
  In  In50  1  0.02159690  0.82591043  0.51947932  1
  In  In51  1  0.34405729  0.67842481  0.31341686  1
  In  In52  1  0.15812265  0.18449804  0.33159345  1
  In  In53  1  0.84644016  -0.01116987  0.85963930  1
  In  In54  1  0.18901317  -0.02294084  0.16297862  1
  In  In55  1  0.83252015  0.49481385  0.33394687  1
  In  In56  1  0.82199849  0.83053333  0.68121600  1
  In  In57  1  0.31118715  0.84373820  0.50886003  1
  In  In58  1  0.16291770  0.32382487  0.83759464  1
  In  In59  1  0.15218702  0.37322271  0.46492956  1
  In  In60  1  0.00267355  -0.00094214  0.00224372  1
  In  In61  1  0.65521074  -0.00821687  0.68180811  1
  In  In62  1  0.83359322  0.46759625  0.01647925  1
  In  In63  1  0.49653304  -0.00972310  0.48422694  1
  In  In64  1  0.16542514  0.69312387  0.86759329  1
  In  In65  1  0.83412273  0.31775939  0.14744086  1
  In  In66  1  0.67849648  0.82493710  0.82852858  1
  In  In67  1  0.36272603  0.49083595  0.49331862  1
  In  In68  1  0.31747200  0.01869859  0.35633987  1
  In  In69  1  0.48543030  0.15822400  0.65406919  1
  In  In70  1  0.00282025  0.34320864  0.64626461  1
  In  In71  1  0.86277459  0.19501988  0.35724423  1
  Te  Te72  1  0.09581611  0.08246767  0.10277906  1
  Te  Te73  1  0.08022687  0.10286827  0.42629707  1
  Te  Te74  1  0.07239129  0.08310235  0.75873841  1
  Te  Te75  1  0.05187653  0.40383294  0.05677227  1
  Te  Te76  1  0.07532565  0.47526810  0.39231257  1
  Te  Te77  1  0.07906574  0.41914677  0.75317442  1
  Te  Te78  1  0.07849727  0.71907745  0.16359789  1
  Te  Te79  1  0.08480633  0.73781376  0.41246164  1
  Te  Te80  1  0.08712664  0.76496247  0.76664273  1
  Te  Te81  1  0.40256526  0.08927362  0.09954568  1
  Te  Te82  1  0.41981383  0.10732231  0.42393723  1
  Te  Te83  1  0.43379950  0.07641433  0.76964835  1
  Te  Te84  1  0.41846599  0.42646044  0.05868133  1
  Te  Te85  1  0.45760267  0.41441408  0.40888801  1
  Te  Te86  1  0.41683410  0.41616475  0.73748065  1
  Te  Te87  1  0.43520430  0.73819081  0.11581613  1
  Te  Te88  1  0.40698424  0.76424823  0.42235962  1
  Te  Te89  1  0.37632595  0.75762645  0.75459800  1
  Te  Te90  1  0.75051377  0.08045317  0.06463218  1
  Te  Te91  1  0.77043548  0.07331343  0.39672582  1
  Te  Te92  1  0.76906228  0.07224321  0.74085362  1
  Te  Te93  1  0.72372218  0.41526168  0.10750323  1
  Te  Te94  1  0.72946333  0.43114461  0.42013295  1
  Te  Te95  1  0.74374660  0.41069728  0.72490488  1
  Te  Te96  1  0.75872714  0.76624488  0.09048819  1
  Te  Te97  1  0.76031669  0.75313875  0.40144640  1
  Te  Te98  1  0.75576030  0.71169063  0.74896495  1
  Te  Te99  1  0.07988022  0.28290511  0.25341564  1
  Te  Te100  1  0.10778292  0.26621983  0.57077354  1
  Te  Te101  1  0.09383442  0.22815788  0.92386720  1
  Te  Te102  1  0.12446476  0.53280725  0.25571841  1
  Te  Te103  1  0.06270943  0.58251506  0.57873619  1
  Te  Te104  1  0.07138313  0.58707268  0.92140793  1
  Te  Te105  1  0.08409263  0.91129133  0.24974727  1
  Te  Te106  1  0.08265968  0.92689038  0.60423425  1
  Te  Te107  1  0.08726714  0.90171081  0.92965760  1
  Te  Te108  1  0.39055156  0.27044835  0.23171987  1
  Te  Te109  1  0.42846729  0.26856585  0.57880581  1
  Te  Te110  1  0.41098814  0.24981806  0.92725872  1
  Te  Te111  1  0.41131964  0.57325281  0.23596391  1
  Te  Te112  1  0.42269057  0.60259246  0.57209289  1
  Te  Te113  1  0.41056575  0.59766086  0.91090435  1
  Te  Te114  1  0.39228444  0.91825708  0.27158930  1
  Te  Te115  1  0.40876178  0.92815602  0.58818904  1
  Te  Te116  1  0.42127592  0.91377347  0.92029718  1
  Te  Te117  1  0.74809335  0.24099142  0.25570893  1
  Te  Te118  1  0.74539825  0.27598558  0.56273182  1
  Te  Te119  1  0.76069766  0.24904193  0.90065345  1
  Te  Te120  1  0.73808314  0.57822006  0.25093544  1
  Te  Te121  1  0.75070102  0.57805572  0.56780170  1
  Te  Te122  1  0.76585564  0.57091072  0.92182291  1
  Te  Te123  1  0.75865874  0.91821431  0.23745428  1
  Te  Te124  1  0.74534080  0.90876366  0.57725163  1
  Te  Te125  1  0.74481018  0.90863565  0.92641552  1
  Te  Te126  1  0.25606636  0.28334234  0.12721420  1
  Te  Te127  1  0.25689156  0.28492316  0.39624824  1
  Te  Te128  1  0.26402511  0.25950785  0.74238575  1
  Te  Te129  1  0.25629964  0.59835691  0.06535081  1
  Te  Te130  1  0.27408278  0.57332128  0.40123395  1
  Te  Te131  1  0.23286876  0.58148284  0.76967965  1
  Te  Te132  1  0.22134647  0.87864769  0.04917565  1
  Te  Te133  1  0.21746015  0.93665917  0.43437744  1
  Te  Te134  1  0.26308281  0.90135995  0.77622022  1
  Te  Te135  1  0.57890217  0.24363313  0.08951504  1
  Te  Te136  1  0.57895767  0.24788105  0.40661271  1
  Te  Te137  1  0.59393102  0.23818536  0.73541538  1
  Te  Te138  1  0.59358670  0.57411259  0.08542432  1
  Te  Te139  1  0.54859426  0.60059999  0.46253662  1
  Te  Te140  1  0.56659347  0.56028942  0.72524481  1
  Te  Te141  1  0.57895232  0.90095864  0.08305703  1
  Te  Te142  1  0.60323854  0.91396483  0.41002465  1
  Te  Te143  1  0.57278447  0.89390910  0.75140130  1
  Te  Te144  1  0.89954594  0.22048651  0.05962788  1
  Te  Te145  1  0.92692389  0.29025630  0.44343658  1
  Te  Te146  1  0.93001763  0.25497528  0.74720644  1
  Te  Te147  1  0.90887178  0.58008398  0.08615458  1
  Te  Te148  1  0.93997886  0.57632672  0.39728127  1
  Te  Te149  1  0.91676157  0.56658304  0.76070951  1
  Te  Te150  1  0.93247583  0.89923677  0.08587230  1
  Te  Te151  1  0.93029931  0.91748718  0.43007955  1
  Te  Te152  1  0.92483209  0.89658032  0.76752583  1
  Te  Te153  1  0.24604657  0.09120873  0.24641298  1
  Te  Te154  1  0.25504199  0.09172206  0.58733717  1
  Te  Te155  1  0.24416956  0.08318510  0.93589294  1
  Te  Te156  1  0.20526688  0.40308030  0.21125310  1
  Te  Te157  1  0.25102900  0.42240723  0.57310766  1
  Te  Te158  1  0.24909968  0.40601138  0.93018029  1
  Te  Te159  1  0.23239014  0.73565766  0.22545314  1
  Te  Te160  1  0.22392664  0.74716081  0.58630114  1
  Te  Te161  1  0.24585363  0.73043040  0.98377234  1
  Te  Te162  1  0.57420917  0.06580912  0.26014586  1
  Te  Te163  1  0.59838747  0.08035717  0.57056606  1
  Te  Te164  1  0.59162703  0.06027038  0.92465549  1
  Te  Te165  1  0.54985608  0.44493498  0.27477529  1
  Te  Te166  1  0.57249239  0.45321795  0.50524112  1
  Te  Te167  1  0.59692172  0.40428797  0.89759561  1
  Te  Te168  1  0.58767038  0.72451114  0.25873623  1
  Te  Te169  1  0.56090857  0.77835087  0.61332407  1
  Te  Te170  1  0.58709321  0.72294507  0.89863657  1
  Te  Te171  1  0.92151161  0.10084303  0.24639861  1
  Te  Te172  1  0.92566684  0.11634593  0.57785178  1
  Te  Te173  1  0.92453132  0.09506425  0.92268879  1
  Te  Te174  1  0.91296297  0.40351161  0.24278634  1
  Te  Te175  1  0.91859259  0.41049789  0.54180123  1
  Te  Te176  1  0.93640330  0.40515490  0.93056862  1
  Te  Te177  1  0.94846129  0.73713715  0.25023242  1
  Te  Te178  1  0.91068225  0.74413600  0.59132761  1
  Te  Te179  1  0.92765620  0.76282188  0.95833159  1
