# generated using pymatgen
data_In2Te3
_symmetry_space_group_name_H-M   'P 1'
_cell_length_a   18.78945870
_cell_length_b   18.77981608
_cell_length_c   18.79444062
_cell_angle_alpha   90.04225494
_cell_angle_beta   90.05041125
_cell_angle_gamma   90.04534372
_symmetry_Int_Tables_number   1
_chemical_formula_structural   In2Te3
_chemical_formula_sum   'In72 Te108'
_cell_volume   6631.84832984
_cell_formula_units_Z   36
loop_
 _symmetry_equiv_pos_site_id
 _symmetry_equiv_pos_as_xyz
  1  'x, y, z'
loop_
 _atom_site_type_symbol
 _atom_site_label
 _atom_site_symmetry_multiplicity
 _atom_site_fract_x
 _atom_site_fract_y
 _atom_site_fract_z
 _atom_site_occupancy
  In  In0  1  -0.00360905  0.82992707  0.83515739  1
  In  In1  1  0.33665396  0.67431123  -0.00110932  1
  In  In2  1  0.00349748  0.31978151  0.35037933  1
  In  In3  1  -0.00062713  0.67343095  0.65132133  1
  In  In4  1  0.32443657  0.17768594  0.15605719  1
  In  In5  1  0.84048166  0.34721941  0.83063492  1
  In  In6  1  0.64869832  0.16469447  0.17955944  1
  In  In7  1  0.33383142  0.34063867  0.34876607  1
  In  In8  1  0.00079678  0.32494092  -0.02161192  1
  In  In9  1  0.00460432  0.52126314  0.17309424  1
  In  In10  1  0.66414446  0.32784830  0.32367718  1
  In  In11  1  0.33312180  0.48042626  0.50282387  1
  In  In12  1  0.68097304  0.65955746  0.67614015  1
  In  In13  1  0.34355768  0.01597051  0.36012515  1
  In  In14  1  0.15555700  0.66740174  0.50497993  1
  In  In15  1  -0.00284746  0.85386874  0.51651358  1
  In  In16  1  0.00659549  0.68129697  0.01813115  1
  In  In17  1  0.02912549  0.16489387  0.83223662  1
  In  In18  1  0.83222002  0.69315665  0.16814128  1
  In  In19  1  0.83028453  0.16145456  0.67072930  1
  In  In20  1  0.83207393  0.83202663  0.33728644  1
  In  In21  1  0.16271498  0.68666371  0.17337175  1
  In  In22  1  0.65053392  0.50738553  0.49444385  1
  In  In23  1  0.48647465  0.66200164  0.84149016  1
  In  In24  1  0.83193214  0.48826295  0.67003846  1
  In  In25  1  0.34922203  0.49889030  0.16647118  1
  In  In26  1  0.84449323  0.51089814  0.32388829  1
  In  In27  1  0.47626985  0.30878868  0.81839799  1
  In  In28  1  -0.00457827  0.68227871  0.32726083  1
  In  In29  1  0.48316332  0.47158050  0.65305391  1
  In  In30  1  0.31687665  0.02173859  0.65822173  1
  In  In31  1  0.48253764  0.50421157  0.00581009  1
  In  In32  1  0.67809538  0.48485342  0.81882727  1
  In  In33  1  0.00556020  0.00943811  0.00776295  1
  In  In34  1  0.17839316  0.67889553  0.83604045  1
  In  In35  1  0.46236502  0.00224956  0.82364976  1
  In  In36  1  0.53137548  0.82592937  0.32496823  1
  In  In37  1  0.84149628  0.67083240  0.83358076  1
  In  In38  1  0.01164593  0.49808586  0.50167439  1
  In  In39  1  0.64416425  0.16295708  0.81210433  1
  In  In40  1  0.32887257  0.65427013  0.67789096  1
  In  In41  1  0.32949763  0.66671568  0.31299326  1
  In  In42  1  0.81227358  0.31189824  0.16145110  1
  In  In43  1  0.84672073  0.14779510  -0.01000861  1
  In  In44  1  0.01742133  -0.00850458  0.67981209  1
  In  In45  1  0.50461706  0.18225694  -0.00693073  1
  In  In46  1  0.32512446  -0.00117477  -0.01507359  1
  In  In47  1  0.66129389  -0.02911576  0.01137797  1
  In  In48  1  0.03051013  0.15010070  0.50364867  1
  In  In49  1  0.17729391  0.32459388  0.51454290  1
  In  In50  1  0.17719116  0.00376867  0.82639065  1
  In  In51  1  0.18073727  0.48180055  -0.02135345  1
  In  In52  1  0.65501043  0.02540424  0.63728601  1
  In  In53  1  0.51991649  -0.00220997  0.17460546  1
  In  In54  1  0.33339723  0.83328332  0.15653773  1
  In  In55  1  0.12618607  -0.00672928  0.18542310  1
  In  In56  1  0.81319047  0.01342363  0.47003283  1
  In  In57  1  0.49557420  0.16249555  0.33115180  1
  In  In58  1  0.83984917  0.30881026  0.50355481  1
  In  In59  1  0.67538401  0.49166837  0.17758344  1
  In  In60  1  0.67693458  0.68667751  0.00783792  1
  In  In61  1  0.67427337  0.83318844  0.83572677  1
  In  In62  1  0.85209187  0.00599107  0.20099690  1
  In  In63  1  0.51786953  0.67658103  0.47417754  1
  In  In64  1  0.46588079  0.30474572  0.52167774  1
  In  In65  1  0.66445775  0.33389199  -0.00058245  1
  In  In66  1  0.16055753  0.16581224  0.34281119  1
  In  In67  1  0.48563896  0.82619319  0.68165477  1
  In  In68  1  0.03525503  0.46015986  0.82790232  1
  In  In69  1  0.32294376  0.85540852  0.50728603  1
  In  In70  1  0.67914316  0.84421057  0.48295146  1
  In  In71  1  0.17673116  0.32810883  0.17441478  1
  Te  Te72  1  0.09373114  0.09786992  0.08676941  1
  Te  Te73  1  0.09699880  0.05078920  0.41396601  1
  Te  Te74  1  0.11503674  0.10082979  0.72460843  1
  Te  Te75  1  0.08010912  0.42071746  0.08501639  1
  Te  Te76  1  0.10396642  0.41577058  0.41194647  1
  Te  Te77  1  0.10099456  0.36493379  0.73388715  1
  Te  Te78  1  0.09843019  0.77991706  0.07817454  1
  Te  Te79  1  0.08472636  0.76773021  0.41638918  1
  Te  Te80  1  0.09118094  0.75947925  0.73816272  1
  Te  Te81  1  0.42623951  0.08045743  0.08740041  1
  Te  Te82  1  0.43896421  0.08828556  0.45275886  1
  Te  Te83  1  0.41449978  0.11150080  0.73386075  1
  Te  Te84  1  0.39728822  0.40096072  0.06698061  1
  Te  Te85  1  0.44288519  0.42104748  0.41779142  1
  Te  Te86  1  0.39101564  0.41183513  0.75072210  1
  Te  Te87  1  0.43002702  0.73007656  0.10187157  1
  Te  Te88  1  0.40648813  0.76546336  0.41325117  1
  Te  Te89  1  0.38789432  0.75908756  0.77603866  1
  Te  Te90  1  0.73801968  0.08863666  0.08107724  1
  Te  Te91  1  0.71593024  0.09606929  0.39875729  1
  Te  Te92  1  0.74843953  0.06723488  0.75846126  1
  Te  Te93  1  0.76334993  0.42538279  0.07081484  1
  Te  Te94  1  0.76337374  0.41526382  0.41341805  1
  Te  Te95  1  0.73526093  0.38204350  0.72336238  1
  Te  Te96  1  0.74972061  0.78760917  0.08829943  1
  Te  Te97  1  0.74519198  0.73590249  0.40869799  1
  Te  Te98  1  0.77165388  0.76531334  0.73575300  1
  Te  Te99  1  0.07304510  0.23749634  0.24047209  1
  Te  Te100  1  0.07186755  0.25832281  0.59789577  1
  Te  Te101  1  0.11460361  0.24782288  0.92272933  1
  Te  Te102  1  0.09906813  0.58400024  0.27213200  1
  Te  Te103  1  0.10022370  0.56554092  0.60596732  1
  Te  Te104  1  0.07543868  0.58490135  0.92023651  1
  Te  Te105  1  0.04890164  0.89545303  0.26156825  1
  Te  Te106  1  0.10869046  0.92170196  0.58671471  1
  Te  Te107  1  0.09042270  0.91769869  0.91765788  1
  Te  Te108  1  0.41496511  0.26117538  0.24633768  1
  Te  Te109  1  0.37553766  0.22950597  0.61879882  1
  Te  Te110  1  0.39042019  0.22546496  0.90843590  1
  Te  Te111  1  0.43585710  0.58394544  0.25261621  1
  Te  Te112  1  0.42829744  0.59683556  0.57254940  1
  Te  Te113  1  0.38624649  0.56592185  0.90413913  1
  Te  Te114  1  0.41483761  0.92278387  0.25949102  1
  Te  Te115  1  0.42548900  0.93064484  0.58996479  1
  Te  Te116  1  0.43069246  0.90972599  0.93335113  1
  Te  Te117  1  0.76349460  0.21671111  0.27184129  1
  Te  Te118  1  0.74011268  0.22630249  0.57314345  1
  Te  Te119  1  0.74913254  0.24396673  0.90913154  1
  Te  Te120  1  0.74436413  0.60452988  0.25689106  1
  Te  Te121  1  0.76057813  0.58196579  0.57209413  1
  Te  Te122  1  0.74539270  0.58231629  0.91298759  1
  Te  Te123  1  0.74508360  0.91640003  0.25299178  1
  Te  Te124  1  0.75758612  0.92582841  0.58406676  1
  Te  Te125  1  0.76214089  0.91845532  0.91770916  1
  Te  Te126  1  0.24456756  0.25921373  0.06259111  1
  Te  Te127  1  0.27080029  0.22715930  0.42968791  1
  Te  Te128  1  0.22453143  0.28692971  0.76461814  1
  Te  Te129  1  0.24003298  0.58353951  0.08602501  1
  Te  Te130  1  0.25625652  0.58549639  0.42303241  1
  Te  Te131  1  0.23899364  0.56905267  0.75795633  1
  Te  Te132  1  0.23856253  0.93225282  0.09033110  1
  Te  Te133  1  0.23144960  0.94471118  0.42956820  1
  Te  Te134  1  0.26603155  0.91548018  0.74773008  1
  Te  Te135  1  0.57018022  0.27009881  0.10055905  1
  Te  Te136  1  0.57717717  0.25339674  0.42402438  1
  Te  Te137  1  0.56669871  0.24593762  0.71917562  1
  Te  Te138  1  0.59301988  0.57882796  0.07921981  1
  Te  Te139  1  0.58568071  0.58104180  0.38495742  1
  Te  Te140  1  0.57046814  0.57520071  0.74413110  1
  Te  Te141  1  0.58731224  0.88209641  0.10755727  1
  Te  Te142  1  0.56484234  0.92131990  0.43190414  1
  Te  Te143  1  0.58265977  0.92674707  0.74740633  1
  Te  Te144  1  0.92338921  0.24078258  0.08265806  1
  Te  Te145  1  0.91703400  0.20904529  0.41090681  1
  Te  Te146  1  0.92529293  0.24954203  0.75316543  1
  Te  Te147  1  0.90222024  0.58714698  0.08286565  1
  Te  Te148  1  0.91933571  0.59474854  0.42784231  1
  Te  Te149  1  0.92863131  0.57339738  0.75295432  1
  Te  Te150  1  0.90488526  0.93236651  0.08412719  1
  Te  Te151  1  0.92435925  0.93302298  0.40433530  1
  Te  Te152  1  0.91261543  0.91042621  0.74417905  1
  Te  Te153  1  0.25420319  0.07902575  0.24852253  1
  Te  Te154  1  0.26495498  0.13249461  0.57128911  1
  Te  Te155  1  0.26363119  0.10269889  0.89972415  1
  Te  Te156  1  0.24821144  0.43091255  0.26093808  1
  Te  Te157  1  0.26297991  0.40486262  0.60786078  1
  Te  Te158  1  0.24053038  0.38835952  0.88038109  1
  Te  Te159  1  0.23935832  0.78158063  0.26666641  1
  Te  Te160  1  0.24733250  0.75328631  0.59259108  1
  Te  Te161  1  0.24172767  0.76713746  0.93610930  1
  Te  Te162  1  0.60833194  0.05804969  0.28902807  1
  Te  Te163  1  0.55672550  0.09561881  0.55631968  1
  Te  Te164  1  0.58090125  0.07144665  0.92025346  1
  Te  Te165  1  0.57194270  0.40837252  0.24102223  1
  Te  Te166  1  0.58672102  0.39566493  0.57500957  1
  Te  Te167  1  0.57320579  0.41436240  0.90607845  1
  Te  Te168  1  0.54974115  0.74063338  0.20833432  1
  Te  Te169  1  0.58752171  0.75103008  0.59326112  1
  Te  Te170  1  0.57070326  0.75915434  0.92266413  1
  Te  Te171  1  0.91518571  0.11846337  0.26944761  1
  Te  Te172  1  0.91877865  0.07287016  0.58096012  1
  Te  Te173  1  0.92511755  0.06796908  0.88787081  1
  Te  Te174  1  0.91838169  0.40225040  0.24432007  1
  Te  Te175  1  0.92829635  0.40269781  0.58772224  1
  Te  Te176  1  0.91451109  0.43931256  0.92412367  1
  Te  Te177  1  0.94927274  0.78166019  0.22045645  1
  Te  Te178  1  0.90527550  0.75041167  0.56902447  1
  Te  Te179  1  0.90404264  0.76247688  0.93783175  1
