# generated using pymatgen
data_In2Te3
_symmetry_space_group_name_H-M   'P 1'
_cell_length_a   18.95710696
_cell_length_b   18.99199026
_cell_length_c   18.99146309
_cell_angle_alpha   90.29741524
_cell_angle_beta   90.00720923
_cell_angle_gamma   90.11477378
_symmetry_Int_Tables_number   1
_chemical_formula_structural   In2Te3
_chemical_formula_sum   'In72 Te108'
_cell_volume   6837.45115217
_cell_formula_units_Z   36
loop_
 _symmetry_equiv_pos_site_id
 _symmetry_equiv_pos_as_xyz
  1  'x, y, z'
loop_
 _atom_site_type_symbol
 _atom_site_label
 _atom_site_symmetry_multiplicity
 _atom_site_fract_x
 _atom_site_fract_y
 _atom_site_fract_z
 _atom_site_occupancy
  In  In0  1  -0.00327056  0.48903736  0.48930745  1
  In  In1  1  0.03237758  0.02100089  0.33152312  1
  In  In2  1  0.35315980  -0.02389709  0.00446714  1
  In  In3  1  0.16436504  0.50577333  0.68725154  1
  In  In4  1  -0.01199175  0.48938303  0.13791872  1
  In  In5  1  0.64353090  0.67930856  0.65947755  1
  In  In6  1  0.81605916  0.16297125  -0.03222251  1
  In  In7  1  0.32926454  0.83882991  0.45765643  1
  In  In8  1  0.50135072  0.15140440  0.32099593  1
  In  In9  1  0.73343536  0.18827144  0.72853655  1
  In  In10  1  0.85167524  0.85925244  0.34379544  1
  In  In11  1  0.20302998  0.47205445  0.02264736  1
  In  In12  1  0.65512331  0.33242963  0.36354609  1
  In  In13  1  0.00308843  0.17363918  0.83220975  1
  In  In14  1  0.00446326  -0.00130074  0.67976915  1
  In  In15  1  0.19269739  0.64530420  0.84776631  1
  In  In16  1  0.36146660  0.50573866  0.14460672  1
  In  In17  1  0.50081003  0.13008962  -0.00808103  1
  In  In18  1  0.17076156  0.02164580  0.14541173  1
  In  In19  1  0.49204728  0.01330060  0.50351711  1
  In  In20  1  0.19006623  -0.00858689  0.86080412  1
  In  In21  1  0.78401867  0.70468149  0.84902569  1
  In  In22  1  0.17810864  0.49030192  0.29777184  1
  In  In23  1  0.59796550  0.84172327  0.87425693  1
  In  In24  1  0.50805904  0.49628284  0.33304634  1
  In  In25  1  0.00481159  0.33032319  0.65352621  1
  In  In26  1  0.00488813  0.67979936  0.62453270  1
  In  In27  1  0.37253147  0.82630363  0.85363925  1
  In  In28  1  0.42186405  0.66340875  0.01036037  1
  In  In29  1  0.64282121  0.49845628  0.85189701  1
  In  In30  1  0.01768576  0.64773460  0.32576080  1
  In  In31  1  0.01632209  0.30086737  0.32096695  1
  In  In32  1  0.67228081  0.86761742  0.47634989  1
  In  In33  1  0.00018169  0.31805571  -0.01999562  1
  In  In34  1  0.32410109  0.66154597  0.65098606  1
  In  In35  1  0.83016782  0.16945020  0.38416550  1
  In  In36  1  0.16369130  0.31784139  0.51761698  1
  In  In37  1  0.46715365  0.68829075  0.45516796  1
  In  In38  1  0.66623632  0.18083196  0.16421321  1
  In  In39  1  0.34936628  0.31583680  -0.03056717  1
  In  In40  1  -0.02762144  0.51358947  0.82656190  1
  In  In41  1  0.82752657  0.34345460  0.16162863  1
  In  In42  1  0.82506240  0.00188871  0.51941217  1
  In  In43  1  0.48433302  0.85149538  0.63768770  1
  In  In44  1  0.02249806  0.83345617  0.80461361  1
  In  In45  1  0.01483391  0.84344566  0.54179904  1
  In  In46  1  -0.01479588  0.66530399  -0.00466819  1
  In  In47  1  0.82690510  0.52216112  0.31956093  1
  In  In48  1  0.01660039  0.15206616  0.50628705  1
  In  In49  1  0.16839643  0.85361196  0.01846976  1
  In  In50  1  0.48157291  0.47004010  0.67156878  1
  In  In51  1  0.81706162  0.86712498  -0.00160246  1
  In  In52  1  0.64390017  0.51021951  0.51215033  1
  In  In53  1  0.18445427  0.84771382  0.66787055  1
  In  In54  1  0.34186793  0.31140033  0.71950918  1
  In  In55  1  0.19054672  0.68448937  0.41659786  1
  In  In56  1  0.82166145  0.34113818  0.83720517  1
  In  In57  1  0.45633091  0.31731689  0.13774599  1
  In  In58  1  0.31319399  0.15561534  0.51929586  1
  In  In59  1  0.47692628  0.29879878  0.51225381  1
  In  In60  1  0.82612558  0.02381806  0.17626623  1
  In  In61  1  0.79437531  0.68890509  0.16087614  1
  In  In62  1  0.53208198  0.70782269  0.16853666  1
  In  In63  1  0.79826848  0.53944994  0.70668424  1
  In  In64  1  0.54362494  0.10335477  0.73604804  1
  In  In65  1  0.19413786  0.85545253  0.27283029  1
  In  In66  1  0.33610170  0.47332797  0.50656902  1
  In  In67  1  0.51503571  -0.03830080  0.17305855  1
  In  In68  1  0.02406881  0.16281205  0.15841029  1
  In  In69  1  0.63238412  0.49724210  0.13974860  1
  In  In70  1  -0.03116305  0.82503598  0.13573248  1
  In  In71  1  0.81661420  0.33810689  0.54406844  1
  Te  Te72  1  0.09444659  0.09819308  0.04802630  1
  Te  Te73  1  0.12030427  0.11804815  0.40354737  1
  Te  Te74  1  0.10107248  0.07337980  0.76896036  1
  Te  Te75  1  0.08943916  0.39126503  0.08217920  1
  Te  Te76  1  0.10048323  0.41277117  0.40740297  1
  Te  Te77  1  0.06928747  0.41582363  0.76201235  1
  Te  Te78  1  0.08522998  0.74303197  0.08152521  1
  Te  Te79  1  0.06058684  0.76073549  0.41874908  1
  Te  Te80  1  0.11244065  0.72827249  0.74001295  1
  Te  Te81  1  0.42480049  0.06387440  0.10748216  1
  Te  Te82  1  0.39764171  0.08503762  0.40963602  1
  Te  Te83  1  0.42715579  0.01837496  0.76476614  1
  Te  Te84  1  0.43923721  0.43468423  0.03283862  1
  Te  Te85  1  0.42266959  0.39603304  0.40904895  1
  Te  Te86  1  0.45026651  0.38694651  0.78994054  1
  Te  Te87  1  0.41570127  0.77308475  0.10570571  1
  Te  Te88  1  0.39782749  0.76167963  0.34535833  1
  Te  Te89  1  0.42039579  0.74840140  0.72967365  1
  Te  Te90  1  0.73450400  0.08218543  0.07071787  1
  Te  Te91  1  0.74207597  0.05814437  0.41128048  1
  Te  Te92  1  0.73525878  0.06129372  0.80588396  1
  Te  Te93  1  0.73396139  0.41178768  0.07259558  1
  Te  Te94  1  0.75534763  0.42884605  0.42654606  1
  Te  Te95  1  0.72681099  0.41614323  0.74515292  1
  Te  Te96  1  0.72635337  0.75993959  0.05034102  1
  Te  Te97  1  0.76403899  0.76965104  0.41779793  1
  Te  Te98  1  0.70052180  0.78053657  0.75466278  1
  Te  Te99  1  0.12222782  0.24838970  0.23226291  1
  Te  Te100  1  0.10179952  0.22071315  0.61452033  1
  Te  Te101  1  0.11156818  0.24936623  0.90580004  1
  Te  Te102  1  0.08882666  0.57653535  0.21136191  1
  Te  Te103  1  0.09959902  0.57181550  0.56767247  1
  Te  Te104  1  0.08152253  0.57170369  0.92243502  1
  Te  Te105  1  0.05941370  0.91283368  0.22813119  1
  Te  Te106  1  0.12239209  0.95549747  0.57791289  1
  Te  Te107  1  0.07158335  0.91777390  0.92142531  1
  Te  Te108  1  0.40306695  0.23708960  0.25145721  1
  Te  Te109  1  0.41208174  0.21877768  0.62237187  1
  Te  Te110  1  0.40104428  0.19357870  0.90107518  1
  Te  Te111  1  0.44822953  0.59079494  0.23412334  1
  Te  Te112  1  0.42887336  0.58008776  0.56611423  1
  Te  Te113  1  0.43334132  0.60996904  0.87564866  1
  Te  Te114  1  0.44358699  0.90117537  0.28873367  1
  Te  Te115  1  0.37883125  0.93164505  0.56707695  1
  Te  Te116  1  0.46912008  0.90328492  0.94150000  1
  Te  Te117  1  0.75828513  0.25532951  0.27141262  1
  Te  Te118  1  0.73614978  0.22516818  0.58627679  1
  Te  Te119  1  0.73797557  0.28445274  0.94502220  1
  Te  Te120  1  0.71723783  0.58381210  0.23917559  1
  Te  Te121  1  0.74705852  0.60115379  0.57880660  1
  Te  Te122  1  0.75580953  0.57549972  0.90816139  1
  Te  Te123  1  0.75899206  0.90583602  0.23738010  1
  Te  Te124  1  0.71312595  0.94271475  0.59814063  1
  Te  Te125  1  0.72054963  0.92851014  0.90384473  1
  Te  Te126  1  0.31784685  0.26427952  0.10437150  1
  Te  Te127  1  0.26490930  0.26197088  0.42963366  1
  Te  Te128  1  0.22288398  0.27571601  0.79694702  1
  Te  Te129  1  0.27564593  0.59526804  0.05987454  1
  Te  Te130  1  0.27602068  0.55732768  0.39752654  1
  Te  Te131  1  0.28664842  0.56192251  0.76050055  1
  Te  Te132  1  0.26790459  0.90779727  0.11984027  1
  Te  Te133  1  0.22961645  0.92527681  0.39479303  1
  Te  Te134  1  0.28009566  0.91606160  0.76369931  1
  Te  Te135  1  0.56928826  0.24333710  0.06779020  1
  Te  Te136  1  0.58126471  0.22191708  0.43230677  1
  Te  Te137  1  0.60150555  0.23373141  0.77910893  1
  Te  Te138  1  0.57603960  0.60909601  0.06003355  1
  Te  Te139  1  0.58855016  0.60216819  0.40682123  1
  Te  Te140  1  0.57067308  0.57467017  0.73882709  1
  Te  Te141  1  0.61236146  0.86775203  0.10710310  1
  Te  Te142  1  0.54920407  0.91347168  0.40445985  1
  Te  Te143  1  0.54717003  0.92883335  0.75245311  1
  Te  Te144  1  0.91142187  0.24252182  0.08466446  1
  Te  Te145  1  0.92938786  0.27199816  0.44862406  1
  Te  Te146  1  0.90808601  0.25578182  0.74504760  1
  Te  Te147  1  0.88968849  0.59006852  0.08553289  1
  Te  Te148  1  0.91137008  0.59500065  0.42324247  1
  Te  Te149  1  0.91747295  0.62606553  0.74337496  1
  Te  Te150  1  0.91657630  0.95350740  0.07532681  1
  Te  Te151  1  0.94457816  0.94468645  0.43284675  1
  Te  Te152  1  0.91088975  0.90253742  0.74065088  1
  Te  Te153  1  0.20226503  0.10280387  0.26303940  1
  Te  Te154  1  0.22921574  0.06778281  0.59853313  1
  Te  Te155  1  0.27790254  0.08405875  0.93707913  1
  Te  Te156  1  0.27791674  0.41259134  0.22437363  1
  Te  Te157  1  0.25799127  0.40189990  0.61418183  1
  Te  Te158  1  0.25318390  0.40699390  0.89959300  1
  Te  Te159  1  0.23359070  0.71344839  0.27715018  1
  Te  Te160  1  0.24163990  0.74632304  0.55722849  1
  Te  Te161  1  0.24787118  0.76764419  0.91940675  1
  Te  Te162  1  0.60255806  0.07008041  0.24398232  1
  Te  Te163  1  0.59473756  0.06261486  0.59923962  1
  Te  Te164  1  0.60519911  0.09926699  0.88418101  1
  Te  Te165  1  0.58325916  0.39463442  0.24663309  1
  Te  Te166  1  0.57756821  0.39417583  0.58124107  1
  Te  Te167  1  0.54814872  0.41255775  0.92355671  1
  Te  Te168  1  0.62263364  0.80269486  0.24245646  1
  Te  Te169  1  0.56891191  0.75729093  0.55239873  1
  Te  Te170  1  0.54695573  0.70100423  0.91499300  1
  Te  Te171  1  0.92167246  0.10664744  0.26988377  1
  Te  Te172  1  0.91484299  0.09294123  0.60216038  1
  Te  Te173  1  0.90873800  0.07887993  0.89314437  1
  Te  Te174  1  0.92685776  0.41938928  0.26434693  1
  Te  Te175  1  0.90837749  0.44470347  0.60582570  1
  Te  Te176  1  0.90708093  0.42714267  0.93124663  1
  Te  Te177  1  0.91483448  0.73470463  0.24587031  1
  Te  Te178  1  0.89687638  0.77566289  0.59571483  1
  Te  Te179  1  0.90990934  0.76792912  0.91438120  1
