# generated using pymatgen
data_In2Te3
_symmetry_space_group_name_H-M   'P 1'
_cell_length_a   18.93522221
_cell_length_b   18.90488447
_cell_length_c   18.89632096
_cell_angle_alpha   90.16158562
_cell_angle_beta   90.11928243
_cell_angle_gamma   90.05699905
_symmetry_Int_Tables_number   1
_chemical_formula_structural   In2Te3
_chemical_formula_sum   'In72 Te108'
_cell_volume   6764.23683177
_cell_formula_units_Z   36
loop_
 _symmetry_equiv_pos_site_id
 _symmetry_equiv_pos_as_xyz
  1  'x, y, z'
loop_
 _atom_site_type_symbol
 _atom_site_label
 _atom_site_symmetry_multiplicity
 _atom_site_fract_x
 _atom_site_fract_y
 _atom_site_fract_z
 _atom_site_occupancy
  In  In0  1  0.48848969  0.52406679  0.64646956  1
  In  In1  1  0.02194022  0.17794351  0.14884488  1
  In  In2  1  0.82906885  0.82273162  -0.01901469  1
  In  In3  1  0.00224930  0.67620895  0.67562364  1
  In  In4  1  0.33573784  0.17841431  0.14141676  1
  In  In5  1  0.63550436  0.64742077  0.35141909  1
  In  In6  1  0.82923220  0.82802079  0.33436947  1
  In  In7  1  0.14129291  0.81889308  0.33354286  1
  In  In8  1  0.65826881  0.47551952  0.84726463  1
  In  In9  1  0.00486579  0.83510367  0.14999178  1
  In  In10  1  0.18182263  0.14720392  0.32716450  1
  In  In11  1  0.19746322  0.48345766  0.65609198  1
  In  In12  1  0.32866411  0.02823156  -0.02956532  1
  In  In13  1  0.49138738  0.01637035  0.52837949  1
  In  In14  1  0.80355428  0.03391341  0.48700019  1
  In  In15  1  0.19118361  0.63691745  0.17598806  1
  In  In16  1  -0.02335561  0.32864459  0.66347300  1
  In  In17  1  0.02098773  0.34115308  0.34363868  1
  In  In18  1  0.49982885  0.83444847  0.35168344  1
  In  In19  1  0.16386132  0.43582576  -0.01510208  1
  In  In20  1  0.33983602  -0.02328263  0.31771431  1
  In  In21  1  0.81109972  0.31456166  0.50166857  1
  In  In22  1  0.86148777  0.64669080  0.16240376  1
  In  In23  1  0.16774285  0.64061425  0.81450415  1
  In  In24  1  0.64638870  0.18033025  0.16360608  1
  In  In25  1  0.50327217  0.68381234  0.82938218  1
  In  In26  1  0.83109838  0.64575372  0.48912547  1
  In  In27  1  0.32213008  0.82445944  0.14684637  1
  In  In28  1  0.33818750  0.82332449  0.82374043  1
  In  In29  1  0.49614425  0.85184892  0.00773929  1
  In  In30  1  0.82508783  0.46536780  0.33594443  1
  In  In31  1  -0.00663690  -0.02216184  0.31683798  1
  In  In32  1  0.00586518  0.49289583  0.50072498  1
  In  In33  1  0.14390865  0.03147611  0.84017689  1
  In  In34  1  0.67436723  0.32328643  0.67553392  1
  In  In35  1  0.17315534  0.85952726  0.65700373  1
  In  In36  1  0.34738194  0.82845438  0.49780682  1
  In  In37  1  0.31785925  0.32964848  0.33798424  1
  In  In38  1  0.14319099  0.85148049  -0.02575306  1
  In  In39  1  0.82826821  0.03553452  0.14895882  1
  In  In40  1  0.01049396  0.48733497  0.84868472  1
  In  In41  1  0.33366996  0.63364870  -0.02137401  1
  In  In42  1  0.33135029  0.49296566  0.83579887  1
  In  In43  1  -0.00390146  0.85763624  0.55821382  1
  In  In44  1  0.66596675  0.31760592  0.33690166  1
  In  In45  1  0.34458905  0.16814023  0.53026468  1
  In  In46  1  0.48514413  0.49242791  0.37046179  1
  In  In47  1  0.50392314  0.31594273  0.51033463  1
  In  In48  1  0.83745294  0.49178770  0.01260103  1
  In  In49  1  0.81221454  0.66333407  0.81758611  1
  In  In50  1  0.35120869  0.34055699  0.00088292  1
  In  In51  1  0.65723536  0.00460796  0.67483123  1
  In  In52  1  0.05814624  0.64518690  0.32271812  1
  In  In53  1  0.18686139  0.64757455  0.47200124  1
  In  In54  1  0.81279843  0.29839648  0.83699221  1
  In  In55  1  0.16235690  0.21341243  0.68919781  1
  In  In56  1  -0.00562461  0.16458075  0.51374075  1
  In  In57  1  0.66417432  0.86931261  0.16729979  1
  In  In58  1  -0.01286620  0.68108471  -0.00315664  1
  In  In59  1  0.49541141  0.34472351  0.84052053  1
  In  In60  1  0.66530329  0.68864622  0.65217219  1
  In  In61  1  0.67106098  0.14855146  0.84466458  1
  In  In62  1  0.19449278  0.02618976  0.51474363  1
  In  In63  1  0.48840011  0.64748699  0.19176349  1
  In  In64  1  0.66038989  0.87527058  0.83683062  1
  In  In65  1  0.50739776  0.17000889  0.33069694  1
  In  In66  1  0.51707592  0.16924703  -0.00026524  1
  In  In67  1  0.84888828  0.29996316  0.15068283  1
  In  In68  1  0.65288020  0.66394731  0.04125631  1
  In  In69  1  0.63595271  0.85043638  0.51174018  1
  In  In70  1  -0.01459919  0.06732849  -0.02931121  1
  In  In71  1  0.65807301  0.49538054  0.19621872  1
  Te  Te72  1  0.09669946  0.08419693  0.06302266  1
  Te  Te73  1  0.07912494  0.07227252  0.41246216  1
  Te  Te74  1  0.06171373  0.12940005  0.76100398  1
  Te  Te75  1  0.06738648  0.36359062  0.06890926  1
  Te  Te76  1  0.11193857  0.41964678  0.43030180  1
  Te  Te77  1  0.07892021  0.42157409  0.73098970  1
  Te  Te78  1  0.10509892  0.73813224  0.08671850  1
  Te  Te79  1  0.06405578  0.74576958  0.44090161  1
  Te  Te80  1  0.10074954  0.76133430  0.75348907  1
  Te  Te81  1  0.42401270  0.07301004  0.07997248  1
  Te  Te82  1  0.40142705  0.08175238  0.41020945  1
  Te  Te83  1  0.41348775  0.08106252  0.65443080  1
  Te  Te84  1  0.38842658  0.44855748  0.09145923  1
  Te  Te85  1  0.38978616  0.40591881  0.46093180  1
  Te  Te86  1  0.41752363  0.41959562  0.73177346  1
  Te  Te87  1  0.41994151  0.72889409  0.07368487  1
  Te  Te88  1  0.41762669  0.72912711  0.41466145  1
  Te  Te89  1  0.41588660  0.74305510  0.72754231  1
  Te  Te90  1  0.73921878  0.11659128  0.06270219  1
  Te  Te91  1  0.74323827  0.13362495  0.39902578  1
  Te  Te92  1  0.76709597  0.07021705  0.75829950  1
  Te  Te93  1  0.75014579  0.41269462  0.10798171  1
  Te  Te94  1  0.72077634  0.42293432  0.43309445  1
  Te  Te95  1  0.76352624  0.41956503  0.75665603  1
  Te  Te96  1  0.76375175  0.75260661  0.10654610  1
  Te  Te97  1  0.73022873  0.75320904  0.42359422  1
  Te  Te98  1  0.74341162  0.77826077  0.74849605  1
  Te  Te99  1  0.10664143  0.25438119  0.25152234  1
  Te  Te100  1  0.08563465  0.27112858  0.57138964  1
  Te  Te101  1  0.09791225  0.30260266  0.93876281  1
  Te  Te102  1  0.10027677  0.53312171  0.23285461  1
  Te  Te103  1  0.09084427  0.58652612  0.58829272  1
  Te  Te104  1  0.09987737  0.57945606  0.93367111  1
  Te  Te105  1  0.10306817  0.92247680  0.22734740  1
  Te  Te106  1  0.08134378  0.98120244  0.61290683  1
  Te  Te107  1  0.04193659  0.93399077  0.90431735  1
  Te  Te108  1  0.41495747  0.25763637  0.24681537  1
  Te  Te109  1  0.44216607  0.23779941  0.62225137  1
  Te  Te110  1  0.41297444  0.23663469  0.90928100  1
  Te  Te111  1  0.39572781  0.57179688  0.27949194  1
  Te  Te112  1  0.42629440  0.60281868  0.53795764  1
  Te  Te113  1  0.44634177  0.56491503  0.90668040  1
  Te  Te114  1  0.43093626  0.89664763  0.22702670  1
  Te  Te115  1  0.38996925  0.92975473  0.59841550  1
  Te  Te116  1  0.42113869  0.92603917  0.90010280  1
  Te  Te117  1  0.76384478  0.23166716  0.26167627  1
  Te  Te118  1  0.77147289  0.22758751  0.61480862  1
  Te  Te119  1  0.73506831  0.23741326  0.94795774  1
  Te  Te120  1  0.75529464  0.59442533  0.26210202  1
  Te  Te121  1  0.74898896  0.58339762  0.59231554  1
  Te  Te122  1  0.74767915  0.59215482  0.93918173  1
  Te  Te123  1  0.76289623  0.94073398  0.25710571  1
  Te  Te124  1  0.74819698  0.92312329  0.57999576  1
  Te  Te125  1  0.77557783  0.94138364  0.90817631  1
  Te  Te126  1  0.24404944  0.27892904  0.08358199  1
  Te  Te127  1  0.24532416  0.23575288  0.43255408  1
  Te  Te128  1  0.27269541  0.25073342  0.77932935  1
  Te  Te129  1  0.26791483  0.53892386  0.07746764  1
  Te  Te130  1  0.25793354  0.55712106  0.37852241  1
  Te  Te131  1  0.28045487  0.59195217  0.72998632  1
  Te  Te132  1  0.25154361  0.92201193  0.05379796  1
  Te  Te133  1  0.23818728  0.91298465  0.41521949  1
  Te  Te134  1  0.24122750  0.92861981  0.77393172  1
  Te  Te135  1  0.56398662  0.27813009  0.08915494  1
  Te  Te136  1  0.60453779  0.21967175  0.44139964  1
  Te  Te137  1  0.58159518  0.24392202  0.76412932  1
  Te  Te138  1  0.56145772  0.55503185  0.09381106  1
  Te  Te139  1  0.56353816  0.58304300  0.46462660  1
  Te  Te140  1  0.59568718  0.58023338  0.75506964  1
  Te  Te141  1  0.60561061  0.93919916  0.05364226  1
  Te  Te142  1  0.57869996  0.94724314  0.41212874  1
  Te  Te143  1  0.56013803  0.91278429  0.73765208  1
  Te  Te144  1  0.92523711  0.22746607  0.04622679  1
  Te  Te145  1  0.91915693  0.25207738  0.41455800  1
  Te  Te146  1  0.93478900  0.23831109  0.77445265  1
  Te  Te147  1  0.95530424  0.55864084  0.08383938  1
  Te  Te148  1  0.92745451  0.57295083  0.39264266  1
  Te  Te149  1  0.92171760  0.57724575  0.75873802  1
  Te  Te150  1  0.90378706  0.91968066  0.07890186  1
  Te  Te151  1  0.90914161  0.91879875  0.42927143  1
  Te  Te152  1  0.95992173  0.91902431  0.68422455  1
  Te  Te153  1  0.26282428  0.06961296  0.22605625  1
  Te  Te154  1  0.25418886  0.09567348  0.63731910  1
  Te  Te155  1  0.24047763  0.12700299  0.90335068  1
  Te  Te156  1  0.23239204  0.43803101  0.28094465  1
  Te  Te157  1  0.28755965  0.40110260  0.57959833  1
  Te  Te158  1  0.23121400  0.37653156  0.85987492  1
  Te  Te159  1  0.25469817  0.74802039  0.25972039  1
  Te  Te160  1  0.24209368  0.75030785  0.57422239  1
  Te  Te161  1  0.24870399  0.74515387  0.92140730  1
  Te  Te162  1  0.57689221  0.07701555  0.24202202  1
  Te  Te163  1  0.59769194  0.10316311  0.58256370  1
  Te  Te164  1  0.56778594  0.06437116  0.90760632  1
  Te  Te165  1  0.56107984  0.40609658  0.26992089  1
  Te  Te166  1  0.58528540  0.41444329  0.59417906  1
  Te  Te167  1  0.58664596  0.39571981  0.94657948  1
  Te  Te168  1  0.59240651  0.75178488  0.24584339  1
  Te  Te169  1  0.55226360  0.76376401  0.59498305  1
  Te  Te170  1  0.59884510  0.75489513  0.92894101  1
  Te  Te171  1  0.93136310  0.09385845  0.24534229  1
  Te  Te172  1  0.88618675  0.10181690  0.59280546  1
  Te  Te173  1  0.87277756  0.07124865  0.87564156  1
  Te  Te174  1  0.92183463  0.40187060  0.24160810  1
  Te  Te175  1  0.89523968  0.42252812  0.57560928  1
  Te  Te176  1  0.90493487  0.40130570  0.91415041  1
  Te  Te177  1  0.93764194  0.74803718  0.25615124  1
  Te  Te178  1  0.89640078  0.74144952  0.59178614  1
  Te  Te179  1  0.92274894  0.75380557  0.88198727  1
