# generated using pymatgen
data_In2Te3
_symmetry_space_group_name_H-M   'P 1'
_cell_length_a   18.76501083
_cell_length_b   18.77431740
_cell_length_c   18.76463587
_cell_angle_alpha   89.96208436
_cell_angle_beta   90.02570653
_cell_angle_gamma   89.97848766
_symmetry_Int_Tables_number   1
_chemical_formula_structural   In2Te3
_chemical_formula_sum   'In72 Te108'
_cell_volume   6610.78369136
_cell_formula_units_Z   36
loop_
 _symmetry_equiv_pos_site_id
 _symmetry_equiv_pos_as_xyz
  1  'x, y, z'
loop_
 _atom_site_type_symbol
 _atom_site_label
 _atom_site_symmetry_multiplicity
 _atom_site_fract_x
 _atom_site_fract_y
 _atom_site_fract_z
 _atom_site_occupancy
  In  In0  1  0.49670668  0.16439639  0.00540959  1
  In  In1  1  0.68720135  0.82482563  0.81589919  1
  In  In2  1  0.83906853  0.34069078  0.17026273  1
  In  In3  1  0.14716690  0.00438547  0.82443785  1
  In  In4  1  0.83787344  -0.00627284  0.49968627  1
  In  In5  1  0.64782220  0.64538547  0.02051094  1
  In  In6  1  -0.00212643  0.29711823  0.00745106  1
  In  In7  1  0.31943183  0.34567440  0.67352614  1
  In  In8  1  -0.00496610  0.82434789  0.82363108  1
  In  In9  1  0.82553660  0.18239236  0.32497182  1
  In  In10  1  0.49482890  0.30999635  0.84930616  1
  In  In11  1  0.49844246  0.81633447  0.64342104  1
  In  In12  1  0.52072861  0.84174119  0.31391506  1
  In  In13  1  0.17345853  0.00568309  0.49449571  1
  In  In14  1  0.14747527  0.48849513  0.32851160  1
  In  In15  1  -0.02802245  0.00605720  0.32767024  1
  In  In16  1  -0.01857355  0.18894867  0.49463110  1
  In  In17  1  0.31928103  0.49130767  0.85807040  1
  In  In18  1  0.00038257  0.01965531  0.65382487  1
  In  In19  1  -0.01518750  0.50750182  0.80644483  1
  In  In20  1  0.82619939  0.01026330  0.84246991  1
  In  In21  1  0.34018812  0.31949187  0.34361342  1
  In  In22  1  0.35158491  0.66085484  0.30851701  1
  In  In23  1  0.53119322  0.32802039  0.50439682  1
  In  In24  1  0.81763698  0.52130626  0.64019361  1
  In  In25  1  0.19096978  0.82998599  0.00793265  1
  In  In26  1  0.00029685  0.83309965  0.17741371  1
  In  In27  1  0.84966736  0.33048427  0.83583603  1
  In  In28  1  0.17539768  0.17903064  0.02097639  1
  In  In29  1  0.17303292  0.83380538  0.35045591  1
  In  In30  1  0.00241161  0.03291012  0.00325452  1
  In  In31  1  0.55014466  0.85555100  0.03953850  1
  In  In32  1  0.66074327  0.18191576  0.84042974  1
  In  In33  1  0.14247571  0.83121004  0.67704255  1
  In  In34  1  0.16459754  0.48731608  0.01114766  1
  In  In35  1  0.50074524  0.34847293  0.18629551  1
  In  In36  1  0.52574300  0.48452745  0.65154826  1
  In  In37  1  0.66754994  0.00975479  0.65225318  1
  In  In38  1  0.82632867  0.02157460  0.18236689  1
  In  In39  1  -0.01420738  0.65180736  0.01160717  1
  In  In40  1  0.50327027  0.65158162  0.83599837  1
  In  In41  1  0.32856294  0.67583330  0.00831677  1
  In  In42  1  0.51375860  0.17154346  0.33192750  1
  In  In43  1  0.52872512  0.51141225  0.32934434  1
  In  In44  1  -0.01945769  0.63980469  0.33859945  1
  In  In45  1  0.32945020  0.15518354  0.48217380  1
  In  In46  1  0.52118990  0.17467690  0.65630781  1
  In  In47  1  0.85813235  0.80452985  0.63894907  1
  In  In48  1  -0.02261514  0.50029536  0.17314669  1
  In  In49  1  0.33953857  0.84559248  0.17678209  1
  In  In50  1  0.32565687  0.85982237  0.50047403  1
  In  In51  1  0.32952903  0.65273342  0.65884369  1
  In  In52  1  0.34293819  -0.00148580  0.01854338  1
  In  In53  1  0.81830128  0.83354135  0.34729154  1
  In  In54  1  0.66713184  -0.00353597  0.33197700  1
  In  In55  1  0.17285336  0.16420258  0.28912312  1
  In  In56  1  -0.01352109  0.48901850  0.48457474  1
  In  In57  1  0.66733382  0.49803937  0.83045720  1
  In  In58  1  0.15224810  0.63854641  0.49756333  1
  In  In59  1  0.34773793  0.49839205  0.17626854  1
  In  In60  1  0.67342432  0.34499150  0.01117045  1
  In  In61  1  0.14439950  0.49451527  0.65492721  1
  In  In62  1  0.81864254  0.82008424  0.01990827  1
  In  In63  1  0.81763180  0.49953924  0.00914868  1
  In  In64  1  0.50739631  0.02254872  0.83494989  1
  In  In65  1  0.53809826  0.67652429  0.45973757  1
  In  In66  1  0.68853768  0.65577323  0.31583204  1
  In  In67  1  0.33462967  0.18135155  0.83385528  1
  In  In68  1  0.32318541  0.83462580  0.86355128  1
  In  In69  1  -0.00304099  0.33918908  0.66578195  1
  In  In70  1  0.33632908  0.49403000  0.52289248  1
  In  In71  1  0.32735938  -0.00713744  0.62589469  1
  Te  Te72  1  0.09521257  0.08434169  0.10468938  1
  Te  Te73  1  0.07087710  0.08833517  0.41443846  1
  Te  Te74  1  0.06916291  0.10598054  0.75245461  1
  Te  Te75  1  0.06838726  0.40309408  0.09705732  1
  Te  Te76  1  0.07553314  0.39309411  0.41428058  1
  Te  Te77  1  0.09185417  0.40680233  0.76773703  1
  Te  Te78  1  0.08363618  0.74634077  0.08316386  1
  Te  Te79  1  0.07111320  0.74021197  0.41679953  1
  Te  Te80  1  0.08021074  0.72418953  0.75564147  1
  Te  Te81  1  0.41814814  0.08886512  0.10660649  1
  Te  Te82  1  0.43789702  0.07795122  0.41964590  1
  Te  Te83  1  0.41227552  0.08878741  0.73582851  1
  Te  Te84  1  0.42100329  0.41457681  0.07888104  1
  Te  Te85  1  0.42738563  0.42525867  0.41566427  1
  Te  Te86  1  0.42404173  0.42741753  0.75322217  1
  Te  Te87  1  0.42738320  0.76706189  0.07938246  1
  Te  Te88  1  0.40733117  0.75451270  0.41606396  1
  Te  Te89  1  0.40961185  0.75190428  0.75377588  1
  Te  Te90  1  0.72758627  0.06346423  0.08153219  1
  Te  Te91  1  0.74991852  0.08951835  0.42085972  1
  Te  Te92  1  0.74795009  0.10078084  0.74422449  1
  Te  Te93  1  0.72257240  0.44644556  0.11626487  1
  Te  Te94  1  0.74722749  0.35143962  0.44823875  1
  Te  Te95  1  0.76228501  0.41629021  0.74535125  1
  Te  Te96  1  0.71473172  0.75207516  0.10374408  1
  Te  Te97  1  0.75627707  0.72672880  0.43291491  1
  Te  Te98  1  0.77171153  0.73108137  0.73789972  1
  Te  Te99  1  0.09631778  0.26361644  0.21125631  1
  Te  Te100  1  0.08345238  0.25425963  0.57932283  1
  Te  Te101  1  0.09224650  0.23580669  0.91252370  1
  Te  Te102  1  0.08535734  0.59202777  0.23634235  1
  Te  Te103  1  0.03994777  0.59315863  0.59798996  1
  Te  Te104  1  0.07549286  0.57156801  0.91844020  1
  Te  Te105  1  0.08632422  0.92577032  0.26152325  1
  Te  Te106  1  0.07442081  0.91454722  0.57027906  1
  Te  Te107  1  0.08004155  0.90822339  0.92480657  1
  Te  Te108  1  0.40919636  0.23465636  0.23869471  1
  Te  Te109  1  0.41010232  0.26065971  0.57829020  1
  Te  Te110  1  0.39014067  0.26250141  0.95059052  1
  Te  Te111  1  0.46290580  0.60079062  0.21692525  1
  Te  Te112  1  0.44253595  0.59494224  0.57035323  1
  Te  Te113  1  0.41981402  0.57481704  0.93803813  1
  Te  Te114  1  0.42897372  0.93869915  0.24927918  1
  Te  Te115  1  0.45036658  0.93252651  0.55685818  1
  Te  Te116  1  0.43856926  0.91791593  0.92647491  1
  Te  Te117  1  0.73520205  0.24968319  0.22780312  1
  Te  Te118  1  0.70204243  0.25601515  0.54748946  1
  Te  Te119  1  0.76209004  0.24873274  0.93289762  1
  Te  Te120  1  0.76316632  0.56704440  0.22405619  1
  Te  Te121  1  0.74468718  0.61183950  0.54618660  1
  Te  Te122  1  0.74799394  0.59699088  0.91495562  1
  Te  Te123  1  0.74392227  0.90261244  0.23567056  1
  Te  Te124  1  0.74944975  0.90170436  0.58245002  1
  Te  Te125  1  0.74081109  0.91549267  0.92660633  1
  Te  Te126  1  0.22905960  0.25377521  0.13806094  1
  Te  Te127  1  0.22725806  0.24289888  0.41124807  1
  Te  Te128  1  0.23576069  0.25283636  0.75118042  1
  Te  Te129  1  0.24606734  0.58441090  0.09834157  1
  Te  Te130  1  0.26216644  0.57493474  0.40761297  1
  Te  Te131  1  0.24122549  0.57004589  0.74916275  1
  Te  Te132  1  0.23444437  0.93626275  0.10659285  1
  Te  Te133  1  0.27265006  0.95285283  0.38258460  1
  Te  Te134  1  0.25887051  0.91546420  0.74666282  1
  Te  Te135  1  0.58547557  0.25228769  0.09341119  1
  Te  Te136  1  0.61733871  0.26509653  0.39497600  1
  Te  Te137  1  0.59676182  0.27745993  0.73978732  1
  Te  Te138  1  0.55528593  0.56011382  0.09565738  1
  Te  Te139  1  0.63024447  0.55482475  0.43591560  1
  Te  Te140  1  0.59878578  0.59428192  0.73170999  1
  Te  Te141  1  0.60804164  0.96996910  0.11639716  1
  Te  Te142  1  0.60426761  0.89686499  0.42211414  1
  Te  Te143  1  0.57701013  0.91670062  0.74678653  1
  Te  Te144  1  0.89477981  0.22878440  0.08803339  1
  Te  Te145  1  0.91085795  0.28217248  0.39916099  1
  Te  Te146  1  0.91482618  0.23930831  0.74093016  1
  Te  Te147  1  0.87725284  0.60372259  0.11277281  1
  Te  Te148  1  0.87842340  0.55932526  0.40932923  1
  Te  Te149  1  0.88460939  0.60068825  0.74957445  1
  Te  Te150  1  0.91627892  0.92318453  0.08402222  1
  Te  Te151  1  0.93094343  0.89793337  0.42722987  1
  Te  Te152  1  0.90832241  0.92319218  0.74300851  1
  Te  Te153  1  0.27521648  0.06104049  0.27248812  1
  Te  Te154  1  0.23085097  0.10522806  0.59551336  1
  Te  Te155  1  0.25526508  0.07127422  0.91356802  1
  Te  Te156  1  0.25195816  0.40556160  0.25087125  1
  Te  Te157  1  0.22404715  0.40196691  0.56326898  1
  Te  Te158  1  0.23865071  0.38982607  0.92700730  1
  Te  Te159  1  0.24206090  0.74675364  0.24423498  1
  Te  Te160  1  0.24201726  0.75055662  0.57558524  1
  Te  Te161  1  0.22758095  0.72343716  0.90223555  1
  Te  Te162  1  0.59569533  0.08743333  0.23534164  1
  Te  Te163  1  0.59126399  0.09290366  0.55540482  1
  Te  Te164  1  0.60480496  0.07727957  0.93698105  1
  Te  Te165  1  0.61140811  0.40265871  0.27108686  1
  Te  Te166  1  0.63523077  0.41172498  0.57741765  1
  Te  Te167  1  0.57377595  0.42010472  0.92259097  1
  Te  Te168  1  0.60016767  0.74537771  0.23216427  1
  Te  Te169  1  0.60494633  0.73793083  0.57957162  1
  Te  Te170  1  0.58479535  0.75513743  0.91367109  1
  Te  Te171  1  0.93483214  0.11823799  0.23241132  1
  Te  Te172  1  0.89159548  0.10564293  0.58803335  1
  Te  Te173  1  0.91461072  0.10656505  0.91161741  1
  Te  Te174  1  0.90863387  0.41831217  0.27771868  1
  Te  Te175  1  0.89340437  0.40592531  0.57425904  1
  Te  Te176  1  0.92530069  0.42483474  0.93162908  1
  Te  Te177  1  0.90411597  0.74527960  0.25448075  1
  Te  Te178  1  0.95606335  0.72353521  0.56608708  1
  Te  Te179  1  0.90455046  0.74378254  0.91901683  1
