# generated using pymatgen
data_In2Te3
_symmetry_space_group_name_H-M   'P 1'
_cell_length_a   19.02340134
_cell_length_b   19.02129693
_cell_length_c   19.02332225
_cell_angle_alpha   89.98780945
_cell_angle_beta   90.39742864
_cell_angle_gamma   89.92567746
_symmetry_Int_Tables_number   1
_chemical_formula_structural   In2Te3
_chemical_formula_sum   'In72 Te108'
_cell_volume   6883.41313533
_cell_formula_units_Z   36
loop_
 _symmetry_equiv_pos_site_id
 _symmetry_equiv_pos_as_xyz
  1  'x, y, z'
loop_
 _atom_site_type_symbol
 _atom_site_label
 _atom_site_symmetry_multiplicity
 _atom_site_fract_x
 _atom_site_fract_y
 _atom_site_fract_z
 _atom_site_occupancy
  In  In0  1  0.50258266  0.50374854  0.32620464  1
  In  In1  1  0.45977600  0.11825181  0.66096839  1
  In  In2  1  -0.00657954  0.65449251  -0.00503245  1
  In  In3  1  0.17122349  0.83612018  -0.01290106  1
  In  In4  1  0.31621075  0.16238106  0.18778190  1
  In  In5  1  0.01318171  0.31617144  0.33672261  1
  In  In6  1  0.83445843  0.33856747  0.16925943  1
  In  In7  1  0.16737678  0.46645120  0.01660533  1
  In  In8  1  0.32076892  0.68160560  -0.00098717  1
  In  In9  1  0.85740033  0.67392500  0.16296978  1
  In  In10  1  0.85925467  0.17254067  0.32084528  1
  In  In11  1  0.16097189  0.68434103  0.48350635  1
  In  In12  1  0.15034740  0.48102435  0.65438013  1
  In  In13  1  0.82023223  0.51371137  0.70336817  1
  In  In14  1  0.51986900  0.68892815  0.50037365  1
  In  In15  1  0.49872273  0.66679267  0.83353351  1
  In  In16  1  0.16943501  -0.01150375  0.84335978  1
  In  In17  1  0.00099651  0.83034548  0.48965669  1
  In  In18  1  0.01106828  0.16946343  0.17643014  1
  In  In19  1  0.51795675  0.33473093  0.83811267  1
  In  In20  1  0.51795350  0.49723195  0.64741190  1
  In  In21  1  0.48234674  0.17207454  0.32496819  1
  In  In22  1  0.33716678  0.31518179  0.67301096  1
  In  In23  1  0.17983623  0.14856380  0.63962235  1
  In  In24  1  0.83582034  -0.00811742  0.82415305  1
  In  In25  1  0.48759849  0.00727048  0.82739190  1
  In  In26  1  0.31095042  0.48276716  0.84168588  1
  In  In27  1  0.17378276  0.84651974  0.65797015  1
  In  In28  1  0.68286824  0.00066954  0.01523869  1
  In  In29  1  -0.00573191  0.13785203  0.49106806  1
  In  In30  1  0.46617228  -0.04081127  0.50822052  1
  In  In31  1  -0.04259632  0.65951356  0.69293622  1
  In  In32  1  0.67654922  0.68587991  0.31181160  1
  In  In33  1  0.83660408  0.83005620  -0.01751337  1
  In  In34  1  0.67032421  0.34117290  -0.01099302  1
  In  In35  1  0.82354922  0.65664199  0.48201687  1
  In  In36  1  0.14490838  0.68024176  0.82604876  1
  In  In37  1  0.49893974  0.83017605  0.32559701  1
  In  In38  1  0.18261786  0.32099430  0.51054493  1
  In  In39  1  0.04310667  -0.01840555  0.33896078  1
  In  In40  1  -0.01690598  -0.02605244  0.67512701  1
  In  In41  1  0.32770669  0.67329173  0.32278510  1
  In  In42  1  0.67757269  -0.01238384  0.33222591  1
  In  In43  1  0.49656962  0.33166826  0.52051288  1
  In  In44  1  0.65827013  0.18018806  0.50934756  1
  In  In45  1  0.33488304  0.82689782  0.16344526  1
  In  In46  1  0.30275141  -0.00563877  0.35388929  1
  In  In47  1  0.49776779  0.20107840  -0.01269538  1
  In  In48  1  -0.00474347  0.48521292  0.51264903  1
  In  In49  1  0.17182630  0.68884778  0.17041146  1
  In  In50  1  0.81086887  0.47478890  0.35447660  1
  In  In51  1  0.67729463  0.65146071  -0.00938888  1
  In  In52  1  0.66486626  0.18320987  0.82934888  1
  In  In53  1  -0.01067325  0.33715337  0.68886269  1
  In  In54  1  0.66277085  -0.00947164  0.67190240  1
  In  In55  1  -0.02814605  0.35906368  -0.00480632  1
  In  In56  1  0.81139184  -0.00007305  0.51918705  1
  In  In57  1  0.83568704  0.83614904  0.32401589  1
  In  In58  1  0.64249257  0.51069056  0.15952947  1
  In  In59  1  0.36762528  0.48551393  0.14208312  1
  In  In60  1  -0.00363497  -0.02485201  0.00790103  1
  In  In61  1  0.66652629  0.50202699  0.85083574  1
  In  In62  1  0.34045418  0.01324952  -0.01556214  1
  In  In63  1  0.00320685  0.16843747  0.82939455  1
  In  In64  1  0.51251489  -0.00491289  0.14908785  1
  In  In65  1  0.14889204  0.18934290  0.02430953  1
  In  In66  1  0.32203882  0.33520678  0.34301935  1
  In  In67  1  0.68803425  0.17233119  0.15815600  1
  In  In68  1  0.69749485  0.71461540  0.67872578  1
  In  In69  1  0.33973404  0.65951393  0.66026046  1
  In  In70  1  0.65090761  0.33119673  0.65269103  1
  In  In71  1  0.16330247  0.51704824  0.31186912  1
  Te  Te72  1  0.08489568  0.06723872  0.08819641  1
  Te  Te73  1  0.10398532  0.09880863  0.40500557  1
  Te  Te74  1  0.08373009  0.07299775  0.73981466  1
  Te  Te75  1  0.06757939  0.40139443  0.09899115  1
  Te  Te76  1  0.10183221  0.41833172  0.42179145  1
  Te  Te77  1  0.09266671  0.40894201  0.76593781  1
  Te  Te78  1  0.07714090  0.75751399  0.07361929  1
  Te  Te79  1  0.06214887  0.74153897  0.38902209  1
  Te  Te80  1  0.06577203  0.76189637  0.72864351  1
  Te  Te81  1  0.42607198  0.10271031  0.08208942  1
  Te  Te82  1  0.41632887  0.07138803  0.41856928  1
  Te  Te83  1  0.38639435  0.11013288  0.78726204  1
  Te  Te84  1  0.44802074  0.41092009  0.04992360  1
  Te  Te85  1  0.41989903  0.41904670  0.42271522  1
  Te  Te86  1  0.42839921  0.42872741  0.74829910  1
  Te  Te87  1  0.42123760  0.76709249  0.06405868  1
  Te  Te88  1  0.40748185  0.75953134  0.42055131  1
  Te  Te89  1  0.43145306  0.74915024  0.73034207  1
  Te  Te90  1  0.77748746  0.07738089  0.09553407  1
  Te  Te91  1  0.75386556  0.09897574  0.41335828  1
  Te  Te92  1  0.75001851  0.09015706  0.74488883  1
  Te  Te93  1  0.74885958  0.42930184  0.08312661  1
  Te  Te94  1  0.74250862  0.40849420  0.46256756  1
  Te  Te95  1  0.73299414  0.40263157  0.76001374  1
  Te  Te96  1  0.75548090  0.74721644  0.08167098  1
  Te  Te97  1  0.74233483  0.76857550  0.42105926  1
  Te  Te98  1  0.81861236  0.72434735  0.76460820  1
  Te  Te99  1  0.10630741  0.25819418  0.24289957  1
  Te  Te100  1  0.07217231  0.24808713  0.58466177  1
  Te  Te101  1  0.07079348  0.26770472  0.92093560  1
  Te  Te102  1  0.07439018  0.59037847  0.22162406  1
  Te  Te103  1  0.07579499  0.59691878  0.58255938  1
  Te  Te104  1  0.10628482  0.57879003  0.92744914  1
  Te  Te105  1  0.12827512  0.90036683  0.25524088  1
  Te  Te106  1  0.08246465  0.93177058  0.56629612  1
  Te  Te107  1  0.06355678  0.89745710  0.89704514  1
  Te  Te108  1  0.41445423  0.27288157  0.23844785  1
  Te  Te109  1  0.39959973  0.22560571  0.56929848  1
  Te  Te110  1  0.40594153  0.24660713  0.87962282  1
  Te  Te111  1  0.42169161  0.59622336  0.23510445  1
  Te  Te112  1  0.42904747  0.58436640  0.56266806  1
  Te  Te113  1  0.39760266  0.58469675  0.91188557  1
  Te  Te114  1  0.41267336  0.93365829  0.24897520  1
  Te  Te115  1  0.38056757  0.95633181  0.62696636  1
  Te  Te116  1  0.42806531  0.91462760  0.92475852  1
  Te  Te117  1  0.74933880  0.26075619  0.26647748  1
  Te  Te118  1  0.75606507  0.25350001  0.58878698  1
  Te  Te119  1  0.75547893  0.24102956  0.92825193  1
  Te  Te120  1  0.76111280  0.57829010  0.24724940  1
  Te  Te121  1  0.74620358  0.59884361  0.59677868  1
  Te  Te122  1  0.77977218  0.55781867  0.93031895  1
  Te  Te123  1  0.75581060  0.91949740  0.23248502  1
  Te  Te124  1  0.75708408  0.89533013  0.60685621  1
  Te  Te125  1  0.73573580  0.91228987  0.90324086  1
  Te  Te126  1  0.26522098  0.25396487  0.08646088  1
  Te  Te127  1  0.25990634  0.23144995  0.42513326  1
  Te  Te128  1  0.22510190  0.24937254  0.73667403  1
  Te  Te129  1  0.25205219  0.58448183  0.09198837  1
  Te  Te130  1  0.25269038  0.58279773  0.41563091  1
  Te  Te131  1  0.23881762  0.58199674  0.74358030  1
  Te  Te132  1  0.25623504  0.92330708  0.07455649  1
  Te  Te133  1  0.22777445  0.93977217  0.46782685  1
  Te  Te134  1  0.26251189  0.92705508  0.74711875  1
  Te  Te135  1  0.58871576  0.26513902  0.09155565  1
  Te  Te136  1  0.57290083  0.25909703  0.41186826  1
  Te  Te137  1  0.56046525  0.23063937  0.72652447  1
  Te  Te138  1  0.57182878  0.61485827  0.08553060  1
  Te  Te139  1  0.59381401  0.59955196  0.40368699  1
  Te  Te140  1  0.59584535  0.58379361  0.74455112  1
  Te  Te141  1  0.59201301  0.90174980  0.07273413  1
  Te  Te142  1  0.58452891  0.91199811  0.42075916  1
  Te  Te143  1  0.57186202  0.91360698  0.75381268  1
  Te  Te144  1  0.91443651  0.24339633  0.08589529  1
  Te  Te145  1  0.91550823  0.25513203  0.43360911  1
  Te  Te146  1  0.90193151  0.25728951  0.77275786  1
  Te  Te147  1  0.93868639  0.56876131  0.10016910  1
  Te  Te148  1  0.92224075  0.56920192  0.41111495  1
  Te  Te149  1  0.94850205  0.54003247  0.78204284  1
  Te  Te150  1  0.90513379  0.90025478  0.09175333  1
  Te  Te151  1  0.91054433  0.93640298  0.42336040  1
  Te  Te152  1  0.87935351  0.88417759  0.73079475  1
  Te  Te153  1  0.22886153  0.05984507  0.24502885  1
  Te  Te154  1  0.26512269  0.04496972  0.56871606  1
  Te  Te155  1  0.22727971  0.09706669  0.92832884  1
  Te  Te156  1  0.26233772  0.42953871  0.24138886  1
  Te  Te157  1  0.27074188  0.42055713  0.58578254  1
  Te  Te158  1  0.25857710  0.38541351  0.93574003  1
  Te  Te159  1  0.23482625  0.78938043  0.28108588  1
  Te  Te160  1  0.26073355  0.75604953  0.57368073  1
  Te  Te161  1  0.25651999  0.76239886  0.88781266  1
  Te  Te162  1  0.58883404  0.09163698  0.25006475  1
  Te  Te163  1  0.57316153  0.06890053  0.56542209  1
  Te  Te164  1  0.58550560  0.09505068  0.92239183  1
  Te  Te165  1  0.59551114  0.41526082  0.25868331  1
  Te  Te166  1  0.61343449  0.43954211  0.54297680  1
  Te  Te167  1  0.55460928  0.44563995  0.94284900  1
  Te  Te168  1  0.57793695  0.75560870  0.22943302  1
  Te  Te169  1  0.57524107  0.76728856  0.61318387  1
  Te  Te170  1  0.61720160  0.73580454  0.88545409  1
  Te  Te171  1  0.93785124  0.06416292  0.25677260  1
  Te  Te172  1  0.90827383  0.08338925  0.60189268  1
  Te  Te173  1  0.92432536  0.07263874  0.91564515  1
  Te  Te174  1  0.92317019  0.41399926  0.26499091  1
  Te  Te175  1  0.89346865  0.42448214  0.60207566  1
  Te  Te176  1  0.89954148  0.45566655  0.90841659  1
  Te  Te177  1  0.93610309  0.74746552  0.26497339  1
  Te  Te178  1  0.91360477  0.74008149  0.57044250  1
  Te  Te179  1  0.90441675  0.72672049  0.89782564  1
