# generated using pymatgen
data_In2Te3
_symmetry_space_group_name_H-M   'P 1'
_cell_length_a   18.80296293
_cell_length_b   18.80916467
_cell_length_c   18.81471295
_cell_angle_alpha   89.96638868
_cell_angle_beta   90.05229423
_cell_angle_gamma   89.97141134
_symmetry_Int_Tables_number   1
_chemical_formula_structural   In2Te3
_chemical_formula_sum   'In72 Te108'
_cell_volume   6654.15764277
_cell_formula_units_Z   36
loop_
 _symmetry_equiv_pos_site_id
 _symmetry_equiv_pos_as_xyz
  1  'x, y, z'
loop_
 _atom_site_type_symbol
 _atom_site_label
 _atom_site_symmetry_multiplicity
 _atom_site_fract_x
 _atom_site_fract_y
 _atom_site_fract_z
 _atom_site_occupancy
  In  In0  1  0.48104101  0.83550518  -0.00440380  1
  In  In1  1  0.83550456  0.16980782  0.33213690  1
  In  In2  1  0.00545152  0.49409399  0.81242906  1
  In  In3  1  0.66588214  0.15560872  0.81847204  1
  In  In4  1  0.81530350  0.83998659  0.34680862  1
  In  In5  1  0.16750711  0.47014389  0.00615343  1
  In  In6  1  0.66122286  0.68338510  0.66508120  1
  In  In7  1  0.03438961  0.46065099  0.19026800  1
  In  In8  1  0.00290613  0.02018232  0.33539960  1
  In  In9  1  0.66890254  0.50288440  0.50797699  1
  In  In10  1  0.65447627  0.48932940  0.17910234  1
  In  In11  1  0.81795325  -0.01258715  0.15363617  1
  In  In12  1  0.50418395  0.46447932  0.01064318  1
  In  In13  1  0.34329856  0.85116247  0.50461426  1
  In  In14  1  0.16050250  0.66205163  0.48531315  1
  In  In15  1  -0.02805675  0.65356959  -0.00133462  1
  In  In16  1  0.83239339  0.01205943  0.82190243  1
  In  In17  1  0.65129354  0.31928336  0.01406958  1
  In  In18  1  0.17170197  0.67512272  0.15343709  1
  In  In19  1  0.17459237  0.47697806  0.65897217  1
  In  In20  1  0.48249072  0.29724534  0.48296260  1
  In  In21  1  0.20784219  0.27165505  0.22496601  1
  In  In22  1  0.19170336  0.01005376  0.84009748  1
  In  In23  1  -0.00352748  0.16489460  0.83961811  1
  In  In24  1  0.32373668  0.32312082  0.67945165  1
  In  In25  1  0.17985339  0.87189932  0.00718406  1
  In  In26  1  0.82898541  0.31731007  0.51113919  1
  In  In27  1  0.84329975  0.65949424  0.82268170  1
  In  In28  1  0.01253534  0.48117660  0.48358044  1
  In  In29  1  0.34424300  0.29233580  0.00318268  1
  In  In30  1  0.04788186  0.03564903  0.00529077  1
  In  In31  1  0.64703575  0.02797305  -0.00388793  1
  In  In32  1  0.65626733  0.86658642  0.18257119  1
  In  In33  1  0.66836134  0.31004055  0.34390780  1
  In  In34  1  0.49752135  0.02573768  0.48081805  1
  In  In35  1  0.14996988  0.85256285  0.34081848  1
  In  In36  1  0.14212779  0.68265267  0.81294704  1
  In  In37  1  0.00661230  0.31586743  0.66434884  1
  In  In38  1  0.32644847  0.65900530  0.00423079  1
  In  In39  1  0.49550983  0.87006063  0.33780042  1
  In  In40  1  0.83597876  0.83672787  0.65665226  1
  In  In41  1  0.48359852  0.48054589  0.36056413  1
  In  In42  1  0.47139151  0.68361344  0.17156478  1
  In  In43  1  -0.00224413  0.66281966  0.35883942  1
  In  In44  1  0.17913105  0.17214650  0.65417478  1
  In  In45  1  0.67727264  0.33308685  0.65242826  1
  In  In46  1  0.50227885  0.67075931  0.81665844  1
  In  In47  1  0.46507586  0.28978704  0.17321309  1
  In  In48  1  0.86708598  0.30602935  0.14144297  1
  In  In49  1  0.33794775  0.65981705  0.66582133  1
  In  In50  1  0.64068691  0.89412154  0.78335063  1
  In  In51  1  0.84663101  0.47982336  -0.02433912  1
  In  In52  1  0.18117692  0.04256845  0.47876723  1
  In  In53  1  0.66317506  0.68617533  0.00620367  1
  In  In54  1  0.65082751  0.48303321  0.82712391  1
  In  In55  1  0.15349151  0.85321702  0.67410377  1
  In  In56  1  0.47064138  0.05675968  0.22795034  1
  In  In57  1  0.86719763  0.49710089  0.31988177  1
  In  In58  1  -0.01238997  0.01011882  0.64319784  1
  In  In59  1  0.31432551  0.65655432  0.33651367  1
  In  In60  1  0.34144688  0.47255526  0.83950768  1
  In  In61  1  0.02243605  0.85626917  0.18289641  1
  In  In62  1  0.17396963  0.47667518  0.34620409  1
  In  In63  1  0.49816729  0.14555886  0.66599146  1
  In  In64  1  0.33137560  0.84521772  0.82179300  1
  In  In65  1  0.68895095  0.70224988  0.36300907  1
  In  In66  1  0.82998567  0.01187959  0.50884281  1
  In  In67  1  0.84086166  0.65804773  0.16914603  1
  In  In68  1  0.33470274  0.03475470  0.00899564  1
  In  In69  1  0.83861599  0.83472445  -0.01623764  1
  In  In70  1  0.82198484  0.31968771  0.82431688  1
  In  In71  1  0.50000308  0.66838709  0.52023629  1
  Te  Te72  1  0.10006428  0.13094465  0.11015519  1
  Te  Te73  1  0.08856191  0.12883258  0.39524672  1
  Te  Te74  1  0.08346210  0.07896532  0.74506764  1
  Te  Te75  1  0.10118904  0.37139727  0.09466204  1
  Te  Te76  1  0.09127089  0.37585173  0.41549166  1
  Te  Te77  1  0.10233717  0.38868647  0.76030922  1
  Te  Te78  1  0.07131691  0.75366972  0.07105449  1
  Te  Te79  1  0.06610092  0.77304769  0.44029149  1
  Te  Te80  1  0.05689337  0.74937500  0.71377378  1
  Te  Te81  1  0.43903017  0.11071152  0.09072940  1
  Te  Te82  1  0.38755661  0.09597344  0.39815393  1
  Te  Te83  1  0.41746267  0.07150602  0.76811136  1
  Te  Te84  1  0.39682144  0.40465203  0.09676287  1
  Te  Te85  1  0.38406292  0.38662826  0.41438233  1
  Te  Te86  1  0.42674629  0.41433526  0.73701740  1
  Te  Te87  1  0.37901306  0.77415316  0.09061247  1
  Te  Te88  1  0.41587190  0.74754624  0.40744323  1
  Te  Te89  1  0.42591904  0.76898582  0.72883543  1
  Te  Te90  1  0.74800375  0.09409969  0.08038880  1
  Te  Te91  1  0.74158685  0.09390362  0.41947385  1
  Te  Te92  1  0.74274881  0.07335349  0.71900415  1
  Te  Te93  1  0.75518972  0.41737151  0.08928670  1
  Te  Te94  1  0.75615929  0.41975658  0.40635202  1
  Te  Te95  1  0.76232842  0.42991496  0.73795845  1
  Te  Te96  1  0.75776056  0.77664136  0.10327033  1
  Te  Te97  1  0.76886978  0.76791302  0.47354366  1
  Te  Te98  1  0.74543713  0.76366026  0.76810252  1
  Te  Te99  1  0.07654862  0.20204209  0.24741161  1
  Te  Te100  1  0.10455342  0.26530832  0.56346886  1
  Te  Te101  1  0.07464718  0.22874173  0.94616566  1
  Te  Te102  1  0.08977109  0.59338644  0.25813711  1
  Te  Te103  1  0.08362232  0.57506483  0.58415559  1
  Te  Te104  1  0.08697241  0.57730971  0.92548592  1
  Te  Te105  1  0.11295206  0.96282460  0.24072772  1
  Te  Te106  1  0.09586231  0.93961275  0.56290984  1
  Te  Te107  1  0.08413153  0.92199525  0.90253355  1
  Te  Te108  1  0.39471587  0.22818135  0.29383221  1
  Te  Te109  1  0.39435688  0.22289360  0.58159982  1
  Te  Te110  1  0.45026102  0.22733192  0.92472068  1
  Te  Te111  1  0.41127946  0.57180616  0.25393345  1
  Te  Te112  1  0.41447726  0.56582303  0.58228904  1
  Te  Te113  1  0.42924470  0.58279532  0.92028222  1
  Te  Te114  1  0.40615631  0.92407290  0.23582732  1
  Te  Te115  1  0.43866413  0.93065322  0.58436217  1
  Te  Te116  1  0.41217891  0.94008890  0.90970369  1
  Te  Te117  1  0.75145522  0.25243215  0.23016011  1
  Te  Te118  1  0.72279156  0.22327136  0.56118601  1
  Te  Te119  1  0.74728457  0.23663000  0.92591167  1
  Te  Te120  1  0.74332970  0.58098410  0.26357943  1
  Te  Te121  1  0.74961970  0.58505911  0.59871719  1
  Te  Te122  1  0.74153849  0.57695274  0.91491545  1
  Te  Te123  1  0.73436430  0.95195732  0.27947107  1
  Te  Te124  1  0.74228755  0.94554587  0.61411546  1
  Te  Te125  1  0.73779847  0.92918209  0.91722732  1
  Te  Te126  1  0.25291534  0.21207940  0.09272282  1
  Te  Te127  1  0.27184538  0.20347892  0.39963868  1
  Te  Te128  1  0.25295901  0.22849151  0.77110042  1
  Te  Te129  1  0.25458793  0.56125740  0.09569660  1
  Te  Te130  1  0.26236225  0.55890583  0.44112898  1
  Te  Te131  1  0.24790447  0.58110176  0.76474446  1
  Te  Te132  1  0.24698348  0.95849833  0.10305832  1
  Te  Te133  1  0.26262663  0.93280529  0.40488276  1
  Te  Te134  1  0.26669027  0.94227395  0.72333844  1
  Te  Te135  1  0.57481464  0.22234586  0.09802102  1
  Te  Te136  1  0.56945485  0.20582975  0.39245446  1
  Te  Te137  1  0.58059259  0.25557799  0.73988477  1
  Te  Te138  1  0.57049264  0.58461340  0.09199476  1
  Te  Te139  1  0.58359832  0.58978017  0.40510881  1
  Te  Te140  1  0.57182105  0.56927797  0.72927025  1
  Te  Te141  1  0.56290253  0.93287717  0.08272932  1
  Te  Te142  1  0.59108780  0.91451860  0.43785838  1
  Te  Te143  1  0.52936035  0.98500307  0.72310904  1
  Te  Te144  1  0.95722650  0.23388021  0.04934848  1
  Te  Te145  1  0.92479075  0.24255664  0.42771662  1
  Te  Te146  1  0.90214452  0.22709892  0.73432399  1
  Te  Te147  1  0.93047664  0.54804170  0.10282551  1
  Te  Te148  1  0.89913218  0.58457135  0.44055778  1
  Te  Te149  1  0.92310752  0.58110061  0.72789268  1
  Te  Te150  1  0.93503681  0.91772984  0.07285838  1
  Te  Te151  1  0.92071289  0.92466982  0.42017175  1
  Te  Te152  1  0.92651516  0.91813928  0.74884886  1
  Te  Te153  1  0.27890294  0.12323947  0.27265204  1
  Te  Te154  1  0.27641242  0.08259503  0.58610067  1
  Te  Te155  1  0.25180533  0.12118695  0.91700415  1
  Te  Te156  1  0.25902415  0.40978500  0.24666140  1
  Te  Te157  1  0.24288268  0.38375435  0.56811581  1
  Te  Te158  1  0.25020612  0.37986995  0.91560469  1
  Te  Te159  1  0.24283757  0.76407721  0.25426681  1
  Te  Te160  1  0.24711244  0.75300880  0.58070101  1
  Te  Te161  1  0.24367823  0.75263836  0.91425792  1
  Te  Te162  1  0.59866331  0.09891730  0.28556347  1
  Te  Te163  1  0.59808625  0.10940610  0.55828162  1
  Te  Te164  1  0.55268429  0.10949820  0.90882342  1
  Te  Te165  1  0.56346341  0.39319757  0.25450916  1
  Te  Te166  1  0.57246187  0.39902060  0.56065597  1
  Te  Te167  1  0.56442292  0.37991435  0.90049025  1
  Te  Te168  1  0.58708713  0.74794677  0.24954801  1
  Te  Te169  1  0.58191851  0.77509047  0.57970490  1
  Te  Te170  1  0.58088623  0.77188342  0.89998206  1
  Te  Te171  1  0.91270094  0.08290048  0.22956109  1
  Te  Te172  1  0.92829525  0.11470303  0.55713021  1
  Te  Te173  1  0.91403089  0.07300720  0.93275869  1
  Te  Te174  1  0.93422223  0.37267344  0.26458061  1
  Te  Te175  1  0.91930679  0.41456508  0.58678429  1
  Te  Te176  1  0.93836529  0.38757300  0.90154162  1
  Te  Te177  1  0.92468911  0.76178700  0.25809128  1
  Te  Te178  1  0.89960700  0.75148334  0.55652252  1
  Te  Te179  1  0.93634526  0.75945062  0.89397329  1
