# generated using pymatgen
data_In2Te3
_symmetry_space_group_name_H-M   'P 1'
_cell_length_a   18.97227410
_cell_length_b   18.98378637
_cell_length_c   18.96772393
_cell_angle_alpha   89.99806431
_cell_angle_beta   89.94428268
_cell_angle_gamma   89.77708533
_symmetry_Int_Tables_number   1
_chemical_formula_structural   In2Te3
_chemical_formula_sum   'In72 Te108'
_cell_volume   6831.46670582
_cell_formula_units_Z   36
loop_
 _symmetry_equiv_pos_site_id
 _symmetry_equiv_pos_as_xyz
  1  'x, y, z'
loop_
 _atom_site_type_symbol
 _atom_site_label
 _atom_site_symmetry_multiplicity
 _atom_site_fract_x
 _atom_site_fract_y
 _atom_site_fract_z
 _atom_site_occupancy
  In  In0  1  0.47009454  0.52228044  0.32787612  1
  In  In1  1  0.83225273  0.85156305  0.65990302  1
  In  In2  1  0.35279837  0.66938139  0.31935418  1
  In  In3  1  0.51666861  0.86173225  0.34280851  1
  In  In4  1  0.15516801  0.64161219  0.51129799  1
  In  In5  1  0.66225899  0.80983858  0.15074497  1
  In  In6  1  0.51395464  0.34302268  0.84106458  1
  In  In7  1  0.00011969  0.50442961  0.16207791  1
  In  In8  1  0.49474506  0.49790406  0.01843813  1
  In  In9  1  0.50461610  0.66762257  0.52020652  1
  In  In10  1  0.69530976  0.50755582  0.51571222  1
  In  In11  1  0.17483080  0.00976752  0.49720935  1
  In  In12  1  0.31752966  0.32422511  0.33959853  1
  In  In13  1  0.01426411  0.15526938  0.82736497  1
  In  In14  1  0.02305847  0.83313681  0.81807129  1
  In  In15  1  0.68117359  0.17948618  0.15758131  1
  In  In16  1  0.47436753  0.33160110  0.18405381  1
  In  In17  1  0.28094790  0.85080863  0.82261430  1
  In  In18  1  0.83398921  -0.00664500  0.12655200  1
  In  In19  1  0.85032130  0.33655401  0.14667631  1
  In  In20  1  0.17573853  0.82630971  0.36807567  1
  In  In21  1  0.01255684  0.01274472  0.64454608  1
  In  In22  1  -0.02218277  0.35236690  0.66146184  1
  In  In23  1  0.14241724  0.48603338  0.33745373  1
  In  In24  1  0.33301796  0.84624557  0.53524134  1
  In  In25  1  0.68823533  0.68074046  0.35770354  1
  In  In26  1  0.87253595  0.20267607  0.34956790  1
  In  In27  1  -0.00202209  0.01053420  0.30147793  1
  In  In28  1  0.83943914  0.48573167  -0.01787361  1
  In  In29  1  0.17064964  0.61621328  0.13023379  1
  In  In30  1  0.30434162  0.02188889  -0.03599142  1
  In  In31  1  0.14051312  0.65219169  0.81885313  1
  In  In32  1  0.81920025  0.84618429  0.34966680  1
  In  In33  1  0.49068347  0.67332744  0.15593240  1
  In  In34  1  0.69665915  0.67948247  -0.01646986  1
  In  In35  1  0.14200861  0.18011120  0.67201578  1
  In  In36  1  0.49609452  0.85207848  0.67484704  1
  In  In37  1  0.67845496  0.02423935  0.33372200  1
  In  In38  1  0.80346112  0.68764934  0.16983260  1
  In  In39  1  0.84585046  0.16416590  0.68193671  1
  In  In40  1  0.00418042  0.17662751  0.14343385  1
  In  In41  1  -0.02083053  0.83566504  0.16604763  1
  In  In42  1  0.17499407  0.01620462  0.16855593  1
  In  In43  1  0.49707830  0.49680490  0.66264685  1
  In  In44  1  0.32513544  0.65794355  0.68906497  1
  In  In45  1  0.81890199  -0.00854716  0.85554800  1
  In  In46  1  0.66259040  0.16424101  0.82895128  1
  In  In47  1  -0.01512520  0.51035065  0.50554686  1
  In  In48  1  0.52508372  0.65803174  0.84493734  1
  In  In49  1  0.69999913  0.67878709  0.68644159  1
  In  In50  1  0.48971324  0.15949883  0.66866595  1
  In  In51  1  0.34579660  0.17162285  0.48240547  1
  In  In52  1  0.30737817  0.46879987  0.86674310  1
  In  In53  1  0.49946139  0.84001554  0.00130097  1
  In  In54  1  0.17307375  0.31892229  0.14430419  1
  In  In55  1  0.31827952  0.28799117  -0.00934147  1
  In  In56  1  0.00458699  0.47609944  0.83708553  1
  In  In57  1  0.51425849  0.00772030  0.82543754  1
  In  In58  1  0.84091492  0.51082521  0.33637054  1
  In  In59  1  0.68241867  0.33148962  -0.01808414  1
  In  In60  1  0.67408245  0.17064761  0.52207229  1
  In  In61  1  -0.01907440  0.82735007  0.51028500  1
  In  In62  1  -0.02675254  0.66389648  -0.03123737  1
  In  In63  1  0.15402185  0.16837988  0.32637281  1
  In  In64  1  0.48814423  0.16036118  0.00783684  1
  In  In65  1  0.51171672  0.16371844  0.34647030  1
  In  In66  1  0.30497067  0.46321647  0.49182847  1
  In  In67  1  0.65193508  0.35810889  0.32642048  1
  In  In68  1  0.70671140  0.37035307  0.68716814  1
  In  In69  1  0.17182946  0.80206229  0.00205792  1
  In  In70  1  0.31154579  0.31561261  0.66434467  1
  In  In71  1  0.34889516  0.82886973  0.17167103  1
  Te  Te72  1  0.06697408  0.05928855  0.07939251  1
  Te  Te73  1  0.06861730  0.08245154  0.41670752  1
  Te  Te74  1  0.12076079  0.04558685  0.75009234  1
  Te  Te75  1  0.07262994  0.40703643  0.07694846  1
  Te  Te76  1  0.05826332  0.40481647  0.42585422  1
  Te  Te77  1  0.08984274  0.40487940  0.74165410  1
  Te  Te78  1  0.06525384  0.73196350  0.08465905  1
  Te  Te79  1  0.07133110  0.73600466  0.42504428  1
  Te  Te80  1  0.07966350  0.73912859  0.71758397  1
  Te  Te81  1  0.38532345  0.07828796  0.07410580  1
  Te  Te82  1  0.43905272  0.06960620  0.43198019  1
  Te  Te83  1  0.40657186  0.07867691  0.75763002  1
  Te  Te84  1  0.39582943  0.39537523  0.07168843  1
  Te  Te85  1  0.42197848  0.40642902  0.41360674  1
  Te  Te86  1  0.40647914  0.41135228  0.75030033  1
  Te  Te87  1  0.39898161  0.74139257  0.05677469  1
  Te  Te88  1  0.42072359  0.75551354  0.42594121  1
  Te  Te89  1  0.42993225  0.74268735  0.75890485  1
  Te  Te90  1  0.74756385  0.09163035  0.05832565  1
  Te  Te91  1  0.77131611  0.11077722  0.41740859  1
  Te  Te92  1  0.74508572  0.07038901  0.74378010  1
  Te  Te93  1  0.74441680  0.42393440  0.08575750  1
  Te  Te94  1  0.76145487  0.41094644  0.41803298  1
  Te  Te95  1  0.78301380  0.44102011  0.79358944  1
  Te  Te96  1  0.78157216  0.79054517  0.05036283  1
  Te  Te97  1  0.76273981  0.76078777  0.46062661  1
  Te  Te98  1  0.77025514  0.77587263  0.77282461  1
  Te  Te99  1  0.07109178  0.26456921  0.24499936  1
  Te  Te100  1  0.03802643  0.23964301  0.57804532  1
  Te  Te101  1  0.10820924  0.23060152  0.91207346  1
  Te  Te102  1  0.08196736  0.59520653  0.25205189  1
  Te  Te103  1  0.07057312  0.57424366  0.60792591  1
  Te  Te104  1  0.08739967  0.57365421  0.93457032  1
  Te  Te105  1  0.09453601  0.90046125  0.25618040  1
  Te  Te106  1  0.09504960  0.90663589  0.57314214  1
  Te  Te107  1  0.10462985  0.90284863  0.91858098  1
  Te  Te108  1  0.40031758  0.22600372  0.25972736  1
  Te  Te109  1  0.42370169  0.26106605  0.57686647  1
  Te  Te110  1  0.42408631  0.23471777  0.89232596  1
  Te  Te111  1  0.38377036  0.56796077  0.20559299  1
  Te  Te112  1  0.39638421  0.57477665  0.57150982  1
  Te  Te113  1  0.41853243  0.56851629  0.90719971  1
  Te  Te114  1  0.43564161  0.92506072  0.23918831  1
  Te  Te115  1  0.43181395  0.94337371  0.57812035  1
  Te  Te116  1  0.39910271  0.91251480  0.90556884  1
  Te  Te117  1  0.75429922  0.26585274  0.25961320  1
  Te  Te118  1  0.76705704  0.26584230  0.59709265  1
  Te  Te119  1  0.76044225  0.26121635  0.88111587  1
  Te  Te120  1  0.73372289  0.58112593  0.25131902  1
  Te  Te121  1  0.78465700  0.58393173  0.60472074  1
  Te  Te122  1  0.76375110  0.58107985  0.89029466  1
  Te  Te123  1  0.74517905  0.91677257  0.23653038  1
  Te  Te124  1  0.75307209  0.89227140  0.54190944  1
  Te  Te125  1  0.75505404  0.92304297  0.97062521  1
  Te  Te126  1  0.25602919  0.20645211  0.09690432  1
  Te  Te127  1  0.22318169  0.25398508  0.43111650  1
  Te  Te128  1  0.24807760  0.22724923  0.76708614  1
  Te  Te129  1  0.28489819  0.54687398  0.07904103  1
  Te  Te130  1  0.25523780  0.58421958  0.40437573  1
  Te  Te131  1  0.24073332  0.55385381  0.75649096  1
  Te  Te132  1  0.25065302  0.91063494  0.07944144  1
  Te  Te133  1  0.27528792  0.92621032  0.41814369  1
  Te  Te134  1  0.23097692  0.93991612  0.72238005  1
  Te  Te135  1  0.57662059  0.26766053  0.08014294  1
  Te  Te136  1  0.59240244  0.26212841  0.42667339  1
  Te  Te137  1  0.59445144  0.26783568  0.73482710  1
  Te  Te138  1  0.59424588  0.60395619  0.07060682  1
  Te  Te139  1  0.58316909  0.57493878  0.42609994  1
  Te  Te140  1  0.59882536  0.57277930  0.74314361  1
  Te  Te141  1  0.57410068  0.91657790  0.10189108  1
  Te  Te142  1  0.61894394  0.92347883  0.42812944  1
  Te  Te143  1  0.60309330  0.92581249  0.74322332  1
  Te  Te144  1  0.89815187  0.23074434  0.05832875  1
  Te  Te145  1  0.95969759  0.27203110  0.44493299  1
  Te  Te146  1  0.92140286  0.26067718  0.76885914  1
  Te  Te147  1  0.89379426  0.59217630  0.08582552  1
  Te  Te148  1  0.91560224  0.60547877  0.41593138  1
  Te  Te149  1  0.88663404  0.55582422  0.79181800  1
  Te  Te150  1  0.95002161  0.93096544  0.05765829  1
  Te  Te151  1  0.92482441  0.93257093  0.41163137  1
  Te  Te152  1  0.92923715  0.94079820  0.75050531  1
  Te  Te153  1  0.25389587  0.07369340  0.27564609  1
  Te  Te154  1  0.24884541  0.11033148  0.58008910  1
  Te  Te155  1  0.22324665  0.12741616  0.89816498  1
  Te  Te156  1  0.23934791  0.41278584  0.24735447  1
  Te  Te157  1  0.21808476  0.40493112  0.59259669  1
  Te  Te158  1  0.21317455  0.36856437  0.91998239  1
  Te  Te159  1  0.24478652  0.75154929  0.24953017  1
  Te  Te160  1  0.24319112  0.74176628  0.59344900  1
  Te  Te161  1  0.25212177  0.72527655  0.89704993  1
  Te  Te162  1  0.58436165  0.09112392  0.23362183  1
  Te  Te163  1  0.58879614  0.07882171  0.59504105  1
  Te  Te164  1  0.59284501  0.07840138  0.93349596  1
  Te  Te165  1  0.56461137  0.44163003  0.23538477  1
  Te  Te166  1  0.59435397  0.41586873  0.58306811  1
  Te  Te167  1  0.59483129  0.44205494  0.91779163  1
  Te  Te168  1  0.57617497  0.73546634  0.26835597  1
  Te  Te169  1  0.59380120  0.75359955  0.60093189  1
  Te  Te170  1  0.60135275  0.77203731  0.91021051  1
  Te  Te171  1  0.89166242  0.09602402  0.23917528  1
  Te  Te172  1  0.90209216  0.07967803  0.57656433  1
  Te  Te173  1  0.91779816  0.08439747  0.91127010  1
  Te  Te174  1  0.92365090  0.41301690  0.25454105  1
  Te  Te175  1  0.88449418  0.45326683  0.60228147  1
  Te  Te176  1  0.95496439  0.39810412  0.95448910  1
  Te  Te177  1  0.90373582  0.74869658  0.26468956  1
  Te  Te178  1  0.92310264  0.74318974  0.61548889  1
  Te  Te179  1  0.90731519  0.75604227  0.87526766  1
