# generated using pymatgen
data_In2Te3
_symmetry_space_group_name_H-M   'P 1'
_cell_length_a   18.81575141
_cell_length_b   18.81309440
_cell_length_c   18.80296786
_cell_angle_alpha   89.94792822
_cell_angle_beta   89.93920556
_cell_angle_gamma   90.00048500
_symmetry_Int_Tables_number   1
_chemical_formula_structural   In2Te3
_chemical_formula_sum   'In72 Te108'
_cell_volume   6655.91521489
_cell_formula_units_Z   36
loop_
 _symmetry_equiv_pos_site_id
 _symmetry_equiv_pos_as_xyz
  1  'x, y, z'
loop_
 _atom_site_type_symbol
 _atom_site_label
 _atom_site_symmetry_multiplicity
 _atom_site_fract_x
 _atom_site_fract_y
 _atom_site_fract_z
 _atom_site_occupancy
  In  In0  1  0.33399145  0.47917182  0.17175993  1
  In  In1  1  0.47451783  0.02716554  0.47626404  1
  In  In2  1  0.36662742  0.00886452  0.00849460  1
  In  In3  1  0.47755149  0.49799167  0.00944507  1
  In  In4  1  0.34879575  0.67923292  0.66730725  1
  In  In5  1  0.00121365  -0.01110884  0.01222873  1
  In  In6  1  0.81561595  0.66739047  0.50756300  1
  In  In7  1  0.81872486  0.66723671  0.16732756  1
  In  In8  1  0.51862973  0.67576877  0.16032665  1
  In  In9  1  0.18282639  0.17649061  0.35043883  1
  In  In10  1  0.17101211  0.86647724  0.69962951  1
  In  In11  1  0.32558088  0.01449810  0.32255697  1
  In  In12  1  0.03229144  0.18396103  0.50788903  1
  In  In13  1  0.82033382  0.13700524  0.01800618  1
  In  In14  1  0.14110681  0.68495334  0.49525645  1
  In  In15  1  0.00900041  0.85137198  0.46668895  1
  In  In16  1  0.83276114  0.82066486  0.68077815  1
  In  In17  1  0.18518799  0.45857300  0.66380884  1
  In  In18  1  0.00709566  0.33557732  0.33044716  1
  In  In19  1  0.83138725  0.14364042  0.32417971  1
  In  In20  1  0.35850506  0.49428156  0.50500939  1
  In  In21  1  0.17563058  0.47935591  -0.01585080  1
  In  In22  1  0.48875357  0.63620830  0.49815325  1
  In  In23  1  0.01459947  0.17282031  0.85574768  1
  In  In24  1  0.19295869  0.04896992  0.52439987  1
  In  In25  1  0.81411287  0.49164138  0.33124218  1
  In  In26  1  -0.01155780  0.83364388  0.83284637  1
  In  In27  1  0.33461281  0.66396470  -0.02301671  1
  In  In28  1  0.49461610  0.84744906  0.66060679  1
  In  In29  1  0.67851182  0.01232439  0.67753408  1
  In  In30  1  0.84404852  0.31824645  0.82724357  1
  In  In31  1  0.01206823  0.33480307  0.00470032  1
  In  In32  1  0.34927229  0.83400001  0.51637103  1
  In  In33  1  0.65994102  0.50340030  0.82174446  1
  In  In34  1  0.48459933  0.30890531  0.17979579  1
  In  In35  1  0.14178565  0.65911249  0.16177050  1
  In  In36  1  0.14605302  0.85121968  0.34607523  1
  In  In37  1  0.66514431  0.82471224  0.49108545  1
  In  In38  1  0.65688689  0.34882231  0.00206968  1
  In  In39  1  0.49242749  0.16276801  0.69068289  1
  In  In40  1  0.17480549  0.65510561  0.84640314  1
  In  In41  1  0.36323962  0.45985099  0.80263195  1
  In  In42  1  0.85313600  0.01449494  0.49514121  1
  In  In43  1  0.33636230  0.18443928  0.82671272  1
  In  In44  1  0.32542181  0.65601298  0.32241817  1
  In  In45  1  0.50209155  0.32903938  0.50978966  1
  In  In46  1  0.81609674  0.69361575  0.84715676  1
  In  In47  1  0.19275686  0.02344300  0.84265765  1
  In  In48  1  0.52983063  0.85176070  0.01991573  1
  In  In49  1  0.82956320  0.33094350  0.51552812  1
  In  In50  1  0.80076988  0.84917775  0.00791016  1
  In  In51  1  0.83321944  0.51928109  0.00689097  1
  In  In52  1  0.03012076  0.50559431  0.82835316  1
  In  In53  1  0.51073488  0.16427555  -0.02275669  1
  In  In54  1  0.52258120  0.48606826  0.36357163  1
  In  In55  1  0.51603283  0.83036156  0.30691019  1
  In  In56  1  0.66388957  0.83201582  0.84835603  1
  In  In57  1  -0.01218583  -0.00009458  0.66258187  1
  In  In58  1  -0.01216728  0.48243044  0.48954647  1
  In  In59  1  -0.01677922  0.64728725  0.66371724  1
  In  In60  1  -0.01964280  -0.00635231  0.31748824  1
  In  In61  1  0.82682050  0.32186038  0.15945426  1
  In  In62  1  0.16621323  0.31198551  0.15297948  1
  In  In63  1  0.67437967  0.34445032  0.33099746  1
  In  In64  1  0.16851350  0.80808078  0.00713996  1
  In  In65  1  0.82954117  0.49893454  0.65088549  1
  In  In66  1  0.15680030  0.02054069  0.17722668  1
  In  In67  1  0.67987336  -0.00959305  0.23380059  1
  In  In68  1  0.65553545  0.16579115  0.82741470  1
  In  In69  1  0.67782062  0.17954210  0.49892044  1
  In  In70  1  0.17477810  0.48838056  0.31816374  1
  In  In71  1  0.33785049  0.85570098  0.17878783  1
  Te  Te72  1  0.08436869  0.09458796  0.07235094  1
  Te  Te73  1  0.07953003  0.06891763  0.41073673  1
  Te  Te74  1  0.08387140  0.07925230  0.75119540  1
  Te  Te75  1  0.08604170  0.42995340  0.09861812  1
  Te  Te76  1  0.10226033  0.40325967  0.42809967  1
  Te  Te77  1  0.08908421  0.39350642  0.75539809  1
  Te  Te78  1  0.06013394  0.76345835  0.09635797  1
  Te  Te79  1  0.05404478  0.73113674  0.38082444  1
  Te  Te80  1  0.07597233  0.74037442  0.74830916  1
  Te  Te81  1  0.43839144  0.10484078  0.09479306  1
  Te  Te82  1  0.39386614  0.12843558  0.39832176  1
  Te  Te83  1  0.42305655  0.07111568  0.78395654  1
  Te  Te84  1  0.39799866  0.38315626  0.07395880  1
  Te  Te85  1  0.40727972  0.39600508  0.39956274  1
  Te  Te86  1  0.44650277  0.37170395  0.71360137  1
  Te  Te87  1  0.40152337  0.74862989  0.08976178  1
  Te  Te88  1  0.41519163  0.75350105  0.40286830  1
  Te  Te89  1  0.43091906  0.75707994  0.76003485  1
  Te  Te90  1  0.71977264  0.06865395  0.10615860  1
  Te  Te91  1  0.73443171  0.06532726  0.41270347  1
  Te  Te92  1  0.76381002  0.11358679  0.74096668  1
  Te  Te93  1  0.74271603  0.43174749  0.09589885  1
  Te  Te94  1  0.73307104  0.42612822  0.44572326  1
  Te  Te95  1  0.75043365  0.40611511  0.74450504  1
  Te  Te96  1  0.72033451  0.74771816  0.08252773  1
  Te  Te97  1  0.73897660  0.73478166  0.40013511  1
  Te  Te98  1  0.72156161  0.73624544  0.73532306  1
  Te  Te99  1  0.07921038  0.22974219  0.25020450  1
  Te  Te100  1  0.12946701  0.24028663  0.60498283  1
  Te  Te101  1  0.11737766  0.26316003  0.92289544  1
  Te  Te102  1  0.07081027  0.57343736  0.25867131  1
  Te  Te103  1  0.08736651  0.56730790  0.58601493  1
  Te  Te104  1  0.07462917  0.59461138  0.94200811  1
  Te  Te105  1  0.06796049  0.90579843  0.22702766  1
  Te  Te106  1  0.09205110  0.92286138  0.57856964  1
  Te  Te107  1  0.09503303  0.91380234  0.90689046  1
  Te  Te108  1  0.40884283  0.21873675  0.26930657  1
  Te  Te109  1  0.41607283  0.22392487  0.57543467  1
  Te  Te110  1  0.42590905  0.26657578  0.91138856  1
  Te  Te111  1  0.42759414  0.57394215  0.24724503  1
  Te  Te112  1  0.43885110  0.56218005  0.62499254  1
  Te  Te113  1  0.42157239  0.57804346  0.88900823  1
  Te  Te114  1  0.44351863  0.95276621  0.23491112  1
  Te  Te115  1  0.40530766  0.95263570  0.59154390  1
  Te  Te116  1  0.42683106  0.90300118  0.92779544  1
  Te  Te117  1  0.73635655  0.23408423  0.24501175  1
  Te  Te118  1  0.73815337  0.25835466  0.60711206  1
  Te  Te119  1  0.75471942  0.25069830  0.93350114  1
  Te  Te120  1  0.72940391  0.57526618  0.24605862  1
  Te  Te121  1  0.72633801  0.58679227  0.59327622  1
  Te  Te122  1  0.72899997  0.59480102  0.92400829  1
  Te  Te123  1  0.80072639  0.89178918  0.22790167  1
  Te  Te124  1  0.76082039  0.91527189  0.57991762  1
  Te  Te125  1  0.73310083  0.94610245  0.91535986  1
  Te  Te126  1  0.22430187  0.24335018  0.03657499  1
  Te  Te127  1  0.21348352  0.25953039  0.46943256  1
  Te  Te128  1  0.23878916  0.23129774  0.72326897  1
  Te  Te129  1  0.25678478  0.58134361  0.08457058  1
  Te  Te130  1  0.24600386  0.58419071  0.43128753  1
  Te  Te131  1  0.25295218  0.57612573  0.74350460  1
  Te  Te132  1  0.24234611  0.92368796  0.08032951  1
  Te  Te133  1  0.25474119  0.92441678  0.42610243  1
  Te  Te134  1  0.28275456  0.94573003  0.75258466  1
  Te  Te135  1  0.58989754  0.24516606  0.08925079  1
  Te  Te136  1  0.58051712  0.24845557  0.40458538  1
  Te  Te137  1  0.57205700  0.27021144  0.75864227  1
  Te  Te138  1  0.58339947  0.57166424  0.07945933  1
  Te  Te139  1  0.59643343  0.60826353  0.40032915  1
  Te  Te140  1  0.57412911  0.55665899  0.71336679  1
  Te  Te141  1  0.61442026  0.94697612  0.09786986  1
  Te  Te142  1  0.57016372  0.91997128  0.41884436  1
  Te  Te143  1  0.58238123  0.92678338  0.75704125  1
  Te  Te144  1  0.92395247  0.23559334  0.08029687  1
  Te  Te145  1  0.90972026  0.24726036  0.41222498  1
  Te  Te146  1  0.93609648  0.23700594  0.74720083  1
  Te  Te147  1  0.92472440  0.58849471  0.09742429  1
  Te  Te148  1  0.90674759  0.58319656  0.41471935  1
  Te  Te149  1  0.89869707  0.58178052  0.77246851  1
  Te  Te150  1  0.89209540  0.92939403  0.09850200  1
  Te  Te151  1  0.88309640  0.90106983  0.39623887  1
  Te  Te152  1  0.89433473  0.93200976  0.76389082  1
  Te  Te153  1  0.26413939  0.11798875  0.22600767  1
  Te  Te154  1  0.28187550  0.12830573  0.61355798  1
  Te  Te155  1  0.26079966  0.10675853  0.95003149  1
  Te  Te156  1  0.25887185  0.37683685  0.25689864  1
  Te  Te157  1  0.27664735  0.38747193  0.57002737  1
  Te  Te158  1  0.26111522  0.40182529  0.89267315  1
  Te  Te159  1  0.23895693  0.76065903  0.25306598  1
  Te  Te160  1  0.23597607  0.75814174  0.59222966  1
  Te  Te161  1  0.26350686  0.76974875  0.89195174  1
  Te  Te162  1  0.55298501  0.06364274  0.24969077  1
  Te  Te163  1  0.58244225  0.08172187  0.57876072  1
  Te  Te164  1  0.60802186  0.06231264  0.92322521  1
  Te  Te165  1  0.57725988  0.41752432  0.23916867  1
  Te  Te166  1  0.55799281  0.42096384  0.61482900  1
  Te  Te167  1  0.56398741  0.41848517  0.90677126  1
  Te  Te168  1  0.61984181  0.77152925  0.21729950  1
  Te  Te169  1  0.56851794  0.74477596  0.57699395  1
  Te  Te170  1  0.58348119  0.74321049  0.93519805  1
  Te  Te171  1  0.91835923  0.08619398  0.22049939  1
  Te  Te172  1  0.91913933  0.11466051  0.58741085  1
  Te  Te173  1  0.91475738  0.07202681  0.91583624  1
  Te  Te174  1  0.91490722  0.41655828  0.24159074  1
  Te  Te175  1  0.93612886  0.39745100  0.60398752  1
  Te  Te176  1  0.91913808  0.42190352  0.91744482  1
  Te  Te177  1  0.88790686  0.77275639  0.24837465  1
  Te  Te178  1  0.93312020  0.76349658  0.57601909  1
  Te  Te179  1  0.91437496  0.75889355  0.94141206  1
