# generated using pymatgen
data_In2Te3
_symmetry_space_group_name_H-M   'P 1'
_cell_length_a   18.98502114
_cell_length_b   18.95263873
_cell_length_c   18.96124590
_cell_angle_alpha   89.93231685
_cell_angle_beta   90.00235438
_cell_angle_gamma   89.77000881
_symmetry_Int_Tables_number   1
_chemical_formula_structural   In2Te3
_chemical_formula_sum   'In72 Te108'
_cell_volume   6822.50460371
_cell_formula_units_Z   36
loop_
 _symmetry_equiv_pos_site_id
 _symmetry_equiv_pos_as_xyz
  1  'x, y, z'
loop_
 _atom_site_type_symbol
 _atom_site_label
 _atom_site_symmetry_multiplicity
 _atom_site_fract_x
 _atom_site_fract_y
 _atom_site_fract_z
 _atom_site_occupancy
  In  In0  1  0.64384624  0.52499690  0.49064750  1
  In  In1  1  0.62197995  0.82809457  0.49063054  1
  In  In2  1  0.82531600  0.67755253  0.84570206  1
  In  In3  1  -0.02025562  0.49073886  0.86485242  1
  In  In4  1  0.68858754  0.16017877  0.49355013  1
  In  In5  1  0.65382400  0.81266117  0.17675685  1
  In  In6  1  0.83845364  0.52371673  0.68894874  1
  In  In7  1  -0.00554004  0.66887152  -0.02097891  1
  In  In8  1  0.15570163  -0.00483725  0.81182516  1
  In  In9  1  0.65691316  0.02216117  0.33013920  1
  In  In10  1  0.86664011  0.34823246  0.49444453  1
  In  In11  1  0.82021327  0.85038577  0.02848654  1
  In  In12  1  0.84850437  0.45746922  0.03723313  1
  In  In13  1  0.85771046  0.51299305  0.35076903  1
  In  In14  1  0.48188212  0.52009858  0.63935006  1
  In  In15  1  0.17839726  0.17436107  0.65355378  1
  In  In16  1  0.31302422  -0.01958151  -0.02439042  1
  In  In17  1  0.00313273  0.17493014  0.51223654  1
  In  In18  1  0.66593295  0.35317440  0.64581950  1
  In  In19  1  0.32672891  0.35697523  0.61571990  1
  In  In20  1  0.34930971  0.82751829  0.17281565  1
  In  In21  1  0.82082204  0.63480840  0.15895370  1
  In  In22  1  0.47571479  0.33121306  0.19817221  1
  In  In23  1  0.49628083  0.02288219  0.19333391  1
  In  In24  1  0.49212911  0.79057164  0.00553841  1
  In  In25  1  0.83845001  0.14097453  0.66976976  1
  In  In26  1  0.34481063  0.63277137  0.32375373  1
  In  In27  1  -0.00912813  0.83421476  0.16379607  1
  In  In28  1  0.19144121  0.34523381  0.82801650  1
  In  In29  1  0.22270075  0.45092546  0.42057410  1
  In  In30  1  0.01426542  0.16125955  0.83653987  1
  In  In31  1  0.01226351  0.32286466  0.67260976  1
  In  In32  1  0.19264872  0.15678424  0.00604511  1
  In  In33  1  0.14752048  0.81461772  -0.10053486  1
  In  In34  1  0.81211261  -0.01220068  0.49491370  1
  In  In35  1  0.83532117  0.71731580  0.52947397  1
  In  In36  1  0.87770352  0.00397611  0.81136226  1
  In  In37  1  0.01333439  0.30665975  0.05269635  1
  In  In38  1  0.33141628  0.01193027  0.62566206  1
  In  In39  1  0.49493434  0.51177126  0.01583379  1
  In  In40  1  0.65440860  0.01064148  0.03165029  1
  In  In41  1  0.18012944  0.63798077  0.80353665  1
  In  In42  1  0.33712891  0.17015518  0.18416445  1
  In  In43  1  0.62094903  0.65502682  0.32075656  1
  In  In44  1  0.33876807  0.82687555  0.48374503  1
  In  In45  1  0.33703719  0.80648067  0.83087293  1
  In  In46  1  0.01857981  0.85749279  0.51449715  1
  In  In47  1  0.07388418  0.45969389  0.19345754  1
  In  In48  1  0.18635148  0.81667362  0.66517367  1
  In  In49  1  0.68935767  0.31850858  0.32003737  1
  In  In50  1  0.78047966  0.84984859  0.34403201  1
  In  In51  1  0.34786526  0.33904022  -0.00287548  1
  In  In52  1  -0.00271116  0.70772159  0.34446301  1
  In  In53  1  -0.01113815  0.02143968  0.33845682  1
  In  In54  1  0.68019010  -0.00560105  0.67278677  1
  In  In55  1  0.49138785  0.17691310  0.01891996  1
  In  In56  1  0.49794112  0.18697794  0.63360662  1
  In  In57  1  0.84140149  0.05840432  0.17450424  1
  In  In58  1  0.03278192  0.33044333  0.31935944  1
  In  In59  1  0.63716669  0.47044308  0.16697632  1
  In  In60  1  0.50560364  0.01329028  0.81919277  1
  In  In61  1  0.31907320  0.04111405  0.36061439  1
  In  In62  1  0.64800741  0.83254844  0.83671697  1
  In  In63  1  0.17742763  0.82941491  0.34387322  1
  In  In64  1  0.49872367  0.31411837  0.81906904  1
  In  In65  1  0.48708899  0.63038649  0.81897114  1
  In  In66  1  0.04078912  0.54255708  0.53035361  1
  In  In67  1  0.63282937  0.66998473  0.66376547  1
  In  In68  1  0.68261875  0.43936474  0.86035412  1
  In  In69  1  0.65206496  0.59109551  0.00234542  1
  In  In70  1  0.18023156  0.00246399  0.16495499  1
  In  In71  1  0.14756133  0.64569645  0.15872507  1
  Te  Te72  1  0.09508635  0.06221131  0.06086646  1
  Te  Te73  1  0.08418693  0.08979468  0.42417351  1
  Te  Te74  1  0.07513218  0.08550150  0.71989788  1
  Te  Te75  1  0.11255984  0.41917669  0.05513261  1
  Te  Te76  1  0.06830645  0.43863301  0.42725153  1
  Te  Te77  1  0.07502973  0.42261848  0.76645266  1
  Te  Te78  1  0.08081495  0.75336886  0.07262432  1
  Te  Te79  1  0.10154223  0.74770357  0.44718722  1
  Te  Te80  1  0.09205812  0.76176219  0.77153591  1
  Te  Te81  1  0.39547895  0.06761613  0.07823520  1
  Te  Te82  1  0.45151587  0.10108714  0.37702289  1
  Te  Te83  1  0.41958400  0.09293855  0.72548945  1
  Te  Te84  1  0.40342708  0.42992603  0.10877421  1
  Te  Te85  1  0.36273332  0.41111979  0.37535706  1
  Te  Te86  1  0.42550150  0.40750911  0.72529618  1
  Te  Te87  1  0.39640321  0.71621441  0.08788076  1
  Te  Te88  1  0.41332375  0.75631616  0.37450938  1
  Te  Te89  1  0.42873329  0.73834560  0.73840828  1
  Te  Te90  1  0.75383268  0.11173438  0.06922802  1
  Te  Te91  1  0.77753754  0.09221528  0.38987176  1
  Te  Te92  1  0.74714218  0.08176646  0.77510777  1
  Te  Te93  1  0.72719197  0.38373526  0.08453256  1
  Te  Te94  1  0.75403435  0.42850847  0.43098190  1
  Te  Te95  1  0.77300307  0.39962379  0.74388622  1
  Te  Te96  1  0.73603521  0.72908930  0.07439502  1
  Te  Te97  1  0.73106866  0.72537111  0.40979113  1
  Te  Te98  1  0.73635666  0.74871141  0.74590303  1
  Te  Te99  1  0.05941084  0.25282481  0.19187190  1
  Te  Te100  1  0.10430450  0.27585071  0.56399001  1
  Te  Te101  1  0.10584383  0.25213641  0.91564120  1
  Te  Te102  1  0.06437415  0.59293474  0.27427720  1
  Te  Te103  1  0.13048598  0.59474562  0.63656202  1
  Te  Te104  1  0.09572476  0.57513982  0.91646767  1
  Te  Te105  1  0.08071184  0.91374182  0.25872107  1
  Te  Te106  1  0.11611648  0.92743712  0.59754262  1
  Te  Te107  1  0.07674819  0.94013770  0.92375163  1
  Te  Te108  1  0.41981284  0.22560238  0.29734117  1
  Te  Te109  1  0.39617592  0.24612902  0.54263556  1
  Te  Te110  1  0.40570718  0.23108571  0.90559764  1
  Te  Te111  1  0.42844807  0.57867402  0.21592706  1
  Te  Te112  1  0.36912263  0.57822327  0.56265619  1
  Te  Te113  1  0.39837177  0.56292746  0.91456494  1
  Te  Te114  1  0.38847821  0.94216615  0.26165986  1
  Te  Te115  1  0.42385072  0.93077202  0.54652010  1
  Te  Te116  1  0.43256500  0.90658794  0.91453894  1
  Te  Te117  1  0.80508456  0.28644120  0.23764560  1
  Te  Te118  1  0.77727602  0.25432975  0.57883004  1
  Te  Te119  1  0.69762464  0.31437909  0.93668141  1
  Te  Te120  1  0.73700233  0.55840239  0.25819991  1
  Te  Te121  1  0.74860300  0.59040193  0.58689884  1
  Te  Te122  1  0.77791571  0.55468294  0.92392060  1
  Te  Te123  1  0.74104969  0.93291625  0.22613061  1
  Te  Te124  1  0.73302394  0.88832481  0.57594653  1
  Te  Te125  1  0.72855721  0.92098503  0.92903736  1
  Te  Te126  1  0.25796706  0.26187311  0.09296596  1
  Te  Te127  1  0.24558548  0.30257614  0.38622851  1
  Te  Te128  1  0.27196429  0.26345694  0.73017985  1
  Te  Te129  1  0.21346102  0.52214635  0.11567717  1
  Te  Te130  1  0.26571214  0.59632903  0.44617249  1
  Te  Te131  1  0.27557398  0.56517445  0.71168212  1
  Te  Te132  1  0.24709262  0.89362055  0.08054641  1
  Te  Te133  1  0.23764346  0.93387058  0.43202210  1
  Te  Te134  1  0.27816172  0.92068733  0.74714206  1
  Te  Te135  1  0.57195165  0.24392132  0.12281003  1
  Te  Te136  1  0.60264612  0.24844225  0.41455639  1
  Te  Te137  1  0.60229765  0.24568866  0.73171594  1
  Te  Te138  1  0.55877830  0.60017817  0.13067082  1
  Te  Te139  1  0.53389782  0.58098933  0.41232939  1
  Te  Te140  1  0.59682685  0.55084465  0.75186901  1
  Te  Te141  1  0.55814070  0.90492271  0.09390272  1
  Te  Te142  1  0.56688897  0.93972948  0.41186305  1
  Te  Te143  1  0.56849759  0.90677728  0.73101005  1
  Te  Te144  1  0.89462186  0.24592388  0.11688880  1
  Te  Te145  1  0.92811112  0.24872355  0.40145762  1
  Te  Te146  1  0.91384660  0.24348825  0.75370505  1
  Te  Te147  1  0.93633875  0.57338063  0.08336091  1
  Te  Te148  1  0.91996470  0.61668365  0.44802342  1
  Te  Te149  1  0.93478906  0.60630124  0.76707134  1
  Te  Te150  1  0.91520132  0.94558988  0.09534790  1
  Te  Te151  1  0.90963535  0.89983013  0.40440319  1
  Te  Te152  1  0.90161652  0.90163111  0.71423800  1
  Te  Te153  1  0.22171405  0.10922440  0.26323613  1
  Te  Te154  1  0.27221428  0.12500253  0.54848412  1
  Te  Te155  1  0.25411274  0.08607172  0.88473668  1
  Te  Te156  1  0.24839836  0.40391698  0.27245661  1
  Te  Te157  1  0.21419678  0.45779229  0.62146717  1
  Te  Te158  1  0.28456163  0.43335305  0.90120617  1
  Te  Te159  1  0.24011177  0.73398470  0.24482686  1
  Te  Te160  1  0.29688892  0.74237814  0.59969586  1
  Te  Te161  1  0.25831909  0.71744573  0.92200280  1
  Te  Te162  1  0.60404775  0.11750675  0.22764140  1
  Te  Te163  1  0.59504003  0.07893857  0.57947989  1
  Te  Te164  1  0.57889273  0.09292350  0.92412135  1
  Te  Te165  1  0.56882522  0.41199063  0.28726815  1
  Te  Te166  1  0.56147168  0.41465442  0.55668351  1
  Te  Te167  1  0.55618063  0.39153952  0.94023339  1
  Te  Te168  1  0.54782751  0.77617515  0.27338514  1
  Te  Te169  1  0.54403769  0.72869030  0.56382557  1
  Te  Te170  1  0.59011070  0.71496761  0.91691204  1
  Te  Te171  1  0.96958439  0.11753958  0.22564723  1
  Te  Te172  1  0.91932113  0.05932978  0.57284069  1
  Te  Te173  1  0.91331378  0.09483112  0.91956086  1
  Te  Te174  1  0.92818618  0.42485412  0.25198422  1
  Te  Te175  1  0.93303033  0.44015646  0.59633107  1
  Te  Te176  1  0.92088587  0.37244218  0.93702927  1
  Te  Te177  1  0.89050277  0.74608592  0.23859288  1
  Te  Te178  1  0.93575847  0.78183188  0.61779340  1
  Te  Te179  1  0.90621956  0.77988615  0.92302011  1
