# generated using pymatgen
data_In2Te3
_symmetry_space_group_name_H-M   'P 1'
_cell_length_a   18.95131735
_cell_length_b   18.95255939
_cell_length_c   18.95901210
_cell_angle_alpha   90.01285474
_cell_angle_beta   90.10768959
_cell_angle_gamma   89.78369536
_symmetry_Int_Tables_number   1
_chemical_formula_structural   In2Te3
_chemical_formula_sum   'In72 Te108'
_cell_volume   6809.56080145
_cell_formula_units_Z   36
loop_
 _symmetry_equiv_pos_site_id
 _symmetry_equiv_pos_as_xyz
  1  'x, y, z'
loop_
 _atom_site_type_symbol
 _atom_site_label
 _atom_site_symmetry_multiplicity
 _atom_site_fract_x
 _atom_site_fract_y
 _atom_site_fract_z
 _atom_site_occupancy
  In  In0  1  0.83603085  0.15609687  0.34362222  1
  In  In1  1  0.02817669  0.64452271  0.66924918  1
  In  In2  1  0.16666071  -0.00095134  0.82046874  1
  In  In3  1  -0.00899341  0.79260296  0.85270715  1
  In  In4  1  0.16327050  0.02257811  0.49308126  1
  In  In5  1  0.67218149  0.17848530  0.85432985  1
  In  In6  1  0.66541057  0.29974248  -0.00521747  1
  In  In7  1  0.04853075  0.35714969  0.36349644  1
  In  In8  1  0.17487169  0.66760589  0.83678029  1
  In  In9  1  0.63482763  0.00762315  0.64123074  1
  In  In10  1  0.03117279  0.34238329  0.65103493  1
  In  In11  1  0.83581662  0.34139109  0.82034839  1
  In  In12  1  0.51209051  0.34378388  0.83712678  1
  In  In13  1  0.85322292  0.29548092  0.18092490  1
  In  In14  1  0.47257767  0.35918605  0.18619365  1
  In  In15  1  -0.01140052  0.17671364  0.52654273  1
  In  In16  1  0.30559533  0.65641390  0.34584630  1
  In  In17  1  0.01608603  0.82675627  0.50140278  1
  In  In18  1  0.17893524  0.31007866  0.16835963  1
  In  In19  1  0.02510533  0.32835215  -0.01225413  1
  In  In20  1  0.49816254  0.67155509  0.51281318  1
  In  In21  1  0.64670441  0.14339466  0.46755258  1
  In  In22  1  0.66505210  0.83984374  0.19973234  1
  In  In23  1  0.81849716  0.83411580  0.67504066  1
  In  In24  1  0.30145273  0.30894989  -0.00617135  1
  In  In25  1  0.67893313  0.15599493  0.19438686  1
  In  In26  1  0.69473231  0.68919201  -0.01264402  1
  In  In27  1  0.32003701  0.87468603  0.21067332  1
  In  In28  1  0.53343649  0.49309478  0.01037347  1
  In  In29  1  0.48207313  0.52034556  0.34453795  1
  In  In30  1  -0.01348475  -0.03082624  0.33637628  1
  In  In31  1  0.14489578  0.83722892  0.00636878  1
  In  In32  1  0.66570285  -0.00645235  0.02059548  1
  In  In33  1  0.49259655  0.50754289  0.64444518  1
  In  In34  1  0.31264367  0.11425108  0.20539752  1
  In  In35  1  0.30243591  0.30125409  0.36973265  1
  In  In36  1  0.34434544  0.68619324  0.01507511  1
  In  In37  1  0.35003880  -0.02521998  -0.02794394  1
  In  In38  1  0.83684031  0.49488374  0.34831506  1
  In  In39  1  0.83193774  0.33932073  0.51341123  1
  In  In40  1  0.83961706  0.66056151  0.17020737  1
  In  In41  1  0.48767726  0.15500180  0.02552380  1
  In  In42  1  0.83601166  0.14430477  0.67595392  1
  In  In43  1  0.31946459  0.01792089  0.66653830  1
  In  In44  1  0.65846221  0.33636464  0.64114257  1
  In  In45  1  0.32995861  0.85348472  0.48106051  1
  In  In46  1  0.18375460  0.47822226  0.62759792  1
  In  In47  1  0.49072440  0.15186476  0.32985955  1
  In  In48  1  -0.01251429  0.84306185  0.16421828  1
  In  In49  1  0.49781820  0.71315554  0.18437731  1
  In  In50  1  0.18745759  0.51606952  -0.01897816  1
  In  In51  1  0.31567403  0.49667373  0.15523163  1
  In  In52  1  0.85418897  0.51581788  0.65637754  1
  In  In53  1  0.34950098  0.49996486  0.83292769  1
  In  In54  1  0.00768950  0.15405464  0.84273105  1
  In  In55  1  0.66932680  0.50893561  0.15637907  1
  In  In56  1  0.48637051  0.83556159  0.67371998  1
  In  In57  1  0.43371485  0.19791012  0.63169103  1
  In  In58  1  0.01895449  0.67189076  0.33550267  1
  In  In59  1  0.04807204  0.14054973  0.16678106  1
  In  In60  1  0.32232869  0.68198420  0.63853523  1
  In  In61  1  0.82686006  0.49601812  0.01986677  1
  In  In62  1  0.82786774  -0.01585941  0.15859627  1
  In  In63  1  0.82660964  0.68613822  0.49197536  1
  In  In64  1  0.84273062  0.00975402  0.85836749  1
  In  In65  1  0.62837046  0.85601074  0.48022942  1
  In  In66  1  0.00049671  0.01089813  0.66193383  1
  In  In67  1  0.32214633  0.18568485  0.79759355  1
  In  In68  1  0.68430434  0.64975784  0.67274975  1
  In  In69  1  0.52297864  0.68470773  0.83318805  1
  In  In70  1  0.66183714  0.82543075  0.82301419  1
  In  In71  1  0.00584477  0.51056293  0.16853075  1
  Te  Te72  1  0.13433324  0.06054670  0.08039528  1
  Te  Te73  1  0.04505057  0.08208108  0.42024455  1
  Te  Te74  1  0.09676874  0.10336037  0.73053785  1
  Te  Te75  1  0.10428819  0.41720883  0.08496793  1
  Te  Te76  1  0.13909969  0.43520784  0.45167685  1
  Te  Te77  1  0.08869113  0.44613587  0.73713411  1
  Te  Te78  1  0.06444589  0.74503740  0.08540077  1
  Te  Te79  1  0.10953999  0.76398611  0.40734309  1
  Te  Te80  1  0.09298754  0.75902869  0.74565316  1
  Te  Te81  1  0.40232214  0.05398601  0.09551533  1
  Te  Te82  1  0.40609409  0.04864926  0.39570609  1
  Te  Te83  1  0.42848093  0.09368163  0.74414384  1
  Te  Te84  1  0.39883185  0.41270319  0.05590810  1
  Te  Te85  1  0.40980462  0.40577527  0.40422936  1
  Te  Te86  1  0.42018627  0.40730824  0.73535772  1
  Te  Te87  1  0.40060439  0.79559653  0.10420893  1
  Te  Te88  1  0.41063883  0.74391270  0.41166928  1
  Te  Te89  1  0.40454817  0.74018463  0.75649268  1
  Te  Te90  1  0.75659039  0.10019400  0.08039223  1
  Te  Te91  1  0.74111952  0.05469985  0.39556393  1
  Te  Te92  1  0.73261103  0.06947640  0.75634911  1
  Te  Te93  1  0.75299815  0.38823561  0.10029316  1
  Te  Te94  1  0.74248748  0.41191588  0.42308881  1
  Te  Te95  1  0.75130768  0.42281703  0.72514413  1
  Te  Te96  1  0.75698064  0.76657445  0.09834898  1
  Te  Te97  1  0.72550776  0.76373389  0.41645085  1
  Te  Te98  1  0.77329221  0.72227286  0.77480911  1
  Te  Te99  1  0.09579738  0.24312843  0.27486882  1
  Te  Te100  1  0.10607795  0.26047085  0.55325945  1
  Te  Te101  1  0.10752443  0.24309728  0.90234140  1
  Te  Te102  1  0.09757551  0.56711268  0.26634256  1
  Te  Te103  1  0.11195971  0.59093775  0.55742471  1
  Te  Te104  1  0.07965169  0.58957383  0.91580330  1
  Te  Te105  1  0.08911588  0.92868624  0.23591883  1
  Te  Te106  1  0.09736591  0.92239078  0.58850004  1
  Te  Te107  1  0.06709540  0.91500298  0.90111001  1
  Te  Te108  1  0.39118316  0.24501702  0.24409455  1
  Te  Te109  1  0.38798431  0.27820739  0.51215275  1
  Te  Te110  1  0.42502050  0.24986771  0.91773692  1
  Te  Te111  1  0.41494441  0.58869880  0.22459293  1
  Te  Te112  1  0.38845691  0.57398171  0.55595936  1
  Te  Te113  1  0.42809705  0.58897033  0.92919692  1
  Te  Te114  1  0.42726319  0.92850510  0.29978826  1
  Te  Te115  1  0.41409842  0.93022058  0.58216713  1
  Te  Te116  1  0.44783057  0.88592854  0.91082522  1
  Te  Te117  1  0.74194863  0.26235489  0.27900641  1
  Te  Te118  1  0.74937872  0.22324173  0.57812395  1
  Te  Te119  1  0.78961695  0.24212136  0.92574416  1
  Te  Te120  1  0.74692922  0.58571731  0.26213097  1
  Te  Te121  1  0.74883366  0.57379945  0.56088576  1
  Te  Te122  1  0.74796506  0.57129199  0.92010062  1
  Te  Te123  1  0.75015752  0.93657663  0.27480329  1
  Te  Te124  1  0.73673702  0.91648866  0.57677517  1
  Te  Te125  1  0.74486344  0.91210203  0.91933889  1
  Te  Te126  1  0.25075996  0.20245335  0.08824406  1
  Te  Te127  1  0.23683194  0.18540732  0.43404700  1
  Te  Te128  1  0.25673674  0.28695537  0.71680362  1
  Te  Te129  1  0.23684068  0.60901002  0.09027114  1
  Te  Te130  1  0.22392876  0.56373120  0.42670931  1
  Te  Te131  1  0.25828831  0.57990465  0.74109404  1
  Te  Te132  1  0.23323285  0.93982503  0.07336106  1
  Te  Te133  1  0.23309651  0.93293472  0.39449529  1
  Te  Te134  1  0.26061317  0.91337940  0.74872255  1
  Te  Te135  1  0.56328398  0.26412373  0.10138087  1
  Te  Te136  1  0.57845398  0.24982456  0.39534882  1
  Te  Te137  1  0.59030757  0.24894931  0.74709224  1
  Te  Te138  1  0.58406417  0.61565488  0.08820861  1
  Te  Te139  1  0.58174650  0.58385111  0.43147094  1
  Te  Te140  1  0.58231895  0.57105207  0.75243487  1
  Te  Te141  1  0.57814567  0.93447326  0.12353561  1
  Te  Te142  1  0.53173018  0.94960012  0.41542471  1
  Te  Te143  1  0.57172114  0.92993989  0.75618774  1
  Te  Te144  1  0.95582968  0.23638522  0.08773038  1
  Te  Te145  1  0.92325935  0.26543826  0.41333378  1
  Te  Te146  1  0.92448986  0.25264371  0.73305262  1
  Te  Te147  1  0.93053924  0.59580772  0.06820510  1
  Te  Te148  1  0.92515264  0.59030390  0.42554961  1
  Te  Te149  1  0.94383324  0.56631211  0.76124810  1
  Te  Te150  1  0.92057482  0.92611059  0.06125893  1
  Te  Te151  1  0.90573723  0.88349328  0.42248340  1
  Te  Te152  1  0.91463327  0.92367537  0.75287157  1
  Te  Te153  1  0.21055160  0.02702545  0.27027251  1
  Te  Te154  1  0.25162687  0.11512036  0.57273912  1
  Te  Te155  1  0.27060041  0.08073371  0.89626125  1
  Te  Te156  1  0.25457369  0.40594468  0.25686698  1
  Te  Te157  1  0.28196569  0.37025577  0.58892918  1
  Te  Te158  1  0.24414264  0.40663202  0.89194289  1
  Te  Te159  1  0.24905929  0.75336544  0.25120243  1
  Te  Te160  1  0.23663585  0.76808306  0.55778381  1
  Te  Te161  1  0.25238645  0.76483069  0.92369157  1
  Te  Te162  1  0.56466508  0.07124560  0.22561322  1
  Te  Te163  1  0.54300747  0.10470782  0.57038919  1
  Te  Te164  1  0.58033140  0.08269467  0.92923229  1
  Te  Te165  1  0.58228225  0.43409564  0.25506983  1
  Te  Te166  1  0.57103020  0.41831702  0.55776788  1
  Te  Te167  1  0.62204277  0.41839272  0.91007427  1
  Te  Te168  1  0.58580886  0.75643309  0.29306913  1
  Te  Te169  1  0.60073566  0.75723774  0.60506405  1
  Te  Te170  1  0.56439077  0.78471308  0.94048932  1
  Te  Te171  1  0.92049167  0.08324078  0.23962881  1
  Te  Te172  1  0.89462118  0.05944632  0.56532716  1
  Te  Te173  1  0.93941176  0.07594329  0.94621588  1
  Te  Te174  1  0.92727259  0.40888976  0.25107009  1
  Te  Te175  1  0.94042776  0.43066687  0.56529212  1
  Te  Te176  1  0.91832124  0.41559178  0.92415434  1
  Te  Te177  1  0.91217658  0.75418545  0.26305933  1
  Te  Te178  1  0.91732320  0.74261363  0.60307066  1
  Te  Te179  1  0.86338104  0.74608083  0.90237264  1
