# generated using pymatgen
data_In2Te3
_symmetry_space_group_name_H-M   'P 1'
_cell_length_a   18.81430481
_cell_length_b   18.81234674
_cell_length_c   18.80876363
_cell_angle_alpha   90.07501270
_cell_angle_beta   90.04743818
_cell_angle_gamma   90.01829912
_symmetry_Int_Tables_number   1
_chemical_formula_structural   In2Te3
_chemical_formula_sum   'In72 Te108'
_cell_volume   6657.18852576
_cell_formula_units_Z   36
loop_
 _symmetry_equiv_pos_site_id
 _symmetry_equiv_pos_as_xyz
  1  'x, y, z'
loop_
 _atom_site_type_symbol
 _atom_site_label
 _atom_site_symmetry_multiplicity
 _atom_site_fract_x
 _atom_site_fract_y
 _atom_site_fract_z
 _atom_site_occupancy
  In  In0  1  -0.00970896  0.81483266  0.50881050  1
  In  In1  1  0.01743230  0.00909988  0.67224391  1
  In  In2  1  0.03039114  0.79312098  0.80966078  1
  In  In3  1  0.50132031  0.17228238  -0.02277173  1
  In  In4  1  0.15851022  -0.02692939  0.15072533  1
  In  In5  1  -0.00756161  0.37348060  0.69500237  1
  In  In6  1  0.32485623  0.19297031  0.54982116  1
  In  In7  1  0.49882957  0.81178981  -0.02012546  1
  In  In8  1  0.33474686  0.37043667  -0.02055424  1
  In  In9  1  0.31415720  0.82825957  0.84621719  1
  In  In10  1  0.64427511  0.33831701  -0.05146467  1
  In  In11  1  0.31505730  0.17321664  0.13886627  1
  In  In12  1  0.49664828  0.65749693  0.83625475  1
  In  In13  1  0.68808909  0.52061009  0.83551515  1
  In  In14  1  0.49725583  -0.00833649  0.17162665  1
  In  In15  1  0.63210230  0.80135255  0.54388925  1
  In  In16  1  0.85016977  0.82115057  -0.01175800  1
  In  In17  1  0.81035789  0.81278980  0.69467415  1
  In  In18  1  0.00288126  0.16992545  0.14834033  1
  In  In19  1  0.01936165  -0.03278568  0.32103402  1
  In  In20  1  0.47632895  0.17741175  0.34372167  1
  In  In21  1  0.16578463  -0.00945432  0.50560629  1
  In  In22  1  0.84480376  0.00782740  0.83171056  1
  In  In23  1  0.31559273  0.67782190  0.33591241  1
  In  In24  1  0.16871424  0.33512223  0.49461327  1
  In  In25  1  0.18598252  0.34110289  0.14105018  1
  In  In26  1  0.16713514  0.80693874  -0.00181363  1
  In  In27  1  0.68758533  0.00089575  0.32272030  1
  In  In28  1  0.16284910  0.49228122  0.32953839  1
  In  In29  1  0.67431518  -0.01724190  0.67296968  1
  In  In30  1  0.85361712  0.64751823  0.11670287  1
  In  In31  1  0.31008460  0.33192196  0.31857482  1
  In  In32  1  0.79863202  0.19842855  -0.01279919  1
  In  In33  1  0.66111906  0.50454373  0.14546378  1
  In  In34  1  0.49327389  0.35240890  0.52539656  1
  In  In35  1  0.15203593  0.51938827  -0.00924537  1
  In  In36  1  0.01256308  0.67175715  0.33184992  1
  In  In37  1  0.34400778  0.35516429  0.69732585  1
  In  In38  1  0.33463309  0.66698435  0.67925948  1
  In  In39  1  0.83271745  0.49773915  0.34527562  1
  In  In40  1  -0.01260067  0.16998656  0.52303783  1
  In  In41  1  0.49315786  0.82194340  0.33332444  1
  In  In42  1  -0.00265644  0.00108054  -0.00110740  1
  In  In43  1  0.82901103  0.17311719  0.34738703  1
  In  In44  1  0.17801340  0.15725344  0.67426365  1
  In  In45  1  0.16844326  0.65943719  0.14507688  1
  In  In46  1  0.67924171  0.17996965  0.52869739  1
  In  In47  1  -0.01369571  0.34354149  0.33969020  1
  In  In48  1  0.48498906  0.51214174  -0.00675668  1
  In  In49  1  0.18523659  -0.00737126  0.82674692  1
  In  In50  1  0.50889753  -0.01278148  0.81933681  1
  In  In51  1  0.85064172  0.19195007  0.67571502  1
  In  In52  1  0.51231611  0.50921204  0.32893249  1
  In  In53  1  0.85013461  0.83642328  0.32915160  1
  In  In54  1  0.64514377  -0.01126112  -0.00960305  1
  In  In55  1  0.33348838  0.83021196  0.51767058  1
  In  In56  1  0.51346103  -0.01355639  0.52142668  1
  In  In57  1  0.49066055  0.65797837  0.13588798  1
  In  In58  1  0.82935118  0.68118744  0.50307092  1
  In  In59  1  0.65630520  0.49299449  0.54846411  1
  In  In60  1  0.65908974  0.15839197  0.12800418  1
  In  In61  1  0.84982136  -0.01733559  0.17425251  1
  In  In62  1  0.33962916  0.51913449  0.50744426  1
  In  In63  1  0.15209745  0.13969059  0.29808273  1
  In  In64  1  0.81108756  0.35004874  0.17808396  1
  In  In65  1  0.15442449  0.55149603  0.70286380  1
  In  In66  1  0.85099440  0.52102860  0.69234017  1
  In  In67  1  0.33641887  0.15040903  0.82788668  1
  In  In68  1  0.36222068  -0.02211891  0.34286298  1
  In  In69  1  0.01706213  0.37516285  -0.07006377  1
  In  In70  1  0.66515244  0.36492601  0.34463221  1
  In  In71  1  0.65452924  0.65560330  0.33914829  1
  Te  Te72  1  0.10284618  0.09081861  0.06863782  1
  Te  Te73  1  0.07563857  0.08936647  0.42711849  1
  Te  Te74  1  0.07998828  0.09862114  0.77733986  1
  Te  Te75  1  0.07309231  0.41135562  0.07052844  1
  Te  Te76  1  0.06818111  0.43211998  0.43438335  1
  Te  Te77  1  0.10466006  0.42914775  0.77805187  1
  Te  Te78  1  0.06285928  0.72889191  0.06624740  1
  Te  Te79  1  0.09287848  0.75842566  0.41959749  1
  Te  Te80  1  0.11531326  0.70371199  0.72210001  1
  Te  Te81  1  0.42317853  0.08399903  0.07516879  1
  Te  Te82  1  0.41186194  0.08310245  0.44458804  1
  Te  Te83  1  0.42093619  0.07128369  0.73604576  1
  Te  Te84  1  0.41936572  0.42065142  0.08920692  1
  Te  Te85  1  0.40868598  0.41158217  0.40838976  1
  Te  Te86  1  0.45160813  0.44353920  0.74897809  1
  Te  Te87  1  0.39632452  0.74325867  0.06145354  1
  Te  Te88  1  0.42054546  0.73450333  0.43269513  1
  Te  Te89  1  0.42314573  0.76608562  0.75783328  1
  Te  Te90  1  0.76647834  0.06186696  0.07288132  1
  Te  Te91  1  0.75236128  0.07775733  0.43777196  1
  Te  Te92  1  0.75331206  0.09174091  0.74560989  1
  Te  Te93  1  0.73774189  0.40719362  0.05872013  1
  Te  Te94  1  0.75441834  0.42116965  0.45186873  1
  Te  Te95  1  0.75574052  0.41835301  0.74764764  1
  Te  Te96  1  0.75447512  0.74515095  0.07267646  1
  Te  Te97  1  0.73682598  0.76175288  0.41199694  1
  Te  Te98  1  0.69981952  0.75413312  0.77556690  1
  Te  Te99  1  0.08960083  0.27230136  0.24902733  1
  Te  Te100  1  0.08461779  0.25991826  0.59963834  1
  Te  Te101  1  0.05462506  0.23943201  0.89344358  1
  Te  Te102  1  0.07628832  0.57282413  0.23435302  1
  Te  Te103  1  0.07821146  0.62027622  0.59672207  1
  Te  Te104  1  0.04065913  0.57800900  0.90519665  1
  Te  Te105  1  0.09829175  0.87228318  0.24154176  1
  Te  Te106  1  0.08902882  0.89760656  0.59787144  1
  Te  Te107  1  0.07298278  0.90835156  0.90358546  1
  Te  Te108  1  0.40914004  0.25480040  0.23092071  1
  Te  Te109  1  0.44071216  0.24948641  0.62734829  1
  Te  Te110  1  0.41427531  0.26609531  0.89733981  1
  Te  Te111  1  0.41306262  0.59166185  0.25106478  1
  Te  Te112  1  0.43485936  0.58152891  0.60348293  1
  Te  Te113  1  0.38383302  0.59655399  0.91829474  1
  Te  Te114  1  0.40280150  0.88549431  0.22786430  1
  Te  Te115  1  0.43132647  0.89888530  0.60550827  1
  Te  Te116  1  0.41662002  0.92483453  0.92076184  1
  Te  Te117  1  0.73107947  0.24426527  0.25435041  1
  Te  Te118  1  0.74482000  0.27857664  0.61614622  1
  Te  Te119  1  0.76229227  0.28217551  0.86475626  1
  Te  Te120  1  0.75048303  0.58155328  0.24506146  1
  Te  Te121  1  0.74924969  0.60111692  0.60326895  1
  Te  Te122  1  0.79281899  0.57387300  0.93245608  1
  Te  Te123  1  0.74136382  0.89276757  0.23149186  1
  Te  Te124  1  0.75276828  0.89311905  0.57786949  1
  Te  Te125  1  0.75387003  0.91545816  0.91193406  1
  Te  Te126  1  0.24218485  0.25233351  0.03249096  1
  Te  Te127  1  0.24912212  0.22995214  0.41695061  1
  Te  Te128  1  0.24592147  0.25885744  0.76504215  1
  Te  Te129  1  0.26657123  0.58670154  0.05914472  1
  Te  Te130  1  0.23019119  0.58881944  0.42724050  1
  Te  Te131  1  0.28259687  0.57262291  0.78606568  1
  Te  Te132  1  0.25404395  0.91082271  0.05901192  1
  Te  Te133  1  0.24690740  0.90463776  0.40939273  1
  Te  Te134  1  0.24542590  0.89708819  0.73365175  1
  Te  Te135  1  0.57345898  0.26737021  0.07170492  1
  Te  Te136  1  0.58022397  0.25726865  0.42631683  1
  Te  Te137  1  0.61504340  0.25954887  0.82206409  1
  Te  Te138  1  0.60055099  0.60003570  0.04543758  1
  Te  Te139  1  0.57797497  0.57972124  0.44574023  1
  Te  Te140  1  0.60468396  0.60959488  0.73651169  1
  Te  Te141  1  0.58081208  0.89502106  0.08871805  1
  Te  Te142  1  0.58916804  0.91550144  0.40941700  1
  Te  Te143  1  0.60176867  0.88412798  0.75975658  1
  Te  Te144  1  0.90182589  0.26275784  0.08570368  1
  Te  Te145  1  0.90105493  0.26796486  0.44233556  1
  Te  Te146  1  0.94695281  0.25381795  0.77627188  1
  Te  Te147  1  0.92724636  0.55688970  0.02193898  1
  Te  Te148  1  0.92267468  0.58915966  0.42681784  1
  Te  Te149  1  0.93687007  0.59817529  0.78948144  1
  Te  Te150  1  0.94129304  0.89468340  0.09196146  1
  Te  Te151  1  0.91891146  0.92895568  0.42786574  1
  Te  Te152  1  0.92745099  0.90677622  0.75153278  1
  Te  Te153  1  0.27387827  0.06675664  0.24653955  1
  Te  Te154  1  0.26593597  0.05881659  0.59879336  1
  Te  Te155  1  0.25981031  0.07110699  0.92666109  1
  Te  Te156  1  0.26297225  0.44289324  0.22525204  1
  Te  Te157  1  0.25530002  0.41972255  0.58854600  1
  Te  Te158  1  0.22705922  0.42852649  0.89357993  1
  Te  Te159  1  0.23579106  0.75562917  0.23936610  1
  Te  Te160  1  0.24008032  0.73593867  0.58611826  1
  Te  Te161  1  0.22482168  0.71924940  0.89249634  1
  Te  Te162  1  0.57787780  0.08994444  0.25956619  1
  Te  Te163  1  0.58457104  0.09041860  0.60842885  1
  Te  Te164  1  0.60203800  0.09659188  0.89099306  1
  Te  Te165  1  0.57489811  0.40996800  0.23160793  1
  Te  Te166  1  0.56827518  0.41341699  0.64102029  1
  Te  Te167  1  0.55305211  0.44547986  0.87130874  1
  Te  Te168  1  0.57782795  0.73792526  0.23804880  1
  Te  Te169  1  0.55506784  0.70102508  0.61912982  1
  Te  Te170  1  0.60789416  0.73888734  0.90592270  1
  Te  Te171  1  0.92483717  0.09020547  0.25981985  1
  Te  Te172  1  0.90007831  0.06888211  0.59471450  1
  Te  Te173  1  0.90984630  0.10409286  0.92997782  1
  Te  Te174  1  0.92183504  0.43687036  0.23657622  1
  Te  Te175  1  0.92715777  0.44688131  0.58694436  1
  Te  Te176  1  0.89373644  0.45447495  0.89999871  1
  Te  Te177  1  0.90886044  0.73238906  0.23754681  1
  Te  Te178  1  0.91760876  0.73409119  0.61711826  1
  Te  Te179  1  0.90631170  0.73624115  0.87516037  1
