# generated using pymatgen
data_In2Te3
_symmetry_space_group_name_H-M   'P 1'
_cell_length_a   18.77372444
_cell_length_b   18.77119572
_cell_length_c   18.77061252
_cell_angle_alpha   89.98513119
_cell_angle_beta   90.01693094
_cell_angle_gamma   89.97702962
_symmetry_Int_Tables_number   1
_chemical_formula_structural   In2Te3
_chemical_formula_sum   'In72 Te108'
_cell_volume   6614.86146347
_cell_formula_units_Z   36
loop_
 _symmetry_equiv_pos_site_id
 _symmetry_equiv_pos_as_xyz
  1  'x, y, z'
loop_
 _atom_site_type_symbol
 _atom_site_label
 _atom_site_symmetry_multiplicity
 _atom_site_fract_x
 _atom_site_fract_y
 _atom_site_fract_z
 _atom_site_occupancy
  In  In0  1  0.82100988  0.82924265  0.33862419  1
  In  In1  1  0.82629100  0.67354115  0.84275300  1
  In  In2  1  0.50521019  0.81061239  0.66802358  1
  In  In3  1  0.51381546  0.64980899  0.15127439  1
  In  In4  1  -0.01174186  0.32195977  0.33189201  1
  In  In5  1  0.66650701  0.34472475  0.32894987  1
  In  In6  1  -0.00588569  0.32367380  -0.00240302  1
  In  In7  1  0.32198468  0.84065310  0.14553652  1
  In  In8  1  0.47554468  -0.02396775  0.86500999  1
  In  In9  1  0.14619815  -0.03263985  0.17152624  1
  In  In10  1  -0.03056568  0.66648100  0.33928818  1
  In  In11  1  0.68805262  -0.00534606  0.65849924  1
  In  In12  1  0.83224037  0.19464863  -0.02073274  1
  In  In13  1  0.33755165  0.01441537  0.68931587  1
  In  In14  1  0.33614546  0.21339754  0.52995162  1
  In  In15  1  0.82442175  0.51918071  0.33933175  1
  In  In16  1  0.33711997  0.18615431  0.13374170  1
  In  In17  1  0.34172213  0.35364164  0.34713443  1
  In  In18  1  0.17186256  0.50457418  0.32957619  1
  In  In19  1  -0.01321377  0.66944832  -0.01007680  1
  In  In20  1  0.82536347  0.47744482  0.67818778  1
  In  In21  1  0.84743375  -0.00047214  0.50728346  1
  In  In22  1  0.50668621  0.80837569  0.30469928  1
  In  In23  1  -0.00198518  0.82656989  0.49488883  1
  In  In24  1  0.64620049  0.47891885  0.83963899  1
  In  In25  1  0.82980806  0.17704246  0.32171238  1
  In  In26  1  0.50503385  0.65611976  0.84193190  1
  In  In27  1  0.66229744  0.49514428  0.49092981  1
  In  In28  1  0.35295122  0.64870895  0.00182944  1
  In  In29  1  0.14986755  0.64610266  0.50401887  1
  In  In30  1  0.82028473  0.65962363  0.49115194  1
  In  In31  1  0.16185559  0.83661688  -0.00561835  1
  In  In32  1  0.00639802  0.48084974  0.83292256  1
  In  In33  1  0.13761380  0.00859297  0.50309740  1
  In  In34  1  0.16723985  0.18216255  0.67396050  1
  In  In35  1  0.67453181  0.83928175  0.83718391  1
  In  In36  1  -0.00311514  0.17088323  0.16144383  1
  In  In37  1  0.18446429  0.66366293  0.15321768  1
  In  In38  1  0.48553441  0.34370886  0.51312876  1
  In  In39  1  -0.00203538  0.33548429  0.68040802  1
  In  In40  1  0.16648493  0.65948621  0.82504392  1
  In  In41  1  0.18426618  0.18757760  -0.02200596  1
  In  In42  1  0.82277613  0.66997461  0.16883655  1
  In  In43  1  0.67621685  0.17023758  0.51974167  1
  In  In44  1  0.34728391  0.49549658  0.14767758  1
  In  In45  1  0.01671227  0.65874915  0.65460710  1
  In  In46  1  0.50070732  0.20426041  -0.01809760  1
  In  In47  1  -0.00936374  0.48793620  0.15470963  1
  In  In48  1  0.32159734  0.66693317  0.31598061  1
  In  In49  1  0.31776768  0.84514052  0.50142630  1
  In  In50  1  0.00011793  -0.00303108  0.00949127  1
  In  In51  1  0.32963865  0.35492550  0.69617442  1
  In  In52  1  0.31989986  0.00700231  0.34019131  1
  In  In53  1  0.00234068  0.16730980  0.83970677  1
  In  In54  1  0.52753368  0.00659580  0.50340141  1
  In  In55  1  0.84728795  0.86142727  0.70052775  1
  In  In56  1  0.50224254  0.14811518  0.33022976  1
  In  In57  1  0.67678152  -0.01215932  -0.00527450  1
  In  In58  1  0.33956314  0.64696901  0.69889769  1
  In  In59  1  0.16241982  0.83443000  0.67434176  1
  In  In60  1  0.64599077  -0.00709049  0.32317763  1
  In  In61  1  0.16720437  0.33868201  0.51788146  1
  In  In62  1  0.82888149  0.17322504  0.67615703  1
  In  In63  1  0.51528674  0.00458697  0.14890051  1
  In  In64  1  0.65725836  0.18534041  0.81736787  1
  In  In65  1  0.51722256  0.65895608  0.50599539  1
  In  In66  1  0.50562896  0.48799815  0.67836798  1
  In  In67  1  0.51460307  0.34336104  0.15322868  1
  In  In68  1  0.14464635  0.15555467  0.31950531  1
  In  In69  1  0.66753173  0.66450531  0.00035042  1
  In  In70  1  0.17015567  0.01626115  0.84718397  1
  In  In71  1  0.83593589  0.00213223  0.15458101  1
  Te  Te72  1  0.09780963  0.09723351  0.07402184  1
  Te  Te73  1  0.05412126  0.09895331  0.42103967  1
  Te  Te74  1  0.07772482  0.07802814  0.74104451  1
  Te  Te75  1  0.08657879  0.41498604  0.06995675  1
  Te  Te76  1  0.08344570  0.41407808  0.41420199  1
  Te  Te77  1  0.10698861  0.41470295  0.74535833  1
  Te  Te78  1  0.07715697  0.75066899  0.08713602  1
  Te  Te79  1  0.08737056  0.74242691  0.40466586  1
  Te  Te80  1  0.06533578  0.75503178  0.76220841  1
  Te  Te81  1  0.42625704  0.08926677  0.05818161  1
  Te  Te82  1  0.40912591  0.08759347  0.43726319  1
  Te  Te83  1  0.42352565  0.08981871  0.78223441  1
  Te  Te84  1  0.42156579  0.40719540  0.04856097  1
  Te  Te85  1  0.43627818  0.44278922  0.41522589  1
  Te  Te86  1  0.42844466  0.42240913  0.78939085  1
  Te  Te87  1  0.42856309  0.75815231  0.07783963  1
  Te  Te88  1  0.40630157  0.75382211  0.41526855  1
  Te  Te89  1  0.40792550  0.76081691  0.77218375  1
  Te  Te90  1  0.75288034  0.09767782  0.07100236  1
  Te  Te91  1  0.73945801  0.07230406  0.41688699  1
  Te  Te92  1  0.75413311  0.07585240  0.76798230  1
  Te  Te93  1  0.78796993  0.37507824  0.02368761  1
  Te  Te94  1  0.76718447  0.40479091  0.42597273  1
  Te  Te95  1  0.74165288  0.39073417  0.76550652  1
  Te  Te96  1  0.75611095  0.75925790  0.07061986  1
  Te  Te97  1  0.73027763  0.72562584  0.39364401  1
  Te  Te98  1  0.74710065  0.75037804  0.73684900  1
  Te  Te99  1  0.09149102  0.26844369  0.23069983  1
  Te  Te100  1  0.06823482  0.24016801  0.57519376  1
  Te  Te101  1  0.09575673  0.27605123  0.89080046  1
  Te  Te102  1  0.07640586  0.59074221  0.24444378  1
  Te  Te103  1  0.09818806  0.54783734  0.60125321  1
  Te  Te104  1  0.08612875  0.57372531  0.92449113  1
  Te  Te105  1  0.06690736  0.91481857  0.27781207  1
  Te  Te106  1  0.05962137  0.91928061  0.59994410  1
  Te  Te107  1  0.06576878  0.91157034  0.89731495  1
  Te  Te108  1  0.41746286  0.24929383  0.25167238  1
  Te  Te109  1  0.44312785  0.25018674  0.63453654  1
  Te  Te110  1  0.39932114  0.27248587  0.89133130  1
  Te  Te111  1  0.42483123  0.57508446  0.25204159  1
  Te  Te112  1  0.41831019  0.57697549  0.58862796  1
  Te  Te113  1  0.40378611  0.55911523  0.89301409  1
  Te  Te114  1  0.41724131  0.92847530  0.25136810  1
  Te  Te115  1  0.41986422  0.92125211  0.58613132  1
  Te  Te116  1  0.38364172  0.91211824  0.95950210  1
  Te  Te117  1  0.73855538  0.25423783  0.23587839  1
  Te  Te118  1  0.75298885  0.27111933  0.59364233  1
  Te  Te119  1  0.71958705  0.28361955  0.92506180  1
  Te  Te120  1  0.73387020  0.56851063  0.23325169  1
  Te  Te121  1  0.74280939  0.57688491  0.59285382  1
  Te  Te122  1  0.74970609  0.56615171  0.91662437  1
  Te  Te123  1  0.74028030  0.91201154  0.23683361  1
  Te  Te124  1  0.75781920  0.89443071  0.56989586  1
  Te  Te125  1  0.77729696  0.91036278  0.91585428  1
  Te  Te126  1  0.24302848  0.28845874  0.07484920  1
  Te  Te127  1  0.24725189  0.24344985  0.40520680  1
  Te  Te128  1  0.26466963  0.24045022  0.76852564  1
  Te  Te129  1  0.23943549  0.55946517  0.05854473  1
  Te  Te130  1  0.26405163  0.57772092  0.42630704  1
  Te  Te131  1  0.24774811  0.55123721  0.76335071  1
  Te  Te132  1  0.25799781  0.94477784  0.05202034  1
  Te  Te133  1  0.21835501  0.91595731  0.40942476  1
  Te  Te134  1  0.25527198  0.91149576  0.76718538  1
  Te  Te135  1  0.60374096  0.25168328  0.07764255  1
  Te  Te136  1  0.57419058  0.24559703  0.42365588  1
  Te  Te137  1  0.56375854  0.26332840  0.73529223  1
  Te  Te138  1  0.58235826  0.55119423  0.05804012  1
  Te  Te139  1  0.59236685  0.58944679  0.39987122  1
  Te  Te140  1  0.59739208  0.59356438  0.74036725  1
  Te  Te141  1  0.59366657  0.90033593  0.08151335  1
  Te  Te142  1  0.57883516  0.89315435  0.41707109  1
  Te  Te143  1  0.57792553  0.92448656  0.74816974  1
  Te  Te144  1  0.89390613  0.26691493  0.10397233  1
  Te  Te145  1  0.90786447  0.24314250  0.42741327  1
  Te  Te146  1  0.90258568  0.26416904  0.77630989  1
  Te  Te147  1  0.89805089  0.57523495  0.07170649  1
  Te  Te148  1  0.93115998  0.56476129  0.44407217  1
  Te  Te149  1  0.92002322  0.58658682  0.75394891  1
  Te  Te150  1  0.91800302  0.90049096  0.08435438  1
  Te  Te151  1  0.92882547  0.92314248  0.39855232  1
  Te  Te152  1  0.94763900  0.93314021  0.77662389  1
  Te  Te153  1  0.25342028  0.08758247  0.22834982  1
  Te  Te154  1  0.25160969  0.08216894  0.57931765  1
  Te  Te155  1  0.27917262  0.10433825  0.89900217  1
  Te  Te156  1  0.25311671  0.41352758  0.23822817  1
  Te  Te157  1  0.27790451  0.41926829  0.57287226  1
  Te  Te158  1  0.29797445  0.36556780  0.94734445  1
  Te  Te159  1  0.23385177  0.77256868  0.25049034  1
  Te  Te160  1  0.25129715  0.73911623  0.59123686  1
  Te  Te161  1  0.25385043  0.73972712  0.92209095  1
  Te  Te162  1  0.60334573  0.10366787  0.22592327  1
  Te  Te163  1  0.58072818  0.09620385  0.61402846  1
  Te  Te164  1  0.58503993  0.08403469  0.91514148  1
  Te  Te165  1  0.58578975  0.43618852  0.24405736  1
  Te  Te166  1  0.60067033  0.40110776  0.59614687  1
  Te  Te167  1  0.56645388  0.43270771  0.95755673  1
  Te  Te168  1  0.60835863  0.73376842  0.22929975  1
  Te  Te169  1  0.60501507  0.75292562  0.57813857  1
  Te  Te170  1  0.57548093  0.76271779  0.92444580  1
  Te  Te171  1  0.92541604  0.07596203  0.25451997  1
  Te  Te172  1  0.92204092  0.08965669  0.59584032  1
  Te  Te173  1  0.90747287  0.07573597  0.91571231  1
  Te  Te174  1  0.89778651  0.41555323  0.25060383  1
  Te  Te175  1  0.92054614  0.41647410  0.58365327  1
  Te  Te176  1  0.90084313  0.41881634  0.92178373  1
  Te  Te177  1  0.92114300  0.76743326  0.23858795  1
  Te  Te178  1  0.90707238  0.74621231  0.58796832  1
  Te  Te179  1  0.90421964  0.77237221  0.92078802  1
