# generated using pymatgen
data_In2Te3
_symmetry_space_group_name_H-M   'P 1'
_cell_length_a   19.00146036
_cell_length_b   18.98103851
_cell_length_c   18.97882602
_cell_angle_alpha   89.92374535
_cell_angle_beta   90.12292263
_cell_angle_gamma   90.01774372
_symmetry_Int_Tables_number   1
_chemical_formula_structural   In2Te3
_chemical_formula_sum   'In72 Te108'
_cell_volume   6845.02266234
_cell_formula_units_Z   36
loop_
 _symmetry_equiv_pos_site_id
 _symmetry_equiv_pos_as_xyz
  1  'x, y, z'
loop_
 _atom_site_type_symbol
 _atom_site_label
 _atom_site_symmetry_multiplicity
 _atom_site_fract_x
 _atom_site_fract_y
 _atom_site_fract_z
 _atom_site_occupancy
  In  In0  1  0.34597385  0.85696001  0.49279022  1
  In  In1  1  0.00531838  0.01791947  -0.00752385  1
  In  In2  1  -0.00690088  0.63081116  0.30878751  1
  In  In3  1  0.64957354  -0.01017879  0.67717989  1
  In  In4  1  0.52322298  0.83900648  -0.00808501  1
  In  In5  1  0.17281788  0.82299015  0.33704774  1
  In  In6  1  0.00297817  0.81821904  0.83394872  1
  In  In7  1  0.63473124  0.30512846  0.02979253  1
  In  In8  1  0.85741531  0.83274067  0.66262301  1
  In  In9  1  0.17732073  -0.00349000  0.81735295  1
  In  In10  1  0.00090139  0.63330248  -0.00946612  1
  In  In11  1  0.17062217  0.62461289  0.15915856  1
  In  In12  1  0.66791061  0.00849993  0.30746370  1
  In  In13  1  0.83130154  0.85455009  0.33626079  1
  In  In14  1  0.03341886  0.34990247  0.70425904  1
  In  In15  1  0.13727815  0.66899138  0.50998659  1
  In  In16  1  0.85756963  -0.00934323  0.16799585  1
  In  In17  1  0.49474160  0.01529992  0.47289752  1
  In  In18  1  0.80761327  0.34988498  0.86307756  1
  In  In19  1  0.30379590  0.49387196  0.49379120  1
  In  In20  1  0.01152140  0.00922503  0.63290158  1
  In  In21  1  0.00553977  0.83122321  0.16921286  1
  In  In22  1  0.51952076  0.83405922  0.33039354  1
  In  In23  1  0.33353113  0.64325761  0.33022331  1
  In  In24  1  0.81831558  0.51119404  -0.00298397  1
  In  In25  1  0.67247443  0.65885934  0.67406032  1
  In  In26  1  0.33070007  0.50512335  0.83875941  1
  In  In27  1  0.15792284  0.64838864  0.81582786  1
  In  In28  1  0.83413921  0.15148944  0.68433597  1
  In  In29  1  -0.00144193  0.19445100  0.84354304  1
  In  In30  1  0.32586400  0.66323463  0.00733923  1
  In  In31  1  0.31347865  0.33836652  0.69357450  1
  In  In32  1  0.17078735  0.30715987  0.49079668  1
  In  In33  1  0.50284375  0.16918888  0.66973409  1
  In  In34  1  0.20691182  0.41186847  0.14476424  1
  In  In35  1  0.82212776  0.65850897  0.83472145  1
  In  In36  1  0.48663118  0.51495038  0.67581203  1
  In  In37  1  0.66124840  0.66620544  0.33895170  1
  In  In38  1  -0.01719853  0.66159996  0.67495620  1
  In  In39  1  0.66751795  0.00215834  0.01082411  1
  In  In40  1  0.47393379  0.34198879  0.51399716  1
  In  In41  1  -0.00361937  0.50245231  0.49439873  1
  In  In42  1  -0.01725882  0.34382125  0.32873714  1
  In  In43  1  0.16575209  0.17817578  -0.01381460  1
  In  In44  1  0.48631224  0.65021025  0.18059994  1
  In  In45  1  0.66907789  0.48446919  0.47488669  1
  In  In46  1  0.65287678  0.49010164  0.18039753  1
  In  In47  1  0.19790512  0.15680349  0.30853189  1
  In  In48  1  0.01973008  -0.00782571  0.34486282  1
  In  In49  1  0.17072083  0.15259127  0.64756817  1
  In  In50  1  0.49123861  0.47784304  0.00453675  1
  In  In51  1  0.47173283  0.20391958  0.31208072  1
  In  In52  1  0.84194839  0.20781870  0.05287725  1
  In  In53  1  0.19336324  0.83647682  0.02326749  1
  In  In54  1  0.34656543  0.85594299  0.18383153  1
  In  In55  1  0.50749184  0.00485422  0.85516960  1
  In  In56  1  0.47921937  0.04450194  0.15707556  1
  In  In57  1  0.81039737  0.66577575  0.13838932  1
  In  In58  1  0.34288880  0.15919352  0.83722973  1
  In  In59  1  0.17465725  -0.00250984  0.49401195  1
  In  In60  1  0.66282971  0.31934157  0.68088093  1
  In  In61  1  0.33828108  0.33263594  -0.00328735  1
  In  In62  1  0.34429698  0.70404972  0.67110427  1
  In  In63  1  0.68681938  0.83179209  0.53027461  1
  In  In64  1  0.52669961  0.65899104  0.49969305  1
  In  In65  1  0.82746215  0.50868950  0.66601706  1
  In  In66  1  0.68918782  0.30006537  0.28571488  1
  In  In67  1  0.34421742  0.85213167  0.83087219  1
  In  In68  1  0.80963201  0.00048560  0.84020749  1
  In  In69  1  0.83335310  0.33868284  0.48568926  1
  In  In70  1  0.67455738  0.16832999  0.45751334  1
  In  In71  1  0.00282006  0.19511520  0.15969009  1
  Te  Te72  1  0.09157373  0.09159461  0.09020982  1
  Te  Te73  1  0.09779956  0.10036737  0.41509354  1
  Te  Te74  1  0.06624908  0.08630581  0.76086802  1
  Te  Te75  1  0.08337994  0.38312829  0.06931179  1
  Te  Te76  1  0.08871760  0.41114868  0.41737833  1
  Te  Te77  1  0.12515967  0.41479480  0.79565650  1
  Te  Te78  1  0.08658250  0.73582994  0.08044642  1
  Te  Te79  1  0.06420671  0.73791164  0.39611216  1
  Te  Te80  1  0.09114748  0.75538617  0.73061178  1
  Te  Te81  1  0.37766521  0.14409039  0.11288055  1
  Te  Te82  1  0.40515742  0.11846793  0.41592369  1
  Te  Te83  1  0.42103103  0.06692880  0.74602856  1
  Te  Te84  1  0.43168150  0.38250007  0.10386765  1
  Te  Te85  1  0.39286265  0.41134282  0.41117638  1
  Te  Te86  1  0.42551443  0.40970712  0.76588712  1
  Te  Te87  1  0.41494313  0.75666702  0.08787253  1
  Te  Te88  1  0.42410156  0.74305159  0.40587152  1
  Te  Te89  1  0.43584544  0.75421679  0.77226720  1
  Te  Te90  1  0.75789482  0.08584580  0.10233420  1
  Te  Te91  1  0.76634656  0.07790821  0.39028071  1
  Te  Te92  1  0.71927251  0.09539086  0.76436124  1
  Te  Te93  1  0.73216903  0.41519929  0.07674071  1
  Te  Te94  1  0.75238651  0.40602303  0.37638698  1
  Te  Te95  1  0.73342137  0.43086340  0.75589917  1
  Te  Te96  1  0.73967307  0.75657935  0.04821793  1
  Te  Te97  1  0.75485122  0.75226948  0.42119801  1
  Te  Te98  1  0.75390958  0.76357162  0.74965780  1
  Te  Te99  1  0.09577456  0.25821234  0.26068656  1
  Te  Te100  1  0.06964688  0.25261428  0.59507419  1
  Te  Te101  1  0.05927505  0.27971811  0.95022852  1
  Te  Te102  1  0.08889847  0.53974567  0.24475459  1
  Te  Te103  1  0.07902991  0.56647774  0.60463469  1
  Te  Te104  1  0.09888405  0.55556484  0.91336241  1
  Te  Te105  1  0.10351552  0.91992507  0.24097544  1
  Te  Te106  1  0.07878276  0.90558156  0.55866383  1
  Te  Te107  1  0.09473531  0.90824781  0.92260942  1
  Te  Te108  1  0.37338520  0.28712580  0.22903749  1
  Te  Te109  1  0.39334797  0.24866893  0.59991110  1
  Te  Te110  1  0.42737773  0.25171603  0.91173632  1
  Te  Te111  1  0.39469144  0.54991133  0.23595266  1
  Te  Te112  1  0.40986496  0.58715470  0.56494123  1
  Te  Te113  1  0.42437141  0.59222085  0.91905626  1
  Te  Te114  1  0.43570515  0.94276244  0.26888166  1
  Te  Te115  1  0.44743079  0.92083750  0.57492337  1
  Te  Te116  1  0.40960735  0.92759267  0.94373318  1
  Te  Te117  1  0.77625846  0.22859430  0.19208046  1
  Te  Te118  1  0.74525410  0.24729986  0.57684351  1
  Te  Te119  1  0.74452100  0.23841278  0.93974093  1
  Te  Te120  1  0.75078909  0.58226959  0.25109207  1
  Te  Te121  1  0.74454536  0.58332670  0.56289934  1
  Te  Te122  1  0.72107228  0.59813601  0.92435852  1
  Te  Te123  1  0.74380021  0.90653306  0.22471827  1
  Te  Te124  1  0.76790909  0.94017666  0.59662218  1
  Te  Te125  1  0.75446884  0.90668898  0.93843990  1
  Te  Te126  1  0.23252770  0.26827261  0.08766273  1
  Te  Te127  1  0.27101320  0.22424468  0.42040053  1
  Te  Te128  1  0.23103810  0.23140558  0.76189899  1
  Te  Te129  1  0.25918081  0.54337207  0.07040238  1
  Te  Te130  1  0.21845512  0.58666556  0.40999638  1
  Te  Te131  1  0.26505410  0.58788740  0.72810107  1
  Te  Te132  1  0.25604356  0.94241512  0.10419336  1
  Te  Te133  1  0.26472971  0.93111494  0.38968742  1
  Te  Te134  1  0.25565859  0.91127948  0.72962417  1
  Te  Te135  1  0.55154696  0.19111287  0.08000449  1
  Te  Te136  1  0.56989545  0.26964400  0.41793295  1
  Te  Te137  1  0.57136202  0.25019925  0.77059182  1
  Te  Te138  1  0.57623027  0.57830757  0.08394764  1
  Te  Te139  1  0.56572597  0.55952636  0.39196501  1
  Te  Te140  1  0.57538176  0.59329376  0.76076514  1
  Te  Te141  1  0.56872870  0.93145007  0.10159733  1
  Te  Te142  1  0.60979190  0.91372825  0.42314542  1
  Te  Te143  1  0.58999950  0.90871854  0.78205218  1
  Te  Te144  1  0.93154112  0.32570184  0.10524372  1
  Te  Te145  1  0.90882861  0.24326364  0.40642187  1
  Te  Te146  1  0.89855394  0.26979336  0.75560676  1
  Te  Te147  1  0.92031098  0.56822594  0.09882914  1
  Te  Te148  1  0.90261894  0.56388259  0.40168023  1
  Te  Te149  1  0.92277689  0.56266622  0.77230337  1
  Te  Te150  1  0.92782268  0.90711720  0.06312953  1
  Te  Te151  1  0.92780042  0.91400467  0.42745402  1
  Te  Te152  1  0.92445496  0.92794701  0.76441756  1
  Te  Te153  1  0.28563625  0.08039778  0.21230641  1
  Te  Te154  1  0.26560730  0.05890865  0.59205234  1
  Te  Te155  1  0.25388523  0.07080766  0.92428059  1
  Te  Te156  1  0.28055390  0.39873213  0.27329026  1
  Te  Te157  1  0.22652611  0.40864166  0.59149292  1
  Te  Te158  1  0.24253599  0.40083064  0.89880148  1
  Te  Te159  1  0.24996666  0.73937325  0.23423699  1
  Te  Te160  1  0.25442943  0.75680471  0.56002249  1
  Te  Te161  1  0.24145693  0.74568763  0.90966314  1
  Te  Te162  1  0.58037121  0.11607098  0.24737328  1
  Te  Te163  1  0.59302276  0.09373675  0.56962181  1
  Te  Te164  1  0.56709865  0.10086126  0.95437221  1
  Te  Te165  1  0.57512453  0.37917539  0.23887596  1
  Te  Te166  1  0.58474340  0.42469190  0.58732789  1
  Te  Te167  1  0.58909314  0.40099642  0.92816729  1
  Te  Te168  1  0.59307261  0.74784731  0.23097916  1
  Te  Te169  1  0.57541060  0.75764846  0.60048304  1
  Te  Te170  1  0.62028266  0.73683497  0.95281744  1
  Te  Te171  1  0.94373398  0.08315761  0.24795418  1
  Te  Te172  1  0.91462459  0.10106926  0.57465076  1
  Te  Te173  1  0.90304445  0.10093114  0.91844846  1
  Te  Te174  1  0.90056042  0.40650995  0.22643574  1
  Te  Te175  1  0.91663695  0.40971009  0.59413721  1
  Te  Te176  1  0.91380565  0.43725199  0.91201970  1
  Te  Te177  1  0.90208347  0.74924957  0.24192632  1
  Te  Te178  1  0.91067037  0.73338403  0.57108190  1
  Te  Te179  1  0.91400082  0.73906769  0.92620234  1
