# generated using pymatgen
data_In2Te3
_symmetry_space_group_name_H-M   'P 1'
_cell_length_a   18.98449767
_cell_length_b   18.98645164
_cell_length_c   18.97549681
_cell_angle_alpha   89.95743416
_cell_angle_beta   89.90658514
_cell_angle_gamma   89.89237092
_symmetry_Int_Tables_number   1
_chemical_formula_structural   In2Te3
_chemical_formula_sum   'In72 Te108'
_cell_volume   6839.66152581
_cell_formula_units_Z   36
loop_
 _symmetry_equiv_pos_site_id
 _symmetry_equiv_pos_as_xyz
  1  'x, y, z'
loop_
 _atom_site_type_symbol
 _atom_site_label
 _atom_site_symmetry_multiplicity
 _atom_site_fract_x
 _atom_site_fract_y
 _atom_site_fract_z
 _atom_site_occupancy
  In  In0  1  0.14973780  0.34503620  0.50057002  1
  In  In1  1  0.35351852  0.81928985  0.83223123  1
  In  In2  1  0.17402227  0.84933732  0.66885234  1
  In  In3  1  0.66374219  0.64000252  0.69044044  1
  In  In4  1  -0.01709348  0.31891576  0.35196683  1
  In  In5  1  0.66126475  0.48830784  0.16009555  1
  In  In6  1  0.18967069  0.83724509  0.32150604  1
  In  In7  1  0.34790329  0.00344550  0.65251561  1
  In  In8  1  0.80633533  0.83453737  -0.01706502  1
  In  In9  1  0.66740819  0.84357630  0.17633795  1
  In  In10  1  0.36420217  0.50471293  0.83686459  1
  In  In11  1  0.82020044  0.01242467  0.83815763  1
  In  In12  1  0.51949250  0.48340603  0.34234532  1
  In  In13  1  0.30619973  -0.00649999  0.32795688  1
  In  In14  1  -0.01421638  0.37162002  0.69784801  1
  In  In15  1  0.48504335  0.01897085  0.15365400  1
  In  In16  1  0.29798610  0.31274684  0.65159779  1
  In  In17  1  0.50469454  -0.03125139  0.83729692  1
  In  In18  1  0.01380744  0.81963753  0.18713958  1
  In  In19  1  0.49821365  0.34572678  0.50533418  1
  In  In20  1  0.19453661  0.51504853  0.31543704  1
  In  In21  1  0.14422830  0.00452739  0.49405623  1
  In  In22  1  0.67532564  0.31827732  0.32386092  1
  In  In23  1  0.67170264  0.15558837  0.50658949  1
  In  In24  1  -0.01186453  0.33782094  -0.02326997  1
  In  In25  1  0.82073487  0.49629267  0.34565019  1
  In  In26  1  0.81786328  0.49472069  0.66159185  1
  In  In27  1  0.34874524  0.32632832  0.00199945  1
  In  In28  1  -0.01737175  0.65862546  0.69753990  1
  In  In29  1  0.35818623  0.80090688  0.50761858  1
  In  In30  1  0.67009664  0.19245508  0.15016789  1
  In  In31  1  -0.00399634  0.65340718  0.33278099  1
  In  In32  1  0.81041709  0.82247641  0.67582187  1
  In  In33  1  0.66109593  0.80489086  0.52190054  1
  In  In34  1  0.17026867  0.15658650  0.32697025  1
  In  In35  1  0.36346069  0.66300038  0.67707001  1
  In  In36  1  0.35332379  0.82741312  0.17332671  1
  In  In37  1  0.66166691  0.67194951  0.35467389  1
  In  In38  1  0.17555897  0.65400555  0.83549084  1
  In  In39  1  0.69776325  0.64920229  -0.03031050  1
  In  In40  1  0.34665334  0.48887916  0.14937486  1
  In  In41  1  0.51844823  0.80010423  0.00069209  1
  In  In42  1  0.50806166  0.49499280  0.66614057  1
  In  In43  1  0.13738678  0.16713491  0.69744723  1
  In  In44  1  0.17649823  0.19534527  -0.02487689  1
  In  In45  1  0.51436421  0.16749695  0.69445021  1
  In  In46  1  0.15619454  0.65061577  0.48926345  1
  In  In47  1  0.34136693  0.02850625  0.02270333  1
  In  In48  1  0.02660797  0.17796858  0.14716972  1
  In  In49  1  0.17688991  0.86877317  -0.01967278  1
  In  In50  1  0.82216241  0.16936760  0.00798344  1
  In  In51  1  0.49802888  0.19504573  0.29003477  1
  In  In52  1  -0.02915946  -0.02669847  -0.02067356  1
  In  In53  1  0.50239048  0.33221442  0.83468797  1
  In  In54  1  0.16146242  0.49225608  -0.02010863  1
  In  In55  1  0.47609018  -0.00750033  0.51901579  1
  In  In56  1  0.82231019  0.16641725  0.67092064  1
  In  In57  1  -0.00889979  0.83744931  0.51734451  1
  In  In58  1  0.19241944  0.69294331  0.14884536  1
  In  In59  1  0.32853559  0.17477380  0.47935945  1
  In  In60  1  -0.00747363  0.49914650  0.15326767  1
  In  In61  1  0.66417423  0.35629185  -0.00830380  1
  In  In62  1  -0.01515224  0.85094172  0.84720327  1
  In  In63  1  0.16444784  0.03539706  0.17165564  1
  In  In64  1  0.82707042  0.01052742  0.50824341  1
  In  In65  1  0.00286706  0.50455679  0.51486399  1
  In  In66  1  0.65458130  -0.00055104  0.36441459  1
  In  In67  1  0.82541270  0.36279299  0.83408096  1
  In  In68  1  0.00160829  0.64910544  -0.00930342  1
  In  In69  1  0.52374068  0.65764226  0.17505120  1
  In  In70  1  0.82567279  0.00822779  0.17025776  1
  In  In71  1  -0.00622153  0.03663107  0.35781102  1
  Te  Te72  1  0.07215007  0.06539376  0.05633960  1
  Te  Te73  1  0.07456919  0.13461305  0.44897451  1
  Te  Te74  1  0.07267450  0.06129390  0.76962093  1
  Te  Te75  1  0.08359635  0.40614476  0.07622347  1
  Te  Te76  1  0.07540601  0.43848015  0.39834674  1
  Te  Te77  1  0.07990566  0.41547542  0.80123071  1
  Te  Te78  1  0.08439809  0.76812599  0.05958156  1
  Te  Te79  1  0.08472433  0.76493777  0.41548256  1
  Te  Te80  1  0.08607501  0.76027008  0.76044338  1
  Te  Te81  1  0.46095880  0.11428962  0.04204903  1
  Te  Te82  1  0.41335963  0.07396383  0.40561494  1
  Te  Te83  1  0.41721969  0.07617727  0.76556812  1
  Te  Te84  1  0.43744395  0.43292223  0.04963610  1
  Te  Te85  1  0.41212059  0.40266133  0.40367992  1
  Te  Te86  1  0.40446779  0.39737998  0.72850213  1
  Te  Te87  1  0.41770447  0.72366747  0.08548721  1
  Te  Te88  1  0.39884383  0.74849314  0.38064938  1
  Te  Te89  1  0.45731882  0.71990472  0.78157216  1
  Te  Te90  1  0.72859079  0.07014074  0.07355525  1
  Te  Te91  1  0.76320499  0.09824583  0.39983062  1
  Te  Te92  1  0.72135764  0.08339107  0.74878094  1
  Te  Te93  1  0.76298591  0.41614878  0.08263918  1
  Te  Te94  1  0.74298543  0.39990981  0.42335171  1
  Te  Te95  1  0.73217748  0.38736209  0.72039561  1
  Te  Te96  1  0.73966980  0.74675227  0.08574944  1
  Te  Te97  1  0.75628476  0.76242172  0.41976906  1
  Te  Te98  1  0.72875806  0.74779094  0.77279221  1
  Te  Te99  1  0.08904117  0.26268481  0.25452327  1
  Te  Te100  1  0.07463053  0.27637178  0.61421731  1
  Te  Te101  1  0.09291460  0.28160456  0.88458896  1
  Te  Te102  1  0.09456243  0.60374001  0.22548128  1
  Te  Te103  1  0.08418567  0.58562231  0.61205443  1
  Te  Te104  1  0.06215399  0.55929960  0.88121907  1
  Te  Te105  1  0.08467935  0.93984658  0.26562915  1
  Te  Te106  1  0.06621666  0.93562376  0.60465583  1
  Te  Te107  1  0.09958515  0.94974853  0.87626399  1
  Te  Te108  1  0.38285831  0.23511923  0.21349692  1
  Te  Te109  1  0.41934146  0.23090841  0.58654703  1
  Te  Te110  1  0.42671990  0.23436498  0.91440230  1
  Te  Te111  1  0.43041303  0.56699397  0.24966218  1
  Te  Te112  1  0.43952329  0.59059433  0.57339504  1
  Te  Te113  1  0.42858409  0.62118007  0.89335643  1
  Te  Te114  1  0.42500708  0.92574464  0.26059493  1
  Te  Te115  1  0.43617025  0.87633441  0.62248585  1
  Te  Te116  1  0.41156296  0.90497191  0.94943936  1
  Te  Te117  1  0.77005477  0.24028146  0.24376710  1
  Te  Te118  1  0.74869670  0.25542128  0.57879800  1
  Te  Te119  1  0.74639757  0.25536132  0.91125912  1
  Te  Te120  1  0.73486752  0.58061584  0.25450353  1
  Te  Te121  1  0.75208308  0.59695465  0.58056417  1
  Te  Te122  1  0.78424927  0.55423603  0.89442957  1
  Te  Te123  1  0.75224248  0.92337615  0.27226378  1
  Te  Te124  1  0.73578280  0.92227841  0.58991712  1
  Te  Te125  1  0.72059267  0.93309115  0.91430989  1
  Te  Te126  1  0.25356366  0.24851024  0.08747390  1
  Te  Te127  1  0.24218699  0.26897634  0.40262220  1
  Te  Te128  1  0.25259734  0.22920909  0.76203774  1
  Te  Te129  1  0.24886684  0.58159257  0.06618986  1
  Te  Te130  1  0.26240842  0.56815043  0.43364839  1
  Te  Te131  1  0.26049545  0.57306985  0.74262090  1
  Te  Te132  1  0.24528945  0.91548573  0.10901672  1
  Te  Te133  1  0.25373244  0.90824142  0.44790057  1
  Te  Te134  1  0.27032030  0.92236316  0.75819289  1
  Te  Te135  1  0.57560526  0.26100378  0.06366927  1
  Te  Te136  1  0.56903700  0.23213684  0.41701213  1
  Te  Te137  1  0.60476605  0.27292730  0.74400506  1
  Te  Te138  1  0.59425168  0.58401335  0.06358842  1
  Te  Te139  1  0.57939683  0.58039098  0.43499463  1
  Te  Te140  1  0.59027834  0.54529433  0.78085298  1
  Te  Te141  1  0.57438684  0.91545551  0.08183089  1
  Te  Te142  1  0.56852992  0.90280867  0.43894275  1
  Te  Te143  1  0.55092122  0.90409899  0.71536010  1
  Te  Te144  1  0.91541169  0.26012060  0.08529031  1
  Te  Te145  1  0.93690970  0.20591195  0.43227689  1
  Te  Te146  1  0.90947815  0.25830421  0.76221158  1
  Te  Te147  1  0.90982579  0.60451128  0.09500035  1
  Te  Te148  1  0.90579506  0.58833999  0.43375894  1
  Te  Te149  1  0.88116999  0.57791587  0.77074180  1
  Te  Te150  1  0.90689387  0.89976181  0.09720806  1
  Te  Te151  1  0.91479696  0.92193647  0.41762952  1
  Te  Te152  1  0.90086880  0.92328681  0.74457145  1
  Te  Te153  1  0.28648350  0.11231110  0.22952186  1
  Te  Te154  1  0.24516973  0.08804388  0.57412332  1
  Te  Te155  1  0.25544360  0.08547215  0.92004024  1
  Te  Te156  1  0.25251594  0.41219569  0.23171113  1
  Te  Te157  1  0.24295280  0.42662827  0.57767003  1
  Te  Te158  1  0.26495454  0.41236202  0.90497820  1
  Te  Te159  1  0.28474686  0.72629552  0.27538023  1
  Te  Te160  1  0.24445596  0.73815523  0.59387747  1
  Te  Te161  1  0.25327720  0.74955644  0.92383599  1
  Te  Te162  1  0.59078883  0.08216967  0.24832877  1
  Te  Te163  1  0.57991468  0.07234408  0.59460639  1
  Te  Te164  1  0.61261176  0.06727720  0.85803275  1
  Te  Te165  1  0.57535231  0.38996345  0.23581709  1
  Te  Te166  1  0.59985867  0.41640841  0.58068491  1
  Te  Te167  1  0.58096314  0.44149480  0.90029357  1
  Te  Te168  1  0.57501401  0.76532354  0.26634031  1
  Te  Te169  1  0.57441455  0.70437494  0.58762148  1
  Te  Te170  1  0.61824208  0.75541361  0.89951964  1
  Te  Te171  1  0.92963130  0.09707312  0.23561312  1
  Te  Te172  1  0.91970054  0.09859870  0.58103395  1
  Te  Te173  1  0.91886133  0.09997044  0.91375439  1
  Te  Te174  1  0.91469636  0.41733818  0.25583433  1
  Te  Te175  1  0.90862134  0.40410302  0.57102523  1
  Te  Te176  1  0.88687771  0.44491050  0.94597772  1
  Te  Te177  1  0.91057606  0.74807715  0.26065075  1
  Te  Te178  1  0.90628007  0.73767996  0.59289318  1
  Te  Te179  1  0.90532738  0.74240632  0.91387110  1
