# generated using pymatgen
data_In2Te3
_symmetry_space_group_name_H-M   'P 1'
_cell_length_a   18.80313571
_cell_length_b   18.81254051
_cell_length_c   18.80094738
_cell_angle_alpha   89.96284215
_cell_angle_beta   90.04479922
_cell_angle_gamma   89.99448437
_symmetry_Int_Tables_number   1
_chemical_formula_structural   In2Te3
_chemical_formula_sum   'In72 Te108'
_cell_volume   6650.54500022
_cell_formula_units_Z   36
loop_
 _symmetry_equiv_pos_site_id
 _symmetry_equiv_pos_as_xyz
  1  'x, y, z'
loop_
 _atom_site_type_symbol
 _atom_site_label
 _atom_site_symmetry_multiplicity
 _atom_site_fract_x
 _atom_site_fract_y
 _atom_site_fract_z
 _atom_site_occupancy
  In  In0  1  0.49419069  0.67252373  0.18070243  1
  In  In1  1  0.81818859  0.16636338  0.01043231  1
  In  In2  1  0.31324923  0.51683598  0.16555373  1
  In  In3  1  0.00844518  0.34794192  0.32270619  1
  In  In4  1  0.68171650  0.68177364  0.00462936  1
  In  In5  1  0.65682196  0.02233770  0.65629738  1
  In  In6  1  0.00031741  0.80729337  0.47705938  1
  In  In7  1  -0.00544030  0.52931764  0.13406753  1
  In  In8  1  -0.01046165  0.81244374  0.15414351  1
  In  In9  1  0.16504189  0.32520582  0.48259576  1
  In  In10  1  0.17643371  0.48081603  0.67151724  1
  In  In11  1  0.16396192  0.16070850  0.66311295  1
  In  In12  1  0.49210888  0.17226654  0.00216822  1
  In  In13  1  0.16299101  0.82854416  0.01533002  1
  In  In14  1  0.86417070  0.50657688  0.67643225  1
  In  In15  1  0.85087360  -0.00600483  0.50198050  1
  In  In16  1  -0.01108631  0.37283708  0.67382102  1
  In  In17  1  0.01417884  0.49159170  0.50916087  1
  In  In18  1  0.47886561  0.67788030  0.47500282  1
  In  In19  1  0.68702602  0.51944299  0.84864612  1
  In  In20  1  0.49801533  0.83489314  0.64675930  1
  In  In21  1  0.31356731  0.48003790  0.84548701  1
  In  In22  1  0.65649676  0.01191133  0.00844611  1
  In  In23  1  0.80833589  0.68263981  0.47444451  1
  In  In24  1  0.65381794  0.67823883  0.31130305  1
  In  In25  1  0.49936763  0.83443296  0.01426604  1
  In  In26  1  0.17962878  0.18612419  -0.00492694  1
  In  In27  1  0.48284678  0.50106702  -0.01037120  1
  In  In28  1  0.33502947  0.34866530  0.31856745  1
  In  In29  1  0.33949529  -0.01087469  0.02025683  1
  In  In30  1  0.48802769  0.31140982  0.81984501  1
  In  In31  1  0.66516113  0.82817357  0.83644052  1
  In  In32  1  0.20894930  -0.01828883  0.51503506  1
  In  In33  1  0.15735386  0.33643432  0.86792362  1
  In  In34  1  0.65421482  0.17279041  0.49620184  1
  In  In35  1  0.83135431  0.82398623  0.01656218  1
  In  In36  1  0.15841539  0.18073516  0.33023413  1
  In  In37  1  0.32428073  0.83367162  0.47984767  1
  In  In38  1  -0.00307775  0.17281533  0.47983962  1
  In  In39  1  0.36930316  -0.02623542  0.31156310  1
  In  In40  1  0.81088755  0.82683003  0.67264208  1
  In  In41  1  -0.00972979  -0.01510002  -0.00669239  1
  In  In42  1  0.33891578  0.65423443  0.67494731  1
  In  In43  1  0.66869485  0.33215970  0.00719841  1
  In  In44  1  0.67253395  -0.02876088  0.32965757  1
  In  In45  1  0.50192168  0.48468188  0.31504473  1
  In  In46  1  0.00201151  -0.01207872  0.68333666  1
  In  In47  1  0.01353590  0.66691522  0.31270581  1
  In  In48  1  0.35764578  -0.00627218  0.66782644  1
  In  In49  1  0.79546498  0.19112604  0.30707533  1
  In  In50  1  0.32731550  0.65074097  -0.00235254  1
  In  In51  1  0.33070202  0.16340717  0.82940508  1
  In  In52  1  0.66952189  0.48546664  0.50832971  1
  In  In53  1  0.35053787  0.31358633  0.64035760  1
  In  In54  1  0.80565248  0.16453842  0.68148002  1
  In  In55  1  -0.00615866  0.63871456  0.67974510  1
  In  In56  1  0.68079121  0.49194154  0.15937262  1
  In  In57  1  0.52804352  0.14227920  0.33218803  1
  In  In58  1  0.33540922  0.16482539  0.14745910  1
  In  In59  1  0.17630925  0.82776500  0.66384226  1
  In  In60  1  0.83167244  0.50370651  0.33428064  1
  In  In61  1  0.15157520  -0.00362641  0.16733171  1
  In  In62  1  0.00254881  0.17199066  0.83579354  1
  In  In63  1  0.33020482  0.83750154  0.85604950  1
  In  In64  1  0.65129414  0.32449804  0.67496464  1
  In  In65  1  -0.02267587  0.18005872  0.16807984  1
  In  In66  1  0.51432813  0.51386996  0.64840118  1
  In  In67  1  0.67071532  0.68927376  0.67924481  1
  In  In68  1  0.85357130  0.36473259  0.86743070  1
  In  In69  1  0.51393803  0.34374385  0.16173580  1
  In  In70  1  0.01204362  -0.00123198  0.31496060  1
  In  In71  1  -0.01413067  0.81874677  0.84582893  1
  Te  Te72  1  0.07287932  0.08852552  0.07527424  1
  Te  Te73  1  0.09545066  0.07059381  0.42531208  1
  Te  Te74  1  0.09708253  0.07258109  0.76850143  1
  Te  Te75  1  0.07829008  0.43486393  0.05207420  1
  Te  Te76  1  0.10478939  0.43802272  0.39944123  1
  Te  Te77  1  0.07297999  0.44056243  0.78220426  1
  Te  Te78  1  0.09682224  0.72316414  0.09771553  1
  Te  Te79  1  0.11128935  0.73228672  0.41150309  1
  Te  Te80  1  0.08012855  0.74657278  0.74970688  1
  Te  Te81  1  0.44183901  0.06587925  0.10235093  1
  Te  Te82  1  0.42120122  0.07185624  0.40763963  1
  Te  Te83  1  0.43163247  0.08335947  0.75891545  1
  Te  Te84  1  0.40385153  0.41555819  0.08555997  1
  Te  Te85  1  0.42021418  0.41783825  0.41810280  1
  Te  Te86  1  0.41771383  0.42308241  0.73911441  1
  Te  Te87  1  0.39738958  0.74922582  0.09045439  1
  Te  Te88  1  0.40943032  0.76531537  0.37446933  1
  Te  Te89  1  0.41577309  0.76052470  0.75166781  1
  Te  Te90  1  0.74968708  0.07552783  0.10622850  1
  Te  Te91  1  0.75975110  0.08738477  0.42146345  1
  Te  Te92  1  0.74875904  0.05962721  0.76563618  1
  Te  Te93  1  0.77518507  0.41076646  0.07685639  1
  Te  Te94  1  0.75676614  0.40800621  0.41832992  1
  Te  Te95  1  0.75045251  0.42225533  0.74782993  1
  Te  Te96  1  0.72994430  0.77012775  0.11252811  1
  Te  Te97  1  0.72472081  0.79183049  0.40452036  1
  Te  Te98  1  0.77239198  0.72961597  0.78576934  1
  Te  Te99  1  0.09142422  0.26598288  0.22317018  1
  Te  Te100  1  0.07610551  0.26696510  0.59380077  1
  Te  Te101  1  0.05180435  0.25874994  0.94996755  1
  Te  Te102  1  0.09615022  0.56539523  0.24172718  1
  Te  Te103  1  0.10358188  0.58692219  0.58549184  1
  Te  Te104  1  0.03982459  0.55701614  0.88776282  1
  Te  Te105  1  0.08827262  0.88483714  0.24988759  1
  Te  Te106  1  0.07546042  0.91231766  0.57240840  1
  Te  Te107  1  0.09195630  0.91139137  0.90803960  1
  Te  Te108  1  0.42726401  0.24650336  0.24380789  1
  Te  Te109  1  0.44967446  0.21809554  0.59419590  1
  Te  Te110  1  0.39277987  0.26378899  0.92874782  1
  Te  Te111  1  0.39951032  0.58936910  0.26988978  1
  Te  Te112  1  0.40417156  0.57545448  0.56112316  1
  Te  Te113  1  0.41478445  0.59021137  0.88857782  1
  Te  Te114  1  0.45895731  0.90012205  0.22371876  1
  Te  Te115  1  0.42656341  0.92630195  0.54886171  1
  Te  Te116  1  0.43470351  0.93184211  0.91456500  1
  Te  Te117  1  0.72135845  0.27963061  0.21757744  1
  Te  Te118  1  0.75230475  0.25915312  0.57750972  1
  Te  Te119  1  0.75056562  0.25622800  0.90317474  1
  Te  Te120  1  0.76009570  0.59825707  0.23684619  1
  Te  Te121  1  0.75474267  0.58866377  0.59306848  1
  Te  Te122  1  0.77321573  0.57027650  0.96157989  1
  Te  Te123  1  0.77216478  0.87164270  0.27690044  1
  Te  Te124  1  0.73936276  0.92012620  0.57596396  1
  Te  Te125  1  0.75094418  0.91511272  0.92523790  1
  Te  Te126  1  0.24723524  0.27010279  0.09459892  1
  Te  Te127  1  0.26943482  0.23903727  0.41574331  1
  Te  Te128  1  0.24055932  0.26842375  0.75001922  1
  Te  Te129  1  0.21804847  0.60419538  0.08842235  1
  Te  Te130  1  0.21779523  0.62147472  0.36519697  1
  Te  Te131  1  0.23647196  0.58608652  0.76446972  1
  Te  Te132  1  0.25767599  0.89959273  0.11285107  1
  Te  Te133  1  0.23991638  0.91627349  0.38295899  1
  Te  Te134  1  0.25231403  0.92285071  0.75390441  1
  Te  Te135  1  0.59965318  0.23175296  0.10000546  1
  Te  Te136  1  0.57618705  0.26043245  0.40716657  1
  Te  Te137  1  0.58990983  0.22184384  0.76210718  1
  Te  Te138  1  0.57451365  0.57785947  0.08641461  1
  Te  Te139  1  0.59095341  0.58052586  0.41261171  1
  Te  Te140  1  0.58347460  0.59241084  0.75920319  1
  Te  Te141  1  0.60301030  0.90135713  0.09670883  1
  Te  Te142  1  0.60260197  0.88877202  0.42897198  1
  Te  Te143  1  0.58282713  0.91647656  0.74367849  1
  Te  Te144  1  0.88890895  0.27042483  0.09171795  1
  Te  Te145  1  0.90806743  0.25859171  0.39503303  1
  Te  Te146  1  0.91151524  0.26335272  0.75187819  1
  Te  Te147  1  0.89688595  0.61808964  0.06336144  1
  Te  Te148  1  0.92462854  0.59141740  0.42750201  1
  Te  Te149  1  0.91100231  0.58744309  0.79518253  1
  Te  Te150  1  0.90412987  0.93030552  0.10369361  1
  Te  Te151  1  0.91731881  0.90581278  0.39640506  1
  Te  Te152  1  0.89834004  0.91466068  0.76532524  1
  Te  Te153  1  0.24826708  0.08506055  0.24784320  1
  Te  Te154  1  0.27663276  0.10033870  0.58322722  1
  Te  Te155  1  0.25154875  0.07135986  0.92548641  1
  Te  Te156  1  0.23071102  0.41949577  0.24251461  1
  Te  Te157  1  0.26078779  0.41357679  0.56422244  1
  Te  Te158  1  0.22326152  0.43757221  0.95720186  1
  Te  Te159  1  0.28130329  0.72202281  0.28475743  1
  Te  Te160  1  0.25461755  0.73494993  0.57355419  1
  Te  Te161  1  0.23154935  0.73702209  0.91170204  1
  Te  Te162  1  0.61467043  0.06985541  0.23605779  1
  Te  Te163  1  0.55127241  0.09777493  0.57851014  1
  Te  Te164  1  0.58003940  0.09556261  0.91199123  1
  Te  Te165  1  0.62092324  0.39858672  0.26624670  1
  Te  Te166  1  0.56362909  0.39307126  0.56982946  1
  Te  Te167  1  0.57961164  0.41590698  0.90660924  1
  Te  Te168  1  0.56557318  0.78701918  0.25106055  1
  Te  Te169  1  0.58701955  0.74426165  0.56321373  1
  Te  Te170  1  0.57098636  0.73879936  0.91779822  1
  Te  Te171  1  0.90052100  0.08461732  0.25753958  1
  Te  Te172  1  0.92735493  0.09438130  0.59987057  1
  Te  Te173  1  0.90603491  0.08208625  0.91171947  1
  Te  Te174  1  0.91822090  0.43021648  0.23371137  1
  Te  Te175  1  0.89645033  0.40984862  0.55792688  1
  Te  Te176  1  0.96006329  0.44257941  0.94947231  1
  Te  Te177  1  0.90096341  0.74716424  0.25552227  1
  Te  Te178  1  0.91334310  0.74653697  0.58891383  1
  Te  Te179  1  0.93983595  0.73253121  0.96150412  1
