# generated using pymatgen
data_In2Te3
_symmetry_space_group_name_H-M   'P 1'
_cell_length_a   19.00963316
_cell_length_b   18.99583168
_cell_length_c   19.02208426
_cell_angle_alpha   90.00591884
_cell_angle_beta   89.98705649
_cell_angle_gamma   90.02849617
_symmetry_Int_Tables_number   1
_chemical_formula_structural   In2Te3
_chemical_formula_sum   'In72 Te108'
_cell_volume   6868.94569226
_cell_formula_units_Z   36
loop_
 _symmetry_equiv_pos_site_id
 _symmetry_equiv_pos_as_xyz
  1  'x, y, z'
loop_
 _atom_site_type_symbol
 _atom_site_label
 _atom_site_symmetry_multiplicity
 _atom_site_fract_x
 _atom_site_fract_y
 _atom_site_fract_z
 _atom_site_occupancy
  In  In0  1  0.18502518  0.15776119  -0.03120406  1
  In  In1  1  0.63408082  0.65701118  -0.01170029  1
  In  In2  1  0.01252512  0.16982015  0.53469420  1
  In  In3  1  0.42294157  0.13708659  0.84789734  1
  In  In4  1  0.19125397  0.83770118  0.02948537  1
  In  In5  1  0.81557527  0.14256399  0.00626863  1
  In  In6  1  -0.00296978  0.67500237  0.68038449  1
  In  In7  1  0.35329624  0.50197450  0.83441949  1
  In  In8  1  0.14081038  0.17829997  0.35528685  1
  In  In9  1  0.65007683  0.30985265  0.69390635  1
  In  In10  1  0.81837145  0.66675040  0.49799394  1
  In  In11  1  -0.02415552  0.31771097  0.00655073  1
  In  In12  1  0.17754600  0.33050866  0.80359804  1
  In  In13  1  0.20002421  0.68942797  0.52985494  1
  In  In14  1  0.34451184  0.15231902  0.48367645  1
  In  In15  1  -0.00650623  0.50265440  0.51210553  1
  In  In16  1  0.33880729  0.49574416  0.16297386  1
  In  In17  1  0.66092213  0.13786321  0.51405295  1
  In  In18  1  0.63762445  0.53804271  0.50093281  1
  In  In19  1  0.82825098  0.70815297  0.18825190  1
  In  In20  1  0.64032399  0.36507297  -0.03552766  1
  In  In21  1  0.80199575  0.33156301  0.47952470  1
  In  In22  1  0.81783288  0.15978707  0.33092328  1
  In  In23  1  0.35654669  0.16381106  0.16662916  1
  In  In24  1  0.84529073  0.51339779  0.31429121  1
  In  In25  1  -0.00522871  0.01527756  0.02842928  1
  In  In26  1  0.30877125  0.34699788  0.34787456  1
  In  In27  1  0.02685680  0.85581822  0.84208313  1
  In  In28  1  0.82560265  0.00382396  0.82674875  1
  In  In29  1  0.82074256  0.50733525  0.02682229  1
  In  In30  1  0.85286478  0.83516391  -0.02241562  1
  In  In31  1  0.14968300  0.83974005  0.32855802  1
  In  In32  1  0.36055230  0.52680079  0.51941278  1
  In  In33  1  0.66043487  0.83973393  0.13000322  1
  In  In34  1  0.49583490  0.84933220  0.68614146  1
  In  In35  1  0.16977220  0.32403053  0.15975813  1
  In  In36  1  0.31822444  0.31535013  0.65653110  1
  In  In37  1  0.33272345  0.69902022  0.35514946  1
  In  In38  1  0.84807461  0.31483807  0.83809630  1
  In  In39  1  0.50162135  -0.01555338  0.15330163  1
  In  In40  1  0.49520338  0.67339552  0.15751562  1
  In  In41  1  0.35582971  0.66196507  -0.00796724  1
  In  In42  1  0.80101933  0.49275680  0.65437532  1
  In  In43  1  0.83582659  -0.01526693  0.47081939  1
  In  In44  1  0.50654299  0.51919571  0.67091030  1
  In  In45  1  0.16253606  0.65921236  0.18743790  1
  In  In46  1  0.65846402  0.00294327  0.65253084  1
  In  In47  1  0.35136154  0.87342971  0.83468659  1
  In  In48  1  0.66623674  0.33971366  0.33103951  1
  In  In49  1  0.51876332  0.31681953  0.16326634  1
  In  In50  1  0.66455638  0.66596879  0.33251256  1
  In  In51  1  0.83573053  0.67256926  0.83823838  1
  In  In52  1  0.17586436  0.00355451  0.16687586  1
  In  In53  1  0.81102554  -0.00021867  0.17253100  1
  In  In54  1  0.66373645  0.81729923  0.85950411  1
  In  In55  1  0.02547341  0.15762603  0.80287036  1
  In  In56  1  0.35769203  0.85152545  0.51726491  1
  In  In57  1  -0.01572816  0.35768964  0.34618589  1
  In  In58  1  0.63068916  0.15092442  0.84595679  1
  In  In59  1  0.00757984  0.44924228  0.79183019  1
  In  In60  1  0.34734769  0.00656664  0.32090877  1
  In  In61  1  0.18089959  0.48269309  0.68620586  1
  In  In62  1  0.63581249  0.85251171  0.51460192  1
  In  In63  1  0.17526874  0.66128302  0.82710249  1
  In  In64  1  0.51578665  0.14714547  0.31242605  1
  In  In65  1  0.49734561  0.34425966  0.49366327  1
  In  In66  1  0.00236941  0.48975450  0.16967620  1
  In  In67  1  0.16983116  0.00710076  0.51023536  1
  In  In68  1  0.04920134  0.64140815  0.00216564  1
  In  In69  1  -0.00914296  -0.00804658  0.65790754  1
  In  In70  1  0.21176791  0.47057591  -0.02635460  1
  In  In71  1  -0.00018075  0.83398180  0.48383951  1
  Te  Te72  1  0.09892120  0.10918193  0.08477099  1
  Te  Te73  1  0.06102277  0.07204398  0.42728211  1
  Te  Te74  1  0.09717052  0.03743444  0.75318432  1
  Te  Te75  1  0.09035365  0.41509648  0.06469695  1
  Te  Te76  1  0.08199135  0.41280266  0.43866301  1
  Te  Te77  1  0.07825987  0.36445748  0.68517657  1
  Te  Te78  1  0.08275179  0.75421626  0.09771485  1
  Te  Te79  1  0.09867962  0.73503658  0.42581816  1
  Te  Te80  1  0.10089441  0.76488141  0.74549463  1
  Te  Te81  1  0.41104310  0.06949074  0.07012170  1
  Te  Te82  1  0.45356630  0.06038491  0.42210696  1
  Te  Te83  1  0.44640148  0.06181623  0.72060013  1
  Te  Te84  1  0.40559724  0.38446509  0.09589743  1
  Te  Te85  1  0.41644218  0.43641679  0.40793400  1
  Te  Te86  1  0.41245508  0.41416876  0.72643005  1
  Te  Te87  1  0.41897971  0.76719812  0.07154939  1
  Te  Te88  1  0.43240266  0.79607524  0.40398759  1
  Te  Te89  1  0.42430549  0.75659950  0.77882160  1
  Te  Te90  1  0.71370015  0.06926786  0.08292218  1
  Te  Te91  1  0.71941333  0.05507848  0.39941929  1
  Te  Te92  1  0.73515247  0.09554492  0.75032981  1
  Te  Te93  1  0.73466816  0.39854133  0.07077522  1
  Te  Te94  1  0.74547968  0.45821356  0.41790874  1
  Te  Te95  1  0.74608820  0.40458658  0.76312082  1
  Te  Te96  1  0.75345626  0.74100198  0.05307505  1
  Te  Te97  1  0.72912743  0.76371118  0.42660689  1
  Te  Te98  1  0.75119641  0.75726420  0.75745944  1
  Te  Te99  1  0.06881736  0.26452475  0.25492470  1
  Te  Te100  1  0.11960564  0.22124379  0.61997970  1
  Te  Te101  1  0.08058582  0.26188891  0.90874763  1
  Te  Te102  1  0.07517043  0.57239032  0.26524953  1
  Te  Te103  1  0.09342200  0.58462186  0.60550596  1
  Te  Te104  1  0.09766789  0.54327411  0.88151570  1
  Te  Te105  1  0.07573396  0.93377679  0.24559617  1
  Te  Te106  1  0.08975079  0.90254232  0.58483255  1
  Te  Te107  1  0.09589424  0.93053292  0.95210706  1
  Te  Te108  1  0.40919936  0.25485587  0.27957736  1
  Te  Te109  1  0.42570390  0.24270037  0.57879525  1
  Te  Te110  1  0.42698569  0.26590028  0.92230819  1
  Te  Te111  1  0.39562567  0.60353514  0.24919583  1
  Te  Te112  1  0.44664497  0.62553730  0.58674753  1
  Te  Te113  1  0.43544065  0.53987882  0.95456465  1
  Te  Te114  1  0.43464039  0.90680873  0.25996946  1
  Te  Te115  1  0.41715386  0.95380781  0.61124180  1
  Te  Te116  1  0.44471891  0.93243077  0.93219215  1
  Te  Te117  1  0.73705080  0.24629667  0.24553733  1
  Te  Te118  1  0.74151537  0.24450154  0.58702043  1
  Te  Te119  1  0.74136656  0.24036459  0.91625823  1
  Te  Te120  1  0.74610647  0.58784041  0.22807409  1
  Te  Te121  1  0.72356568  0.61083739  0.60355545  1
  Te  Te122  1  0.74812390  0.57789371  0.91474694  1
  Te  Te123  1  0.72730974  0.90189922  0.24345794  1
  Te  Te124  1  0.75954289  0.91402187  0.58133777  1
  Te  Te125  1  0.74565684  0.92969517  0.93085605  1
  Te  Te126  1  0.26110455  0.24031988  0.07485570  1
  Te  Te127  1  0.23616599  0.25520028  0.44293637  1
  Te  Te128  1  0.23750196  0.21393899  0.73080283  1
  Te  Te129  1  0.24178835  0.58608353  0.07057398  1
  Te  Te130  1  0.25573371  0.59071448  0.42927331  1
  Te  Te131  1  0.27540559  0.59082398  0.73915441  1
  Te  Te132  1  0.27861646  0.94450597  0.08166690  1
  Te  Te133  1  0.25147152  0.92533453  0.40992905  1
  Te  Te134  1  0.23965141  0.95888915  0.79431706  1
  Te  Te135  1  0.54335550  0.26303210  0.02149444  1
  Te  Te136  1  0.58384862  0.23984643  0.42079850  1
  Te  Te137  1  0.54537657  0.25750152  0.78398941  1
  Te  Te138  1  0.56440519  0.56799305  0.08123643  1
  Te  Te139  1  0.55362056  0.59790513  0.40009935  1
  Te  Te140  1  0.58809785  0.56974604  0.78012208  1
  Te  Te141  1  0.54539276  0.88365759  0.04376190  1
  Te  Te142  1  0.59034596  0.96880853  0.43872055  1
  Te  Te143  1  0.60102457  0.92169853  0.76614900  1
  Te  Te144  1  0.90447467  0.22354938  0.09060371  1
  Te  Te145  1  0.91450785  0.24358676  0.42777581  1
  Te  Te146  1  0.92019267  0.23635290  0.73846215  1
  Te  Te147  1  0.93024342  0.59865072  0.08931544  1
  Te  Te148  1  0.92301680  0.59526448  0.41477618  1
  Te  Te149  1  0.91238078  0.56363338  0.74193991  1
  Te  Te150  1  0.91321603  0.90643955  0.09339722  1
  Te  Te151  1  0.90680696  0.88813258  0.37897613  1
  Te  Te152  1  0.91205467  0.90262812  0.75435967  1
  Te  Te153  1  0.24793493  0.11178230  0.26882382  1
  Te  Te154  1  0.26760966  0.08282587  0.58868796  1
  Te  Te155  1  0.28213686  0.08252075  0.88536021  1
  Te  Te156  1  0.23091225  0.43026668  0.24895376  1
  Te  Te157  1  0.25872741  0.42460023  0.57076349  1
  Te  Te158  1  0.29126108  0.36559693  0.89716487  1
  Te  Te159  1  0.25247701  0.76650238  0.24408341  1
  Te  Te160  1  0.27318259  0.78194662  0.61375077  1
  Te  Te161  1  0.25385438  0.75382288  0.91680407  1
  Te  Te162  1  0.59708354  0.08697687  0.20689769  1
  Te  Te163  1  0.55755692  0.10916375  0.62016956  1
  Te  Te164  1  0.53659428  0.06106565  0.91974631  1
  Te  Te165  1  0.57403445  0.41890360  0.25152584  1
  Te  Te166  1  0.59757448  0.41175648  0.58493578  1
  Te  Te167  1  0.55950813  0.46434183  0.88723946  1
  Te  Te168  1  0.58859058  0.75895496  0.24006663  1
  Te  Te169  1  0.56014511  0.75288420  0.59277228  1
  Te  Te170  1  0.55219993  0.71854758  0.87985530  1
  Te  Te171  1  0.90740191  0.08487870  0.24404284  1
  Te  Te172  1  0.89770923  0.07781351  0.57523666  1
  Te  Te173  1  0.92871832  0.08401059  0.90679394  1
  Te  Te174  1  0.89553775  0.39962924  0.22907921  1
  Te  Te175  1  0.89601150  0.40627095  0.57658943  1
  Te  Te176  1  0.91366690  0.42890044  0.92313472  1
  Te  Te177  1  0.90983757  0.75650650  0.29500864  1
  Te  Te178  1  0.91417891  0.75221765  0.58052697  1
  Te  Te179  1  0.95865691  0.73399460  0.91420820  1
