# generated using pymatgen
data_In2Te3
_symmetry_space_group_name_H-M   'P 1'
_cell_length_a   18.76872462
_cell_length_b   18.77255308
_cell_length_c   18.76545358
_cell_angle_alpha   89.94784372
_cell_angle_beta   89.99944153
_cell_angle_gamma   89.94110838
_symmetry_Int_Tables_number   1
_chemical_formula_structural   In2Te3
_chemical_formula_sum   'In72 Te108'
_cell_volume   6611.75511724
_cell_formula_units_Z   36
loop_
 _symmetry_equiv_pos_site_id
 _symmetry_equiv_pos_as_xyz
  1  'x, y, z'
loop_
 _atom_site_type_symbol
 _atom_site_label
 _atom_site_symmetry_multiplicity
 _atom_site_fract_x
 _atom_site_fract_y
 _atom_site_fract_z
 _atom_site_occupancy
  In  In0  1  -0.00954429  0.17464488  0.17996627  1
  In  In1  1  0.64251179  0.15233056  0.20073306  1
  In  In2  1  0.18448989  0.32503529  0.17266580  1
  In  In3  1  0.48413918  0.15826956  0.01447711  1
  In  In4  1  0.65724868  0.16402228  0.84479470  1
  In  In5  1  0.17462401  0.50961858  -0.00748064  1
  In  In6  1  0.49293979  0.51158235  0.33707262  1
  In  In7  1  0.16332377  0.16884023  -0.02200278  1
  In  In8  1  0.34115104  0.33931941  0.35143212  1
  In  In9  1  0.66199860  0.64341634  -0.00454286  1
  In  In10  1  0.01756174  0.51358683  0.17352937  1
  In  In11  1  0.01286990  -0.01642526  0.00024313  1
  In  In12  1  0.49165558  0.82465190  0.66104121  1
  In  In13  1  0.34051616  0.16277110  0.49367049  1
  In  In14  1  0.34017106  0.66720264  0.65943234  1
  In  In15  1  0.65415506  0.82652361  0.18213075  1
  In  In16  1  0.49690969  -0.01025946  0.51170349  1
  In  In17  1  0.82740546  0.00489939  0.49665806  1
  In  In18  1  0.84405739  0.34616582  0.81836368  1
  In  In19  1  0.66167628  0.81981293  0.80849078  1
  In  In20  1  0.33984217  0.83791398  0.49740622  1
  In  In21  1  0.63373862  0.36437026  -0.02295556  1
  In  In22  1  0.48885351  0.33827944  0.81439304  1
  In  In23  1  0.81836396  0.65307285  0.18049659  1
  In  In24  1  -0.00352593  0.82747661  0.83367321  1
  In  In25  1  -0.01954030  0.68882850  -0.00681053  1
  In  In26  1  0.17876333  0.00787924  0.49645947  1
  In  In27  1  0.83959646  0.49675784  0.36196772  1
  In  In28  1  0.63301969  -0.00481626  -0.01603362  1
  In  In29  1  0.52014506  0.50358896  -0.01127822  1
  In  In30  1  0.84865719  0.50014612  0.62399798  1
  In  In31  1  0.01017260  -0.00243589  0.67619313  1
  In  In32  1  0.18333195  -0.00757020  0.18469626  1
  In  In33  1  0.17774448  0.67169090  0.83868283  1
  In  In34  1  0.16361340  0.82628268  -0.01198217  1
  In  In35  1  0.01424010  0.17106873  0.82108649  1
  In  In36  1  0.81849449  0.81275364  0.36835538  1
  In  In37  1  0.50064840  0.34198218  0.50330027  1
  In  In38  1  0.34109765  0.48826885  0.20155293  1
  In  In39  1  0.18576984  0.65133280  0.48732104  1
  In  In40  1  0.49994536  0.32469638  0.16308586  1
  In  In41  1  0.30286654  0.33342248  0.00293186  1
  In  In42  1  0.84978843  -0.01378911  0.81977807  1
  In  In43  1  0.33711364  0.50179397  0.82507062  1
  In  In44  1  0.50644028  0.66357215  0.51424036  1
  In  In45  1  0.82119053  0.01219433  0.20129483  1
  In  In46  1  0.34136058  -0.00524761  0.01207054  1
  In  In47  1  0.02493687  0.45887723  0.77403850  1
  In  In48  1  0.65614672  0.65465859  0.66218484  1
  In  In49  1  0.49158070  0.15840786  0.34257948  1
  In  In50  1  0.03336617  0.84519396  0.17934155  1
  In  In51  1  0.66234549  0.33338744  0.65025659  1
  In  In52  1  0.85932112  0.82818727  -0.00855479  1
  In  In53  1  0.16161086  0.15763753  0.34564584  1
  In  In54  1  0.48538910  0.83383239  0.34453144  1
  In  In55  1  0.82907977  0.16830058  0.02074152  1
  In  In56  1  0.16012524  0.18207792  0.63470660  1
  In  In57  1  0.68727787  0.33332957  0.33717532  1
  In  In58  1  0.66386152  -0.00364675  0.64091140  1
  In  In59  1  -0.01820027  0.67608799  0.34863941  1
  In  In60  1  0.68317146  0.52963596  0.17193986  1
  In  In61  1  0.28562893  0.34838017  0.63455691  1
  In  In62  1  0.19786165  0.68266606  0.21699239  1
  In  In63  1  0.81824179  0.49904502  -0.03554176  1
  In  In64  1  0.85380083  0.34960337  0.17272316  1
  In  In65  1  0.85287106  0.17950438  0.37383430  1
  In  In66  1  0.00404339  0.66311736  0.65003567  1
  In  In67  1  0.48693334  0.83888537  -0.00023700  1
  In  In68  1  0.32779258  0.67968809  0.00448251  1
  In  In69  1  0.34646672  0.15454174  0.79822130  1
  In  In70  1  0.83625175  0.17687638  0.64210106  1
  In  In71  1  0.00870728  0.82955125  0.50922204  1
  Te  Te72  1  0.08285447  0.08616556  0.09185273  1
  Te  Te73  1  0.06923750  0.09389352  0.44421968  1
  Te  Te74  1  0.11585309  0.08409378  0.74830539  1
  Te  Te75  1  0.09488540  0.41551749  0.08480291  1
  Te  Te76  1  0.05819134  0.38880335  0.45959787  1
  Te  Te77  1  0.13289435  0.39496212  0.69487310  1
  Te  Te78  1  0.09102810  0.73166063  0.09302711  1
  Te  Te79  1  0.09824452  0.75376927  0.41134983  1
  Te  Te80  1  0.09250156  0.75262718  0.73972104  1
  Te  Te81  1  0.41843517  0.07267684  0.11347995  1
  Te  Te82  1  0.40136162  0.05361778  0.40790524  1
  Te  Te83  1  0.45323398  0.06657122  0.75250554  1
  Te  Te84  1  0.41117984  0.42086492  0.07257116  1
  Te  Te85  1  0.39474209  0.44926207  0.44555242  1
  Te  Te86  1  0.40375802  0.41819048  0.71702503  1
  Te  Te87  1  0.41523257  0.75243230  0.09836602  1
  Te  Te88  1  0.40085312  0.72168898  0.42154954  1
  Te  Te89  1  0.41705499  0.74509821  0.76006239  1
  Te  Te90  1  0.73205169  0.06670206  0.08545107  1
  Te  Te91  1  0.74160144  0.09244091  0.41319110  1
  Te  Te92  1  0.75834465  0.08944247  0.75178072  1
  Te  Te93  1  0.74735645  0.41631922  0.08108664  1
  Te  Te94  1  0.74445902  0.41666816  0.44434681  1
  Te  Te95  1  0.75722935  0.42877130  0.72611191  1
  Te  Te96  1  0.74952020  0.75153026  0.07584587  1
  Te  Te97  1  0.74814178  0.69921912  0.43140159  1
  Te  Te98  1  0.75646471  0.74830231  0.72299327  1
  Te  Te99  1  0.07971055  0.26233400  0.26566745  1
  Te  Te100  1  0.06537361  0.27256767  0.55660741  1
  Te  Te101  1  0.07872413  0.26886228  0.91108513  1
  Te  Te102  1  0.09288503  0.58979564  0.28184213  1
  Te  Te103  1  0.08871507  0.56880814  0.56932998  1
  Te  Te104  1  0.07217700  0.58959166  0.91242407  1
  Te  Te105  1  0.08785092  0.93337392  0.28251472  1
  Te  Te106  1  0.10903420  0.90884674  0.59565566  1
  Te  Te107  1  0.10712394  0.93298447  0.88402072  1
  Te  Te108  1  0.40422214  0.24491119  0.24767100  1
  Te  Te109  1  0.41072529  0.25520627  0.59056257  1
  Te  Te110  1  0.41145909  0.25885932  0.91963593  1
  Te  Te111  1  0.41101499  0.60571916  0.25593410  1
  Te  Te112  1  0.42929294  0.56612257  0.59800387  1
  Te  Te113  1  0.41863676  0.59380102  0.91405286  1
  Te  Te114  1  0.38672135  0.88259069  0.24502379  1
  Te  Te115  1  0.39217971  0.92835667  0.60857188  1
  Te  Te116  1  0.40387268  0.91536979  0.90251678  1
  Te  Te117  1  0.76858937  0.24050758  0.23905571  1
  Te  Te118  1  0.75166357  0.26092710  0.55491120  1
  Te  Te119  1  0.75566414  0.26239392  0.91381692  1
  Te  Te120  1  0.73236997  0.60749335  0.29810611  1
  Te  Te121  1  0.75276444  0.59808529  0.55734069  1
  Te  Te122  1  0.73458825  0.58600621  0.87749798  1
  Te  Te123  1  0.73866313  0.91049571  0.27973331  1
  Te  Te124  1  0.75833899  0.90236494  0.57809568  1
  Te  Te125  1  0.75011751  0.91777966  0.91727157  1
  Te  Te126  1  0.25728198  0.21836411  0.09073883  1
  Te  Te127  1  0.24054645  0.25946206  0.43285954  1
  Te  Te128  1  0.24051600  0.25175180  0.74973079  1
  Te  Te129  1  0.25030187  0.58138376  0.10358948  1
  Te  Te130  1  0.26843676  0.54387850  0.42564559  1
  Te  Te131  1  0.23914804  0.57835391  0.73638364  1
  Te  Te132  1  0.25321409  0.89392207  0.09106098  1
  Te  Te133  1  0.25207752  0.91516493  0.40108402  1
  Te  Te134  1  0.17645221  0.91915820  0.74921035  1
  Te  Te135  1  0.60267224  0.24381916  0.07427149  1
  Te  Te136  1  0.58759942  0.24793353  0.41939887  1
  Te  Te137  1  0.57666945  0.23944853  0.73819944  1
  Te  Te138  1  0.56337149  0.59659150  0.10333231  1
  Te  Te139  1  0.58882390  0.56466021  0.43563671  1
  Te  Te140  1  0.58923156  0.58801624  0.77604511  1
  Te  Te141  1  0.56631891  0.92543494  0.10068971  1
  Te  Te142  1  0.58563081  0.89545597  0.43719588  1
  Te  Te143  1  0.57588659  0.92943095  0.74752268  1
  Te  Te144  1  0.93481735  0.26810960  0.07100841  1
  Te  Te145  1  0.92990963  0.28735677  0.44155548  1
  Te  Te146  1  0.93259238  0.26044894  0.72803530  1
  Te  Te147  1  0.90931299  0.57389419  0.07863020  1
  Te  Te148  1  0.92796070  0.58075291  0.44945696  1
  Te  Te149  1  0.92383585  0.56788521  0.74157216  1
  Te  Te150  1  0.90950323  0.92649063  0.10122919  1
  Te  Te151  1  0.92237954  0.91355914  0.41435531  1
  Te  Te152  1  0.91032736  0.88988762  0.72025997  1
  Te  Te153  1  0.26368121  0.08912683  0.26195074  1
  Te  Te154  1  0.26800306  0.07872059  0.59899245  1
  Te  Te155  1  0.26507730  0.08118167  0.90710721  1
  Te  Te156  1  0.22854087  0.42337944  0.28156292  1
  Te  Te157  1  0.21287211  0.45500322  0.55393062  1
  Te  Te158  1  0.23289226  0.41085922  0.89190775  1
  Te  Te159  1  0.26802469  0.79562400  0.28753262  1
  Te  Te160  1  0.24277421  0.75623871  0.58373401  1
  Te  Te161  1  0.27455071  0.77549834  0.89457335  1
  Te  Te162  1  0.56519478  0.05037231  0.27057686  1
  Te  Te163  1  0.57852128  0.09619876  0.57502126  1
  Te  Te164  1  0.53696727  0.07565305  0.89233315  1
  Te  Te165  1  0.59014122  0.41739474  0.24423148  1
  Te  Te166  1  0.57955293  0.43843158  0.58374388  1
  Te  Te167  1  0.58987786  0.44921843  0.85315813  1
  Te  Te168  1  0.57386085  0.73913544  0.26774592  1
  Te  Te169  1  0.59898569  0.77331100  0.56767224  1
  Te  Te170  1  0.58141053  0.74887645  0.91663318  1
  Te  Te171  1  0.93096264  0.07883074  0.28184052  1
  Te  Te172  1  0.93780554  0.08571570  0.57260484  1
  Te  Te173  1  0.91893061  0.08537373  0.91666019  1
  Te  Te174  1  0.94139318  0.42251652  0.27201953  1
  Te  Te175  1  0.93780487  0.39364724  0.56265771  1
  Te  Te176  1  0.93920079  0.42763383  0.90589802  1
  Te  Te177  1  0.91082466  0.76146471  0.23741116  1
  Te  Te178  1  0.90800886  0.73222790  0.55934494  1
  Te  Te179  1  0.88659376  0.72828771  0.87929710  1
