# generated using pymatgen
data_In2Te3
_symmetry_space_group_name_H-M   'P 1'
_cell_length_a   18.77010849
_cell_length_b   18.76782919
_cell_length_c   18.76578072
_cell_angle_alpha   90.00042042
_cell_angle_beta   89.96479055
_cell_angle_gamma   90.08481271
_symmetry_Int_Tables_number   1
_chemical_formula_structural   In2Te3
_chemical_formula_sum   'In72 Te108'
_cell_volume   6610.69170830
_cell_formula_units_Z   36
loop_
 _symmetry_equiv_pos_site_id
 _symmetry_equiv_pos_as_xyz
  1  'x, y, z'
loop_
 _atom_site_type_symbol
 _atom_site_label
 _atom_site_symmetry_multiplicity
 _atom_site_fract_x
 _atom_site_fract_y
 _atom_site_fract_z
 _atom_site_occupancy
  In  In0  1  0.84155333  0.50261373  0.02834170  1
  In  In1  1  0.17053349  0.82831145  0.32739561  1
  In  In2  1  0.32227914  0.67058057  0.64485299  1
  In  In3  1  0.86041108  0.85076503  0.67471698  1
  In  In4  1  0.49948905  0.83046086  0.00489382  1
  In  In5  1  0.18502568  0.67466106  0.48048589  1
  In  In6  1  0.47381384  -0.01367618  0.16806036  1
  In  In7  1  0.68618368  0.63995160  0.66504717  1
  In  In8  1  0.65737043  0.35412948  0.32129828  1
  In  In9  1  0.50395255  0.02026515  0.85074232  1
  In  In10  1  0.50342057  0.83911025  0.63905581  1
  In  In11  1  -0.00904205  0.50524739  0.87107110  1
  In  In12  1  -0.00497453  0.50122791  0.47467049  1
  In  In13  1  0.15656243  0.32739020  0.16666630  1
  In  In14  1  0.82347860  0.00984455  0.50787091  1
  In  In15  1  0.82974986  0.16241023  0.35120144  1
  In  In16  1  0.66462433  0.47993765  0.84717763  1
  In  In17  1  0.16767062  -0.02249090  0.13121262  1
  In  In18  1  0.33567196  0.31431466  0.68068285  1
  In  In19  1  -0.00882026  0.51735523  0.16180823  1
  In  In20  1  0.01127440  0.69134412  0.67944918  1
  In  In21  1  0.65755320  0.84328112  0.47436727  1
  In  In22  1  -0.00657726  0.18684586  0.48109118  1
  In  In23  1  0.82495186  0.00419808  0.15477256  1
  In  In24  1  0.80495443  0.17306784  0.67538092  1
  In  In25  1  0.85054785  0.83307399  0.00969525  1
  In  In26  1  0.85724664  0.79842148  0.29078260  1
  In  In27  1  0.81718796  0.49630760  0.66487345  1
  In  In28  1  0.18174708  0.17520511  0.30254157  1
  In  In29  1  0.34436507  0.50168500  0.16588721  1
  In  In30  1  0.68705232  0.84653861  0.85890945  1
  In  In31  1  0.15751067  0.14810082  0.00228930  1
  In  In32  1  0.65320058  0.01562427  0.68763038  1
  In  In33  1  -0.02236165  0.13119842  0.87504469  1
  In  In34  1  0.66652178  0.49075892  0.16693366  1
  In  In35  1  0.17472631  0.00701871  0.51443914  1
  In  In36  1  0.68302347  0.18387126  0.85488722  1
  In  In37  1  0.17053826  0.51047390  0.67581001  1
  In  In38  1  0.32082847  0.50426365  0.47971419  1
  In  In39  1  0.68033481  0.17425306  0.50011588  1
  In  In40  1  0.64704061  0.17089676  0.13464220  1
  In  In41  1  0.66868189  0.66127168  0.33318944  1
  In  In42  1  0.33837869  0.16244585  0.15640518  1
  In  In43  1  0.47840761  -0.01114632  0.48032201  1
  In  In44  1  0.15766844  -0.01671646  0.87515089  1
  In  In45  1  0.50233422  0.34419792  0.51629454  1
  In  In46  1  0.67986246  0.84046680  0.15010100  1
  In  In47  1  0.14932007  0.68257984  0.85141063  1
  In  In48  1  0.34216563  0.82443854  0.49427014  1
  In  In49  1  0.49374302  0.67357170  0.45510827  1
  In  In50  1  0.34484311  0.67389193  0.00775735  1
  In  In51  1  0.49596436  0.14559366  0.32074608  1
  In  In52  1  0.15658507  0.33724006  0.47502750  1
  In  In53  1  -0.01762332  0.31720687  0.68287510  1
  In  In54  1  0.50410177  0.47585316  0.01000989  1
  In  In55  1  0.14509336  0.69438394  0.14810365  1
  In  In56  1  0.34163263  0.46776495  0.83469129  1
  In  In57  1  0.84499328  0.67323263  0.85191405  1
  In  In58  1  0.83373517  0.32241699  0.15486007  1
  In  In59  1  0.83308178  0.50383815  0.32767900  1
  In  In60  1  -0.00958770  0.82557623  0.50722526  1
  In  In61  1  0.18634734  0.33763344  0.83509917  1
  In  In62  1  -0.01283172  0.33578719  0.00345283  1
  In  In63  1  0.00188283  -0.00649592  0.31761440  1
  In  In64  1  0.33749204  0.32518917  0.32176805  1
  In  In65  1  0.49263686  0.46635181  0.65749616  1
  In  In66  1  0.50245380  0.16472759  0.69030445  1
  In  In67  1  0.19025437  0.17172057  0.68896378  1
  In  In68  1  0.31920393  0.84086968  0.83443489  1
  In  In69  1  -0.01995540  -0.00801324  0.69504768  1
  In  In70  1  0.49530860  0.65749148  0.16599812  1
  In  In71  1  0.51734875  0.68663795  0.84234694  1
  Te  Te72  1  0.06514780  0.07779283  0.09303006  1
  Te  Te73  1  0.08493436  0.08534487  0.41093703  1
  Te  Te74  1  0.07836309  0.09451252  0.75917302  1
  Te  Te75  1  0.08257159  0.42849652  0.07709554  1
  Te  Te76  1  0.09220261  0.43319528  0.38627046  1
  Te  Te77  1  0.07524994  0.42374033  0.75815580  1
  Te  Te78  1  0.08209001  0.78021506  0.04038089  1
  Te  Te79  1  0.06909546  0.74317481  0.40718696  1
  Te  Te80  1  0.09735484  0.78354649  0.75704031  1
  Te  Te81  1  0.42252125  0.08062462  0.06631286  1
  Te  Te82  1  0.39187115  0.08004897  0.40232212  1
  Te  Te83  1  0.40857226  0.06885624  0.74954106  1
  Te  Te84  1  0.38982485  0.39452504  0.06768784  1
  Te  Te85  1  0.42430261  0.41862447  0.40777704  1
  Te  Te86  1  0.44471874  0.37611281  0.77092648  1
  Te  Te87  1  0.40636523  0.77046046  0.11047566  1
  Te  Te88  1  0.40878968  0.76518108  0.37289922  1
  Te  Te89  1  0.41553692  0.75055418  0.74661600  1
  Te  Te90  1  0.76876748  0.11293960  0.06265658  1
  Te  Te91  1  0.72544845  0.06271396  0.40443960  1
  Te  Te92  1  0.76419912  0.06541537  0.77343105  1
  Te  Te93  1  0.73444779  0.39639088  0.06798544  1
  Te  Te94  1  0.74607082  0.42136155  0.41710024  1
  Te  Te95  1  0.74080119  0.39982542  0.74846360  1
  Te  Te96  1  0.76517027  0.73765429  0.08633375  1
  Te  Te97  1  0.76432430  0.75587600  0.40885849  1
  Te  Te98  1  0.74924767  0.75116301  0.75297637  1
  Te  Te99  1  0.06570097  0.24944760  0.25346471  1
  Te  Te100  1  0.09284750  0.25696942  0.59024495  1
  Te  Te101  1  0.07755162  0.25309524  0.90639184  1
  Te  Te102  1  0.07572490  0.60508403  0.25024793  1
  Te  Te103  1  0.08936922  0.59280348  0.57864253  1
  Te  Te104  1  0.08547571  0.58900649  0.94609300  1
  Te  Te105  1  0.07335942  0.89439580  0.22937256  1
  Te  Te106  1  0.07129859  0.92275284  0.59159201  1
  Te  Te107  1  0.06274375  0.91879251  0.97070598  1
  Te  Te108  1  0.43658190  0.25485012  0.23002459  1
  Te  Te109  1  0.41831758  0.23443560  0.58043254  1
  Te  Te110  1  0.43927577  0.29076680  0.96164887  1
  Te  Te111  1  0.42261910  0.57726359  0.26717464  1
  Te  Te112  1  0.42583654  0.58243972  0.57529669  1
  Te  Te113  1  0.42729660  0.58083094  0.91346389  1
  Te  Te114  1  0.43270843  0.90490320  0.28593245  1
  Te  Te115  1  0.39263500  0.93028129  0.59624980  1
  Te  Te116  1  0.40794609  0.92455067  0.92742510  1
  Te  Te117  1  0.73618685  0.24125917  0.24824769  1
  Te  Te118  1  0.76558872  0.27046771  0.57211419  1
  Te  Te119  1  0.78566608  0.27557526  0.91011417  1
  Te  Te120  1  0.75879272  0.59403223  0.22875759  1
  Te  Te121  1  0.75507979  0.57317106  0.55333826  1
  Te  Te122  1  0.75095555  0.57924222  0.92634163  1
  Te  Te123  1  0.75936755  0.91263786  0.25974079  1
  Te  Te124  1  0.73766759  0.91321932  0.59394823  1
  Te  Te125  1  0.76161307  0.94098628  0.94645281  1
  Te  Te126  1  0.24729202  0.25162987  0.07092555  1
  Te  Te127  1  0.25824150  0.23861298  0.42033213  1
  Te  Te128  1  0.28482724  0.22742958  0.79746191  1
  Te  Te129  1  0.24680719  0.58933809  0.08793775  1
  Te  Te130  1  0.26376162  0.59819649  0.38194852  1
  Te  Te131  1  0.25700387  0.59668565  0.76829972  1
  Te  Te132  1  0.26250723  0.90167906  0.04845657  1
  Te  Te133  1  0.25355466  0.92331818  0.41362629  1
  Te  Te134  1  0.22647165  0.92487228  0.75584425  1
  Te  Te135  1  0.56664170  0.26038860  0.04749530  1
  Te  Te136  1  0.57484842  0.24587433  0.41236469  1
  Te  Te137  1  0.61450727  0.24746345  0.73736332  1
  Te  Te138  1  0.59052204  0.58554830  0.07180339  1
  Te  Te139  1  0.58480322  0.56736504  0.41115246  1
  Te  Te140  1  0.57528150  0.57590938  0.75262521  1
  Te  Te141  1  0.58920516  0.93410622  0.07224862  1
  Te  Te142  1  0.56076485  0.90941601  0.38033750  1
  Te  Te143  1  0.57508378  0.89986059  0.76444047  1
  Te  Te144  1  0.91759159  0.22758499  0.07626074  1
  Te  Te145  1  0.90020677  0.27720300  0.41340562  1
  Te  Te146  1  0.90233152  0.23348249  0.78144055  1
  Te  Te147  1  0.91862730  0.62273827  0.08021616  1
  Te  Te148  1  0.91415232  0.60198067  0.40565838  1
  Te  Te149  1  0.92517951  0.58251007  0.74955791  1
  Te  Te150  1  0.93468809  0.91458888  0.10468469  1
  Te  Te151  1  0.90798856  0.91939471  0.41626928  1
  Te  Te152  1  0.91826676  0.90625025  0.79897272  1
  Te  Te153  1  0.25339718  0.06114045  0.23539763  1
  Te  Te154  1  0.26630355  0.09906989  0.58553080  1
  Te  Te155  1  0.26156198  0.07719603  0.92519496  1
  Te  Te156  1  0.24279988  0.42139315  0.25176736  1
  Te  Te157  1  0.25803756  0.41545683  0.59358984  1
  Te  Te158  1  0.23926623  0.43273472  0.93456433  1
  Te  Te159  1  0.25352674  0.74884597  0.23387059  1
  Te  Te160  1  0.22818583  0.77387432  0.58810041  1
  Te  Te161  1  0.23679957  0.77786903  0.95576899  1
  Te  Te162  1  0.59322701  0.06827957  0.23330520  1
  Te  Te163  1  0.57934464  0.07275539  0.56784876  1
  Te  Te164  1  0.59085079  0.10075116  0.93877208  1
  Te  Te165  1  0.55757209  0.41316910  0.23013600  1
  Te  Te166  1  0.61106199  0.41849131  0.58431358  1
  Te  Te167  1  0.57979692  0.37706782  0.92229448  1
  Te  Te168  1  0.58965092  0.75315689  0.24024499  1
  Te  Te169  1  0.59153349  0.73511496  0.57091434  1
  Te  Te170  1  0.61244581  0.74440427  0.94557751  1
  Te  Te171  1  0.91489839  0.09448870  0.24502067  1
  Te  Te172  1  0.92186542  0.09691783  0.58666050  1
  Te  Te173  1  0.87601340  0.05923498  0.95738771  1
  Te  Te174  1  0.92156443  0.40911983  0.24425065  1
  Te  Te175  1  0.92438093  0.41644149  0.58407179  1
  Te  Te176  1  0.88033432  0.40317820  0.90685985  1
  Te  Te177  1  0.94653477  0.70339386  0.21822767  1
  Te  Te178  1  0.89760880  0.73226201  0.58470699  1
  Te  Te179  1  0.94660695  0.76031127  0.91611544  1
