# generated using pymatgen
data_In2Te3
_symmetry_space_group_name_H-M   'P 1'
_cell_length_a   18.84819960
_cell_length_b   18.82813454
_cell_length_c   18.83947815
_cell_angle_alpha   90.00584336
_cell_angle_beta   90.07082624
_cell_angle_gamma   89.94543290
_symmetry_Int_Tables_number   1
_chemical_formula_structural   In2Te3
_chemical_formula_sum   'In72 Te108'
_cell_volume   6685.67872512
_cell_formula_units_Z   36
loop_
 _symmetry_equiv_pos_site_id
 _symmetry_equiv_pos_as_xyz
  1  'x, y, z'
loop_
 _atom_site_type_symbol
 _atom_site_label
 _atom_site_symmetry_multiplicity
 _atom_site_fract_x
 _atom_site_fract_y
 _atom_site_fract_z
 _atom_site_occupancy
  In  In0  1  0.48742424  0.83582567  0.34749452  1
  In  In1  1  0.49735500  0.63919609  0.86024669  1
  In  In2  1  0.69236780  0.81264374  0.13420190  1
  In  In3  1  0.52025975  0.82696425  0.01540783  1
  In  In4  1  0.66521442  0.49656224  0.49360987  1
  In  In5  1  0.48016949  0.33393788  0.14691980  1
  In  In6  1  0.33504720  0.52134391  0.49423590  1
  In  In7  1  0.17178739  0.49615349  -0.00090697  1
  In  In8  1  0.64871681  0.65684693  0.32754338  1
  In  In9  1  0.33927300  0.48482274  0.14759018  1
  In  In10  1  0.33401699  0.33025407  0.68482942  1
  In  In11  1  0.82553440  0.85083569  0.68618259  1
  In  In12  1  0.17196155  0.17299405  -0.00922843  1
  In  In13  1  0.33018634  0.33027316  0.33287322  1
  In  In14  1  0.34862806  0.15487321  0.49463232  1
  In  In15  1  0.15118197  0.82083299  0.32515321  1
  In  In16  1  0.83699554  0.15212993  0.68250213  1
  In  In17  1  0.33045710  0.14931387  0.16402769  1
  In  In18  1  0.34086454  0.36335222  -0.01866982  1
  In  In19  1  0.49073050  0.17009542  0.67724129  1
  In  In20  1  -0.00574196  0.16241820  0.18812209  1
  In  In21  1  0.34031463  -0.01385073  0.35027573  1
  In  In22  1  0.83597323  0.16287927  0.31539491  1
  In  In23  1  0.18371804  -0.00813506  0.82445045  1
  In  In24  1  0.80547075  0.64300966  0.91306151  1
  In  In25  1  0.14316797  0.80092452  -0.00126671  1
  In  In26  1  0.65028573  0.69223766  0.68427959  1
  In  In27  1  0.18051285  0.18118773  0.65895577  1
  In  In28  1  0.16276084  0.65998452  0.82981522  1
  In  In29  1  0.67658512  0.16104371  0.16492438  1
  In  In30  1  0.32423790  0.82506928  0.82370221  1
  In  In31  1  0.00720862  0.83804968  0.15436308  1
  In  In32  1  0.51091756  0.64288043  0.16277795  1
  In  In33  1  0.51790605  0.34714721  0.84320254  1
  In  In34  1  0.66532086  0.31507935  0.33696326  1
  In  In35  1  0.50547319  0.01584851  0.82326602  1
  In  In36  1  0.66907925  0.33733158  0.68012495  1
  In  In37  1  0.82202224  0.00922145  0.51689167  1
  In  In38  1  0.83931574  0.33001581  0.46360976  1
  In  In39  1  0.17862263  -0.02118810  0.18527854  1
  In  In40  1  -0.00444949  0.63998352  0.29530870  1
  In  In41  1  0.64935070  0.17290186  0.51380053  1
  In  In42  1  0.18436998  0.68059976  0.48741161  1
  In  In43  1  0.00071234  0.35766025  0.01531114  1
  In  In44  1  -0.01489976  0.33813218  0.31308180  1
  In  In45  1  0.83286119  0.67407416  0.48399922  1
  In  In46  1  0.51792113  0.17230211  -0.00795474  1
  In  In47  1  0.64993074  -0.01198549  0.32131183  1
  In  In48  1  0.33887290  0.82297150  0.51272019  1
  In  In49  1  0.48972027  0.83784449  0.66547832  1
  In  In50  1  0.49363467  0.51000686  0.65364885  1
  In  In51  1  -0.03216505  0.82375391  0.84651477  1
  In  In52  1  0.84041228  0.82623820  0.33431165  1
  In  In53  1  0.00534162  0.85270556  0.49922228  1
  In  In54  1  0.50469712  0.49930275  0.33367661  1
  In  In55  1  -0.00650273  0.50107919  0.48584843  1
  In  In56  1  0.69408375  0.49816268  0.14954748  1
  In  In57  1  0.13242277  0.02967866  0.48228319  1
  In  In58  1  0.34107176  -0.00539550  0.00540474  1
  In  In59  1  0.01803356  0.18661169  0.84317567  1
  In  In60  1  0.14093120  0.33779276  0.14991839  1
  In  In61  1  0.14340081  0.32914661  0.49878005  1
  In  In62  1  0.17280788  0.50054303  0.67906281  1
  In  In63  1  0.82454200  0.16978355  0.00140546  1
  In  In64  1  -0.01172300  0.01216127  0.00790326  1
  In  In65  1  0.67402214  0.00043831  0.66989560  1
  In  In66  1  0.83139138  0.32971570  0.85814500  1
  In  In67  1  0.84642437  0.49921509  0.66425897  1
  In  In68  1  0.70638095  0.85077518  0.87136766  1
  In  In69  1  0.01253401  0.67947332  0.68078443  1
  In  In70  1  0.02275613  0.49608734  0.82084018  1
  In  In71  1  0.34275235  0.80878041  0.18637786  1
  Te  Te72  1  0.10213244  0.08465380  0.09230400  1
  Te  Te73  1  0.05349364  0.11443212  0.39252850  1
  Te  Te74  1  0.09099310  0.08918722  0.75295329  1
  Te  Te75  1  0.05520037  0.46547012  0.12030135  1
  Te  Te76  1  0.08471809  0.42407901  0.39201596  1
  Te  Te77  1  0.07638670  0.39954687  0.72411830  1
  Te  Te78  1  0.08513051  0.71747199  0.10823447  1
  Te  Te79  1  0.04986188  0.73470368  0.41179443  1
  Te  Te80  1  0.08967138  0.77906103  0.76325676  1
  Te  Te81  1  0.43933837  0.07727291  0.08595058  1
  Te  Te82  1  0.43971582  0.07978464  0.40610896  1
  Te  Te83  1  0.39772289  0.08012578  0.74739532  1
  Te  Te84  1  0.46011936  0.45049215  0.04263425  1
  Te  Te85  1  0.41998925  0.41277210  0.42390839  1
  Te  Te86  1  0.41952978  0.43040161  0.76129476  1
  Te  Te87  1  0.41887167  0.73314040  0.07831877  1
  Te  Te88  1  0.38674066  0.74238426  0.39859333  1
  Te  Te89  1  0.42626046  0.73330783  0.75834215  1
  Te  Te90  1  0.74799852  0.06437290  0.07471526  1
  Te  Te91  1  0.73933787  0.09426444  0.41627564  1
  Te  Te92  1  0.74403098  0.08118270  0.77059829  1
  Te  Te93  1  0.77968844  0.42074199  0.05352870  1
  Te  Te94  1  0.75215502  0.43121922  0.38789196  1
  Te  Te95  1  0.75443755  0.42923715  0.76300133  1
  Te  Te96  1  0.77226495  0.72907946  0.03918512  1
  Te  Te97  1  0.72833556  0.75770801  0.41285177  1
  Te  Te98  1  0.76597606  0.73891147  0.77325812  1
  Te  Te99  1  0.09966930  0.24224910  0.26181870  1
  Te  Te100  1  0.06588273  0.24067225  0.58606269  1
  Te  Te101  1  0.10073996  0.28799160  0.92168589  1
  Te  Te102  1  0.10280013  0.58506302  0.20961137  1
  Te  Te103  1  0.07986523  0.58682631  0.57955285  1
  Te  Te104  1  0.07211054  0.59091412  0.92983414  1
  Te  Te105  1  0.05941606  0.92886569  0.26486278  1
  Te  Te106  1  0.08471063  0.93694755  0.58801017  1
  Te  Te107  1  0.08864484  0.92530136  0.92898862  1
  Te  Te108  1  0.42085435  0.23888035  0.25034163  1
  Te  Te109  1  0.41976642  0.26211305  0.57985523  1
  Te  Te110  1  0.41663102  0.25183821  0.91009618  1
  Te  Te111  1  0.40496100  0.57828934  0.25189637  1
  Te  Te112  1  0.41239116  0.60970877  0.58243019  1
  Te  Te113  1  0.40532806  0.56285555  0.94911094  1
  Te  Te114  1  0.42060649  0.92672722  0.23418851  1
  Te  Te115  1  0.41700826  0.93019438  0.57625690  1
  Te  Te116  1  0.42545612  0.90700235  0.91378916  1
  Te  Te117  1  0.76526776  0.26906288  0.23282090  1
  Te  Te118  1  0.75865203  0.26081905  0.57931383  1
  Te  Te119  1  0.72645720  0.25183043  0.92524625  1
  Te  Te120  1  0.75437154  0.60554750  0.23805682  1
  Te  Te121  1  0.74893066  0.58971627  0.58413323  1
  Te  Te122  1  0.69760967  0.54285725  0.93837689  1
  Te  Te123  1  0.75339455  0.91084981  0.24189229  1
  Te  Te124  1  0.73466331  0.89784412  0.57373630  1
  Te  Te125  1  0.78414487  0.93116855  0.96796145  1
  Te  Te126  1  0.26567047  0.26332294  0.08192265  1
  Te  Te127  1  0.24510279  0.24255865  0.42239952  1
  Te  Te128  1  0.24593848  0.25217607  0.77136045  1
  Te  Te129  1  0.27074788  0.58640829  0.06356288  1
  Te  Te130  1  0.23242472  0.57279938  0.40152158  1
  Te  Te131  1  0.26380607  0.59334563  0.74601839  1
  Te  Te132  1  0.24821871  0.89608576  0.07777543  1
  Te  Te133  1  0.22814270  0.91049690  0.42104347  1
  Te  Te134  1  0.26851648  0.92060314  0.72687289  1
  Te  Te135  1  0.59885513  0.26614239  0.08043548  1
  Te  Te136  1  0.56529089  0.25669684  0.42580138  1
  Te  Te137  1  0.59514819  0.23663128  0.76508335  1
  Te  Te138  1  0.61535201  0.60020748  0.06505554  1
  Te  Te139  1  0.56290062  0.59592629  0.43696836  1
  Te  Te140  1  0.59122105  0.57193895  0.75399994  1
  Te  Te141  1  0.60548334  0.92271725  0.08757649  1
  Te  Te142  1  0.57429421  0.92178344  0.42887672  1
  Te  Te143  1  0.60101568  0.90130978  0.76261199  1
  Te  Te144  1  0.92009532  0.25206502  0.08947620  1
  Te  Te145  1  0.93924762  0.21971888  0.41773256  1
  Te  Te146  1  0.91818352  0.26106269  0.75382883  1
  Te  Te147  1  0.85259055  0.53309558  0.11859396  1
  Te  Te148  1  0.89670902  0.57128047  0.39174542  1
  Te  Te149  1  0.91587871  0.59442856  0.76135601  1
  Te  Te150  1  0.90025636  0.90883484  0.07242193  1
  Te  Te151  1  0.91055319  0.93594794  0.41439260  1
  Te  Te152  1  0.91863567  0.93396171  0.76272708  1
  Te  Te153  1  0.24645557  0.08265427  0.27157481  1
  Te  Te154  1  0.24951313  0.07427320  0.57502289  1
  Te  Te155  1  0.26892828  0.08843525  0.91009732  1
  Te  Te156  1  0.24242167  0.41261518  0.24004140  1
  Te  Te157  1  0.25151959  0.41142319  0.57611453  1
  Te  Te158  1  0.24922021  0.43363858  0.89005688  1
  Te  Te159  1  0.23549820  0.72871403  0.24680027  1
  Te  Te160  1  0.24095788  0.75361533  0.60000001  1
  Te  Te161  1  0.25841529  0.73389108  0.92635115  1
  Te  Te162  1  0.57981365  0.10243921  0.25917751  1
  Te  Te163  1  0.56615394  0.07026048  0.58832573  1
  Te  Te164  1  0.59807682  0.06922000  0.92317908  1
  Te  Te165  1  0.58319706  0.41407289  0.23695947  1
  Te  Te166  1  0.57872896  0.40585065  0.57873636  1
  Te  Te167  1  0.60752152  0.41474790  0.93677506  1
  Te  Te168  1  0.57638361  0.76268078  0.23852403  1
  Te  Te169  1  0.57198866  0.75139791  0.57615001  1
  Te  Te170  1  0.59254837  0.75188083  0.90604888  1
  Te  Te171  1  0.89639142  0.06085347  0.22731469  1
  Te  Te172  1  0.92679959  0.07637857  0.59470055  1
  Te  Te173  1  0.91437574  0.09263938  0.90260214  1
  Te  Te174  1  0.91943473  0.43028210  0.21937416  1
  Te  Te175  1  0.92103843  0.40135514  0.57470290  1
  Te  Te176  1  0.91744501  0.44148090  0.91890490  1
  Te  Te177  1  0.90712016  0.74331405  0.22547379  1
  Te  Te178  1  0.91197028  0.75439227  0.58950757  1
  Te  Te179  1  0.91773774  0.73452580  0.95477789  1
