# generated using pymatgen
data_In2Te3
_symmetry_space_group_name_H-M   'P 1'
_cell_length_a   18.93556142
_cell_length_b   18.94476208
_cell_length_c   18.96192498
_cell_angle_alpha   89.77813671
_cell_angle_beta   90.07851278
_cell_angle_gamma   89.95738393
_symmetry_Int_Tables_number   1
_chemical_formula_structural   In2Te3
_chemical_formula_sum   'In72 Te108'
_cell_volume   6802.14648038
_cell_formula_units_Z   36
loop_
 _symmetry_equiv_pos_site_id
 _symmetry_equiv_pos_as_xyz
  1  'x, y, z'
loop_
 _atom_site_type_symbol
 _atom_site_label
 _atom_site_symmetry_multiplicity
 _atom_site_fract_x
 _atom_site_fract_y
 _atom_site_fract_z
 _atom_site_occupancy
  In  In0  1  0.17969363  0.49841438  0.33303467  1
  In  In1  1  0.63762237  0.16195169  0.48066768  1
  In  In2  1  0.85562098  0.64571560  0.47762674  1
  In  In3  1  0.63685384  0.18716402  0.82072372  1
  In  In4  1  0.65443672  0.48010537  0.50501761  1
  In  In5  1  0.36025303  0.52047612  0.14620107  1
  In  In6  1  0.00313725  -0.02715512  0.00742481  1
  In  In7  1  0.48792173  0.81059882  -0.01960122  1
  In  In8  1  0.80927418  0.82481055  -0.03560283  1
  In  In9  1  0.01365789  0.84198106  0.18057599  1
  In  In10  1  0.01843794  0.50512597  0.82914536  1
  In  In11  1  0.44723573  0.51181703  0.71187541  1
  In  In12  1  0.66822652  -0.01805858  0.00238502  1
  In  In13  1  0.00629821  0.49652137  0.15065594  1
  In  In14  1  0.80180886  0.16732458  -0.03599128  1
  In  In15  1  0.67159068  0.01083962  0.32635041  1
  In  In16  1  0.67223593  0.63788781  0.32637296  1
  In  In17  1  -0.00333085  0.34000257  0.00318281  1
  In  In18  1  0.63174675  -0.00029795  0.68679435  1
  In  In19  1  0.49280146  0.19496483  0.01304854  1
  In  In20  1  -0.00587388  0.15316897  0.85059714  1
  In  In21  1  0.42362372  0.82320221  0.69900551  1
  In  In22  1  0.83588099  -0.02137534  0.50621782  1
  In  In23  1  0.19117666  -0.02254252  0.51050679  1
  In  In24  1  0.65349878  0.34628581  0.31916093  1
  In  In25  1  0.20316340  0.72719452  0.51176380  1
  In  In26  1  0.34155100  0.68487172  0.31716894  1
  In  In27  1  0.38718471  0.64013644  -0.01226051  1
  In  In28  1  0.61996425  0.33385646  0.65796797  1
  In  In29  1  0.16976561  0.16658394  -0.01436514  1
  In  In30  1  0.80055134  0.32165553  0.16260102  1
  In  In31  1  0.02197765  0.13831566  0.48422828  1
  In  In32  1  0.19532284  0.67567939  0.16882661  1
  In  In33  1  0.83135619  0.64791920  0.83933108  1
  In  In34  1  0.04887028  0.82668765  0.50939241  1
  In  In35  1  0.32377383  0.00581686  -0.00374282  1
  In  In36  1  0.35213086  0.47764914  0.47935435  1
  In  In37  1  0.67771858  0.80584769  0.52502939  1
  In  In38  1  0.81576885  0.15570249  0.63700498  1
  In  In39  1  0.64835287  0.81472547  0.13822564  1
  In  In40  1  0.00182850  0.33480070  0.69654200  1
  In  In41  1  0.22067264  0.35921027  0.83199033  1
  In  In42  1  0.82313926  0.69450720  0.17764212  1
  In  In43  1  -0.01386230  0.17821328  0.18306745  1
  In  In44  1  0.34043466  0.85371396  0.19065322  1
  In  In45  1  0.34975431  0.16772780  0.82927798  1
  In  In46  1  0.01640123  0.84076562  0.81373571  1
  In  In47  1  0.17176515  0.01150565  0.17528641  1
  In  In48  1  0.02550432  0.63462561  -0.02497810  1
  In  In49  1  0.84407641  0.85862186  0.33254788  1
  In  In50  1  0.18753041  0.31494449  0.50382450  1
  In  In51  1  0.16265659  0.34523036  0.15330115  1
  In  In52  1  0.46295643  0.66762281  0.50310559  1
  In  In53  1  0.85792470  0.80973346  0.70034145  1
  In  In54  1  0.04257097  0.58625638  0.47109612  1
  In  In55  1  0.36587756  0.19989302  0.50550211  1
  In  In56  1  0.50534956  -0.00254269  0.51658491  1
  In  In57  1  0.48948196  0.00308380  0.82887430  1
  In  In58  1  0.51338679  0.17472726  0.33652734  1
  In  In59  1  0.81326353  0.48188857  0.68782332  1
  In  In60  1  0.51408001  0.34142896  0.17125011  1
  In  In61  1  0.84645012  0.01343866  0.15679277  1
  In  In62  1  0.02622659  0.68560072  0.65109867  1
  In  In63  1  0.18157803  0.79944366  -0.02097064  1
  In  In64  1  0.15332961  0.14378388  0.66303797  1
  In  In65  1  0.82000910  0.48745332  0.00186122  1
  In  In66  1  0.64162135  0.65007554  0.66467510  1
  In  In67  1  0.01576900  0.33411066  0.33347555  1
  In  In68  1  0.31805328  0.17580455  0.17319256  1
  In  In69  1  0.52265060  0.83381999  0.32522189  1
  In  In70  1  0.84843121  0.33954775  0.49597817  1
  In  In71  1  0.79539536  0.33554103  0.81318201  1
  Te  Te72  1  0.07153615  0.09288291  0.07651033  1
  Te  Te73  1  0.12590397  0.06859666  0.41112294  1
  Te  Te74  1  0.07298775  0.06899916  0.76109351  1
  Te  Te75  1  0.10232313  0.43917377  0.04700214  1
  Te  Te76  1  0.09139162  0.42200317  0.43158997  1
  Te  Te77  1  0.11298915  0.42667935  0.73946069  1
  Te  Te78  1  0.07784567  0.74439615  0.08059531  1
  Te  Te79  1  0.08422315  0.71797444  0.41091018  1
  Te  Te80  1  0.11855361  0.74740412  0.75212923  1
  Te  Te81  1  0.40917349  0.08848850  0.08608491  1
  Te  Te82  1  0.42534725  0.08330746  0.42129233  1
  Te  Te83  1  0.39644418  0.06506554  0.73288570  1
  Te  Te84  1  0.41193811  0.39919869  0.07331755  1
  Te  Te85  1  0.44148942  0.38613524  0.40966440  1
  Te  Te86  1  0.34733406  0.40808221  0.75699564  1
  Te  Te87  1  0.39685315  0.75625190  0.09290999  1
  Te  Te88  1  0.41294744  0.78150580  0.41683200  1
  Te  Te89  1  0.42670676  0.70047992  0.79431436  1
  Te  Te90  1  0.74020845  0.08974509  0.08164600  1
  Te  Te91  1  0.75835227  0.08398826  0.42698973  1
  Te  Te92  1  0.73541155  0.09429034  0.75034611  1
  Te  Te93  1  0.72191834  0.42517008  0.09313501  1
  Te  Te94  1  0.75603892  0.42312648  0.40933266  1
  Te  Te95  1  0.69144498  0.43116031  0.75904529  1
  Te  Te96  1  0.73743923  0.72312900  0.05432172  1
  Te  Te97  1  0.75449031  0.74959737  0.40599648  1
  Te  Te98  1  0.73895770  0.73461707  0.75201812  1
  Te  Te99  1  0.10575956  0.24254539  0.25112801  1
  Te  Te100  1  0.06419015  0.25196982  0.58574208  1
  Te  Te101  1  0.08503271  0.26559355  0.90296226  1
  Te  Te102  1  0.09442188  0.58305207  0.23778111  1
  Te  Te103  1  0.13337158  0.59976868  0.58988374  1
  Te  Te104  1  0.12179879  0.60271177  0.87000983  1
  Te  Te105  1  0.07124269  0.94697916  0.26306083  1
  Te  Te106  1  0.09300894  0.92503426  0.61414740  1
  Te  Te107  1  0.10599185  0.91509177  0.91269671  1
  Te  Te108  1  0.41427989  0.25862376  0.25516262  1
  Te  Te109  1  0.45932139  0.24418875  0.61106719  1
  Te  Te110  1  0.42318023  0.27006466  0.90748629  1
  Te  Te111  1  0.42963662  0.57989952  0.26286947  1
  Te  Te112  1  0.37939219  0.58358239  0.59355319  1
  Te  Te113  1  0.44693771  0.50722062  0.93166361  1
  Te  Te114  1  0.43720082  0.93590002  0.26252761  1
  Te  Te115  1  0.40092382  0.93894821  0.60369843  1
  Te  Te116  1  0.39610919  0.90956180  0.90568548  1
  Te  Te117  1  0.74412585  0.24196370  0.27048264  1
  Te  Te118  1  0.73645931  0.27031208  0.57618133  1
  Te  Te119  1  0.70703028  0.27881727  0.92370340  1
  Te  Te120  1  0.76761838  0.57364283  0.23680120  1
  Te  Te121  1  0.75409715  0.58188812  0.58013984  1
  Te  Te122  1  0.73453456  0.56267399  0.90756808  1
  Te  Te123  1  0.73574379  0.90366693  0.23359033  1
  Te  Te124  1  0.73855355  0.91891750  0.60691248  1
  Te  Te125  1  0.72546642  0.91488064  0.88645131  1
  Te  Te126  1  0.25435853  0.26318012  0.06243597  1
  Te  Te127  1  0.27853773  0.26301169  0.40315390  1
  Te  Te128  1  0.24344651  0.23716687  0.74085557  1
  Te  Te129  1  0.25507527  0.59217776  0.06214360  1
  Te  Te130  1  0.26440489  0.59463556  0.41322128  1
  Te  Te131  1  0.30990291  0.60863908  0.80597170  1
  Te  Te132  1  0.23553284  0.91004065  0.07871468  1
  Te  Te133  1  0.24057857  0.85707917  0.44043690  1
  Te  Te134  1  0.20758077  0.86842749  0.70221832  1
  Te  Te135  1  0.59740021  0.23988310  0.10389994  1
  Te  Te136  1  0.56070402  0.28995560  0.43695187  1
  Te  Te137  1  0.52882835  0.27216388  0.75984772  1
  Te  Te138  1  0.53341795  0.61706269  0.04578011  1
  Te  Te139  1  0.57681845  0.59058620  0.43440966  1
  Te  Te140  1  0.55417143  0.60096114  0.77399223  1
  Te  Te141  1  0.55426026  0.91439283  0.07478941  1
  Te  Te142  1  0.60660186  0.91552009  0.43438038  1
  Te  Te143  1  0.55597844  0.88802304  0.75423816  1
  Te  Te144  1  0.90206679  0.23764540  0.06193895  1
  Te  Te145  1  0.92699561  0.24051824  0.41371828  1
  Te  Te146  1  0.89607076  0.23618195  0.75073830  1
  Te  Te147  1  0.91415792  0.58936881  0.07058687  1
  Te  Te148  1  0.92390287  0.54845379  0.39430905  1
  Te  Te149  1  0.92833638  0.58977095  0.73155799  1
  Te  Te150  1  0.89357323  0.88897110  0.08383948  1
  Te  Te151  1  0.94734606  0.91405664  0.42708793  1
  Te  Te152  1  0.91172750  0.93002530  0.76086390  1
  Te  Te153  1  0.27690842  0.06431253  0.26126492  1
  Te  Te154  1  0.25920138  0.10234535  0.56549774  1
  Te  Te155  1  0.24053292  0.07524264  0.89032824  1
  Te  Te156  1  0.26275351  0.42740524  0.23147631  1
  Te  Te157  1  0.27723076  0.40054202  0.58104108  1
  Te  Te158  1  0.29530496  0.47162392  0.89779053  1
  Te  Te159  1  0.22881746  0.78443799  0.26645852  1
  Te  Te160  1  0.29659042  0.77342755  0.62427331  1
  Te  Te161  1  0.28995565  0.73751359  0.89668423  1
  Te  Te162  1  0.57939741  0.08464292  0.24074575  1
  Te  Te163  1  0.56554611  0.11297160  0.60676229  1
  Te  Te164  1  0.57637700  0.08691764  0.92042503  1
  Te  Te165  1  0.56319314  0.44861519  0.26157650  1
  Te  Te166  1  0.54365189  0.45161745  0.60318433  1
  Te  Te167  1  0.55197309  0.46062828  1.02808526  1
  Te  Te168  1  0.57923327  0.72371800  0.23869255  1
  Te  Te169  1  0.55154553  0.75538265  0.59323653  1
  Te  Te170  1  0.59644932  0.71565396  0.94812822  1
  Te  Te171  1  0.91833100  0.07801556  0.26533358  1
  Te  Te172  1  0.92852146  0.06988135  0.58607337  1
  Te  Te173  1  0.90360291  0.05774884  0.92743590  1
  Te  Te174  1  0.92692064  0.39112071  0.22341969  1
  Te  Te175  1  0.92245474  0.42348752  0.59863146  1
  Te  Te176  1  0.90939575  0.41189358  0.89301259  1
  Te  Te177  1  0.93026956  0.74901010  0.26876136  1
  Te  Te178  1  0.91162010  0.75959141  0.56866980  1
  Te  Te179  1  0.93451134  0.74592261  0.90965353  1
