# generated using pymatgen
data_In2Te3
_symmetry_space_group_name_H-M   'P 1'
_cell_length_a   18.94490746
_cell_length_b   18.92640304
_cell_length_c   18.93883452
_cell_angle_alpha   89.96457896
_cell_angle_beta   90.04460912
_cell_angle_gamma   90.01364055
_symmetry_Int_Tables_number   1
_chemical_formula_structural   In2Te3
_chemical_formula_sum   'In72 Te108'
_cell_volume   6790.68515077
_cell_formula_units_Z   36
loop_
 _symmetry_equiv_pos_site_id
 _symmetry_equiv_pos_as_xyz
  1  'x, y, z'
loop_
 _atom_site_type_symbol
 _atom_site_label
 _atom_site_symmetry_multiplicity
 _atom_site_fract_x
 _atom_site_fract_y
 _atom_site_fract_z
 _atom_site_occupancy
  In  In0  1  0.01376068  0.15932996  0.17004575  1
  In  In1  1  -0.01970638  0.02087540  -0.01159139  1
  In  In2  1  0.32499808  0.84451215  0.84445754  1
  In  In3  1  0.66216805  -0.00145803  -0.01930636  1
  In  In4  1  0.50025240  0.02333985  0.83573263  1
  In  In5  1  0.15934644  0.33138958  0.83296130  1
  In  In6  1  0.82258871  0.19327062  0.00231136  1
  In  In7  1  0.48369705  0.81119800  0.31131209  1
  In  In8  1  0.82967303  0.52432825  -0.02522559  1
  In  In9  1  0.56529771  0.35306995  0.15349814  1
  In  In10  1  0.14522119  0.51431225  0.67992779  1
  In  In11  1  0.17592525  0.32550500  0.14863735  1
  In  In12  1  0.15303167  0.48009440  0.35007550  1
  In  In13  1  0.49442278  0.63259094  0.49124045  1
  In  In14  1  0.18947788  0.17779515  -0.03053548  1
  In  In15  1  0.30402173  0.83931075  0.49049857  1
  In  In16  1  0.72591113  0.35794680  0.67524866  1
  In  In17  1  0.33713967  0.64958244  0.29732102  1
  In  In18  1  -0.00079121  -0.00052792  0.32045769  1
  In  In19  1  0.51498137  0.00422348  0.18977741  1
  In  In20  1  -0.00399360  0.82585122  0.51358414  1
  In  In21  1  0.50997366  0.35588049  0.83539062  1
  In  In22  1  0.36712232  0.33657645  0.00456639  1
  In  In23  1  0.65752229  0.65610427  0.35075887  1
  In  In24  1  0.85091489  0.60449624  0.57731501  1
  In  In25  1  0.66605321  0.20485894  0.49628147  1
  In  In26  1  0.13013780  0.81774679  0.71008697  1
  In  In27  1  0.34575303  0.66472767  -0.00814130  1
  In  In28  1  0.06129543  0.35767609  0.58974025  1
  In  In29  1  0.53066844  0.33098017  0.50525632  1
  In  In30  1  0.29846436  0.80566878  0.13696933  1
  In  In31  1  0.85158980  0.01138689  0.16040957  1
  In  In32  1  0.34345296  0.16866406  0.50456724  1
  In  In33  1  0.86598234  0.80177110  -0.02210898  1
  In  In34  1  -0.00655391  0.64427281  0.33284835  1
  In  In35  1  0.65060509  0.01424115  0.35957248  1
  In  In36  1  0.83590455  0.02934871  0.53320163  1
  In  In37  1  0.16595604  0.51816022  -0.01607050  1
  In  In38  1  0.50256959  0.00128285  0.50385658  1
  In  In39  1  0.33409516  -0.00961087  0.36558572  1
  In  In40  1  0.68119865  0.80283114  0.50670704  1
  In  In41  1  0.33399145  0.31352999  0.34461648  1
  In  In42  1  0.32577782  0.47071237  0.50907845  1
  In  In43  1  0.34722954  0.23750070  0.79817462  1
  In  In44  1  0.18078271  -0.00713490  0.17329334  1
  In  In45  1  0.54011038  0.20845920  0.34434494  1
  In  In46  1  0.31907886  0.64872327  0.64418065  1
  In  In47  1  0.51153447  0.19569336  0.67630221  1
  In  In48  1  0.66800416  0.35104090  -0.03101166  1
  In  In49  1  0.14430618  0.00435225  0.52084088  1
  In  In50  1  0.84320529  0.84157595  0.32151814  1
  In  In51  1  0.80229311  0.35648500  0.18258815  1
  In  In52  1  0.65448984  0.83525193  0.82564355  1
  In  In53  1  0.14762655  0.64515480  0.49738691  1
  In  In54  1  0.83709147  0.64176395  0.18596481  1
  In  In55  1  0.70141609  0.82423254  0.15151673  1
  In  In56  1  0.80990908  0.49204938  0.34861277  1
  In  In57  1  0.36568805  0.49408077  0.16012968  1
  In  In58  1  0.48667664  0.84155496  0.64612680  1
  In  In59  1  0.38649150  0.14879674  0.17458503  1
  In  In60  1  0.83223838  0.87013641  0.67371500  1
  In  In61  1  -0.05000133  0.17093989  0.76144237  1
  In  In62  1  -0.01995857  0.36493923  0.00306237  1
  In  In63  1  0.69149997  0.61168060  0.71455705  1
  In  In64  1  0.35699633  -0.00814667  0.02677934  1
  In  In65  1  0.16318822  0.00849375  0.84565424  1
  In  In66  1  0.16255128  0.15753574  0.35281931  1
  In  In67  1  0.12287924  0.80268645  -0.03981435  1
  In  In68  1  -0.00676495  0.64886926  -0.02317568  1
  In  In69  1  -0.06068035  0.33792553  0.38095361  1
  In  In70  1  0.49773530  0.67161135  0.82846528  1
  In  In71  1  0.52924438  0.78629451  -0.00013276  1
  Te  Te72  1  0.10058295  0.08523099  0.06909819  1
  Te  Te73  1  0.05275603  0.08970041  0.43081344  1
  Te  Te74  1  0.09297964  0.11187218  0.76574491  1
  Te  Te75  1  0.08827341  0.43107612  0.08642490  1
  Te  Te76  1  0.05819415  0.41364542  0.44206770  1
  Te  Te77  1  0.06147005  0.39930432  0.74017369  1
  Te  Te78  1  0.07925147  0.72224328  0.07262665  1
  Te  Te79  1  0.07635763  0.74872716  0.41164209  1
  Te  Te80  1  0.05667091  0.70943403  0.77658390  1
  Te  Te81  1  0.46964327  0.08685106  0.06555667  1
  Te  Te82  1  0.43760201  0.10082183  0.39700296  1
  Te  Te83  1  0.41264666  0.10237306  0.74278258  1
  Te  Te84  1  0.46399036  0.43592593  0.06255729  1
  Te  Te85  1  0.42835746  0.40722955  0.41583002  1
  Te  Te86  1  0.38494593  0.37430399  0.75946116  1
  Te  Te87  1  0.42617237  0.73306284  0.10483122  1
  Te  Te88  1  0.40686817  0.74634930  0.42699587  1
  Te  Te89  1  0.39884607  0.75585369  0.73632041  1
  Te  Te90  1  0.74866738  0.08328817  0.07780481  1
  Te  Te91  1  0.75457967  0.10102286  0.42383531  1
  Te  Te92  1  0.80304783  0.00461833  0.74098129  1
  Te  Te93  1  0.74612728  0.43773567  0.07027533  1
  Te  Te94  1  0.81536093  0.38668287  0.45586167  1
  Te  Te95  1  0.75789976  0.48292236  0.76582942  1
  Te  Te96  1  0.77389297  0.72130459  0.07028927  1
  Te  Te97  1  0.77367000  0.73655996  0.40831153  1
  Te  Te98  1  0.73638647  0.75921665  0.72678376  1
  Te  Te99  1  0.09350844  0.25635099  0.25699583  1
  Te  Te100  1  0.01575345  0.21466694  0.57450758  1
  Te  Te101  1  0.06913663  0.25800436  0.93264746  1
  Te  Te102  1  0.09486025  0.57310310  0.25501530  1
  Te  Te103  1  0.05469301  0.60266901  0.60205424  1
  Te  Te104  1  0.07492450  0.57062640  0.87892738  1
  Te  Te105  1  0.07269349  0.91241589  0.22936713  1
  Te  Te106  1  0.06186360  0.91684296  0.61567358  1
  Te  Te107  1  0.04835900  0.91782165  0.89352309  1
  Te  Te108  1  0.44327550  0.27543938  0.23772460  1
  Te  Te109  1  0.41558204  0.27407063  0.58630740  1
  Te  Te110  1  0.44341410  0.24202746  0.91778841  1
  Te  Te111  1  0.45301944  0.56791609  0.25745929  1
  Te  Te112  1  0.42312691  0.54850449  0.59664625  1
  Te  Te113  1  0.40661609  0.57518615  0.89394398  1
  Te  Te114  1  0.39857985  0.91927500  0.24417638  1
  Te  Te115  1  0.38786431  0.93416000  0.57766371  1
  Te  Te116  1  0.43938202  0.89877420  0.92741173  1
  Te  Te117  1  0.73387489  0.26053479  0.26626500  1
  Te  Te118  1  0.76126646  0.22259659  0.61358766  1
  Te  Te119  1  0.78083570  0.28709423  0.89562976  1
  Te  Te120  1  0.71730073  0.56170951  0.23748251  1
  Te  Te121  1  0.70706655  0.56586836  0.56799091  1
  Te  Te122  1  0.76345705  0.60297014  0.86531290  1
  Te  Te123  1  0.74204916  0.93487528  0.25676218  1
  Te  Te124  1  0.72428725  0.92969451  0.57225078  1
  Te  Te125  1  0.75561858  0.89602754  0.92181733  1
  Te  Te126  1  0.27957111  0.23061385  0.08850726  1
  Te  Te127  1  0.23209113  0.25830309  0.44191065  1
  Te  Te128  1  0.21061710  0.22765624  0.73912812  1
  Te  Te129  1  0.26233535  0.57902578  0.08792888  1
  Te  Te130  1  0.26391118  0.58061820  0.42003786  1
  Te  Te131  1  0.25637933  0.57638931  0.75394008  1
  Te  Te132  1  0.22967949  0.90607985  0.04876122  1
  Te  Te133  1  0.20675955  0.92130781  0.40675283  1
  Te  Te134  1  0.23973504  0.92095861  0.74650553  1
  Te  Te135  1  0.60947736  0.25049647  0.06085940  1
  Te  Te136  1  0.64372934  0.31328630  0.38009575  1
  Te  Te137  1  0.61045150  0.28142790  0.74904761  1
  Te  Te138  1  0.56775502  0.65061938  0.04634390  1
  Te  Te139  1  0.60105465  0.54610244  0.43341941  1
  Te  Te140  1  0.55784127  0.55462151  0.75818096  1
  Te  Te141  1  0.58750128  0.90698785  0.09123314  1
  Te  Te142  1  0.56917715  0.89584705  0.41311027  1
  Te  Te143  1  0.57143236  0.92734164  0.73672273  1
  Te  Te144  1  0.91881539  0.25858337  0.10255785  1
  Te  Te145  1  0.89235482  0.24596406  0.49058631  1
  Te  Te146  1  0.86633894  0.29027281  0.71485222  1
  Te  Te147  1  0.92307533  0.56647716  0.08734780  1
  Te  Te148  1  0.90558832  0.57627103  0.43307775  1
  Te  Te149  1  0.90144959  0.54586002  0.70579031  1
  Te  Te150  1  0.92285142  0.90993227  0.07639339  1
  Te  Te151  1  0.90512621  0.92569151  0.43285745  1
  Te  Te152  1  0.92195139  0.92742174  0.78044803  1
  Te  Te153  1  0.26165887  0.09463644  0.25518769  1
  Te  Te154  1  0.24818046  0.08845427  0.58128306  1
  Te  Te155  1  0.28367980  0.07142932  0.91831004  1
  Te  Te156  1  0.26222213  0.41157152  0.25030699  1
  Te  Te157  1  0.21210602  0.41344125  0.58528114  1
  Te  Te158  1  0.25279880  0.40431686  0.93014853  1
  Te  Te159  1  0.24196389  0.75326297  0.26024815  1
  Te  Te160  1  0.22167056  0.75686803  0.58885352  1
  Te  Te161  1  0.24112222  0.73203049  0.89899762  1
  Te  Te162  1  0.60757192  0.11015686  0.24840581  1
  Te  Te163  1  0.58396877  0.10122316  0.57931624  1
  Te  Te164  1  0.62479135  0.09021406  0.87317939  1
  Te  Te165  1  0.59005483  0.46897332  0.23858012  1
  Te  Te166  1  0.61562000  0.41853784  0.58781519  1
  Te  Te167  1  0.59578475  0.46017808  0.89784286  1
  Te  Te168  1  0.60214053  0.74798120  0.24260902  1
  Te  Te169  1  0.56939657  0.73313105  0.58116589  1
  Te  Te170  1  0.62957410  0.70276635  0.91430153  1
  Te  Te171  1  0.90644006  0.10722844  0.26482610  1
  Te  Te172  1  0.93307930  0.08444812  0.63363214  1
  Te  Te173  1  0.90072971  0.11105730  0.89894924  1
  Te  Te174  1  0.91473347  0.42522820  0.25721338  1
  Te  Te175  1  0.92318447  0.41976614  0.62651195  1
  Te  Te176  1  0.89904020  0.41918139  0.89412844  1
  Te  Te177  1  0.92849448  0.75108530  0.23818913  1
  Te  Te178  1  0.89996969  0.75029889  0.59879847  1
  Te  Te179  1  0.92722884  0.72806689  0.86266340  1
