# generated using pymatgen
data_In2Te3
_symmetry_space_group_name_H-M   'P 1'
_cell_length_a   18.94448558
_cell_length_b   18.94706053
_cell_length_c   18.94200841
_cell_angle_alpha   89.74229425
_cell_angle_beta   90.01464456
_cell_angle_gamma   89.89830208
_symmetry_Int_Tables_number   1
_chemical_formula_structural   In2Te3
_chemical_formula_sum   'In72 Te108'
_cell_volume   6799.00862939
_cell_formula_units_Z   36
loop_
 _symmetry_equiv_pos_site_id
 _symmetry_equiv_pos_as_xyz
  1  'x, y, z'
loop_
 _atom_site_type_symbol
 _atom_site_label
 _atom_site_symmetry_multiplicity
 _atom_site_fract_x
 _atom_site_fract_y
 _atom_site_fract_z
 _atom_site_occupancy
  In  In0  1  0.84970524  0.36223524  0.20469753  1
  In  In1  1  0.17653874  0.83321330  0.33303991  1
  In  In2  1  0.30365939  0.82094010  0.50223770  1
  In  In3  1  0.87541038  0.52181615  0.00882689  1
  In  In4  1  0.82572928  -0.04095798  0.14637245  1
  In  In5  1  0.00285795  0.81573784  0.81237573  1
  In  In6  1  0.32864830  -0.00669252  0.66025639  1
  In  In7  1  0.31566558  0.16507041  0.51274730  1
  In  In8  1  0.49600912  0.00779268  0.51033027  1
  In  In9  1  0.16029642  -0.02564678  0.83406037  1
  In  In10  1  0.83040404  -0.00414659  0.84459914  1
  In  In11  1  -0.00700516  0.53652289  0.79746469  1
  In  In12  1  0.33612965  0.49016808  0.17625115  1
  In  In13  1  0.48098695  0.18458678  0.33752889  1
  In  In14  1  0.00316456  0.20139277  0.49925519  1
  In  In15  1  0.15288464  0.64209979  0.55366238  1
  In  In16  1  0.67657941  0.82277315  0.51630515  1
  In  In17  1  0.85250527  0.68308525  0.52610564  1
  In  In18  1  0.50173504  0.52655072  0.33795196  1
  In  In19  1  0.18241525  -0.01609046  0.16954067  1
  In  In20  1  0.66430939  0.65658655  0.01536677  1
  In  In21  1  0.31799895  0.68130045  -0.01856137  1
  In  In22  1  0.82662396  0.00587668  0.51586948  1
  In  In23  1  0.85578797  0.64909685  0.18136056  1
  In  In24  1  0.65774218  -0.00973693  0.33179774  1
  In  In25  1  0.50434442  0.68794411  0.49505489  1
  In  In26  1  0.49401239  -0.02497113  0.85251155  1
  In  In27  1  0.69128584  0.48616624  0.83369167  1
  In  In28  1  0.86219670  0.51290652  0.35410603  1
  In  In29  1  0.66193177  0.52368703  0.14725116  1
  In  In30  1  0.03353956  0.39648498  0.39282784  1
  In  In31  1  0.49122409  0.51318944  0.66981247  1
  In  In32  1  0.48781977  0.65873962  0.84980644  1
  In  In33  1  0.81079440  0.16251901  -0.01107550  1
  In  In34  1  0.34046459  -0.02671771  0.00300768  1
  In  In35  1  0.67844204  0.32601101  0.01345760  1
  In  In36  1  0.82993659  0.17387635  0.66341626  1
  In  In37  1  0.49138404  0.80680577  0.30934073  1
  In  In38  1  0.69013200  0.38398965  0.35617024  1
  In  In39  1  0.16457189  0.34599581  0.17918340  1
  In  In40  1  0.83235504  0.82851322  0.67601401  1
  In  In41  1  0.31857320  0.81981983  0.16841577  1
  In  In42  1  0.00741549  0.16244291  0.15673703  1
  In  In43  1  0.83929534  0.80842945  -0.01931570  1
  In  In44  1  0.29275048  0.53075872  0.81945181  1
  In  In45  1  0.86416924  0.18061430  0.33778038  1
  In  In46  1  0.81811155  0.84448244  0.33063834  1
  In  In47  1  0.32183044  0.34277968  -0.01044909  1
  In  In48  1  0.65251137  0.16502632  0.50294655  1
  In  In49  1  0.48775931  0.35052984  0.51208592  1
  In  In50  1  0.34876508  0.15341904  0.16016013  1
  In  In51  1  -0.01646224  0.31754769  -0.01758587  1
  In  In52  1  0.05988040  -0.05411874  0.65330107  1
  In  In53  1  -0.01702042  -0.00363823  0.34280758  1
  In  In54  1  0.67654110  0.34608860  0.66125702  1
  In  In55  1  0.33246593  0.17723587  0.79957290  1
  In  In56  1  0.02222004  0.76389125  0.12922697  1
  In  In57  1  0.16502364  0.15518103  -0.01771104  1
  In  In58  1  0.48610671  0.32701606  0.83789035  1
  In  In59  1  -0.01506999  0.15074639  0.81245072  1
  In  In60  1  0.34099284  0.52486622  0.49998546  1
  In  In61  1  0.48650579  -0.09988959  0.11135783  1
  In  In62  1  0.68148226  0.15700004  0.16994249  1
  In  In63  1  0.49570430  0.80942426  0.69670706  1
  In  In64  1  0.17345006  0.50211778  -0.01069662  1
  In  In65  1  0.16623259  0.19434177  0.34385410  1
  In  In66  1  0.50568299  0.30763425  0.18049820  1
  In  In67  1  0.04100134  0.66647550  0.33369806  1
  In  In68  1  0.52499533  0.52385286  0.02657768  1
  In  In69  1  -0.01432278  0.37398338  0.62196634  1
  In  In70  1  0.32777486  0.32963533  0.64496627  1
  In  In71  1  0.64433566  0.16889077  0.84569162  1
  Te  Te72  1  0.08713733  0.06479595  0.07602811  1
  Te  Te73  1  0.07181619  0.09469225  0.41366976  1
  Te  Te74  1  0.09179762  0.07231183  0.73835600  1
  Te  Te75  1  0.08482781  0.40061422  0.06200097  1
  Te  Te76  1  0.12222698  0.48267159  0.47474976  1
  Te  Te77  1  0.07588270  0.42889310  0.72912667  1
  Te  Te78  1  0.09006182  0.72568505  0.00078378  1
  Te  Te79  1  0.08683823  0.76911216  0.43711165  1
  Te  Te80  1  0.13657845  0.77105557  0.75720210  1
  Te  Te81  1  0.43468321  0.05301222  0.08941844  1
  Te  Te82  1  0.40382829  0.08099357  0.41523294  1
  Te  Te83  1  0.42454467  0.07203299  0.74658533  1
  Te  Te84  1  0.42771019  0.40199004  0.08479504  1
  Te  Te85  1  0.41086089  0.42468274  0.40598715  1
  Te  Te86  1  0.40127144  0.42099928  0.75178213  1
  Te  Te87  1  0.41205817  0.77022640  0.06018886  1
  Te  Te88  1  0.39433736  0.74188998  0.40396898  1
  Te  Te89  1  0.39251423  0.72553053  0.76070790  1
  Te  Te90  1  0.73609987  0.05731876  0.06964176  1
  Te  Te91  1  0.75354191  0.08533579  0.40295899  1
  Te  Te92  1  0.74649587  0.09245585  0.76054339  1
  Te  Te93  1  0.76954759  0.42826036  0.08071504  1
  Te  Te94  1  0.77615808  0.44917793  0.46149060  1
  Te  Te95  1  0.77715206  0.43459730  0.72499579  1
  Te  Te96  1  0.76645918  0.73596888  0.09486075  1
  Te  Te97  1  0.75328361  0.73800583  0.41716916  1
  Te  Te98  1  0.75787072  0.72415797  0.74911648  1
  Te  Te99  1  0.06054667  0.26158573  0.25674596  1
  Te  Te100  1  0.09262455  0.27745009  0.58541340  1
  Te  Te101  1  0.08033758  0.24255509  0.89302642  1
  Te  Te102  1  0.07223306  0.56141086  0.23570743  1
  Te  Te103  1  0.06681831  0.58338223  0.66516729  1
  Te  Te104  1  0.08891499  0.59465602  0.90540297  1
  Te  Te105  1  0.07278866  0.91691694  0.25170310  1
  Te  Te106  1  0.12858916  0.89508203  0.53185649  1
  Te  Te107  1  0.05177074  0.91425333  0.91076732  1
  Te  Te108  1  0.38134908  0.26719734  0.25714912  1
  Te  Te109  1  0.43165347  0.23367082  0.58803902  1
  Te  Te110  1  0.40607788  0.23361122  0.92570735  1
  Te  Te111  1  0.40201229  0.59488890  0.25586854  1
  Te  Te112  1  0.41149993  0.61755850  0.59552264  1
  Te  Te113  1  0.40443887  0.55765936  0.93275371  1
  Te  Te114  1  0.40821510  0.91561974  0.24555339  1
  Te  Te115  1  0.42134981  0.89274094  0.57852360  1
  Te  Te116  1  0.39103708  0.88088677  0.90178512  1
  Te  Te117  1  0.74800280  0.25954016  0.26130254  1
  Te  Te118  1  0.75475887  0.25929655  0.56239543  1
  Te  Te119  1  0.75658088  0.26895968  0.89712928  1
  Te  Te120  1  0.75517416  0.56971417  0.26144174  1
  Te  Te121  1  0.78134586  0.60356511  0.63385678  1
  Te  Te122  1  0.76224000  0.58353238  0.92548511  1
  Te  Te123  1  0.71262921  0.89654724  0.22728493  1
  Te  Te124  1  0.73374551  0.93006099  0.60618005  1
  Te  Te125  1  0.74236011  0.90218237  0.91778815  1
  Te  Te126  1  0.24046418  0.24249492  0.08279648  1
  Te  Te127  1  0.24816621  0.27174736  0.43517917  1
  Te  Te128  1  0.23164891  0.24805139  0.72108291  1
  Te  Te129  1  0.25613571  0.58584332  0.08333444  1
  Te  Te130  1  0.22940012  0.60081540  0.43235143  1
  Te  Te131  1  0.22001508  0.55974836  0.69458137  1
  Te  Te132  1  0.22808235  0.89054306  0.06211878  1
  Te  Te133  1  0.24521735  0.93296231  0.42120064  1
  Te  Te134  1  0.24969997  0.89587181  0.74314258  1
  Te  Te135  1  0.58152336  0.22788857  0.07623729  1
  Te  Te136  1  0.58364331  0.26894850  0.41238946  1
  Te  Te137  1  0.57789697  0.25837719  0.74017370  1
  Te  Te138  1  0.55331360  0.63473392  0.13353350  1
  Te  Te139  1  0.59465231  0.59496489  0.42591814  1
  Te  Te140  1  0.58719033  0.57708258  0.76808535  1
  Te  Te141  1  0.59898930  0.86866789  0.02339813  1
  Te  Te142  1  0.57725619  0.90064181  0.42277166  1
  Te  Te143  1  0.58620940  0.89969197  0.76538296  1
  Te  Te144  1  0.89894765  0.24888124  0.09182520  1
  Te  Te145  1  0.91660246  0.29596576  0.41807662  1
  Te  Te146  1  0.92713435  0.26440000  0.73136135  1
  Te  Te147  1  0.96970429  0.59034996  0.10241636  1
  Te  Te148  1  0.95000437  0.60236856  0.43733640  1
  Te  Te149  1  0.88268246  0.63388958  0.74579839  1
  Te  Te150  1  0.93486114  0.88306503  0.07843654  1
  Te  Te151  1  0.90891898  0.90480599  0.43872295  1
  Te  Te152  1  0.92529079  0.93891457  0.73919088  1
  Te  Te153  1  0.24148329  0.09544437  0.25139657  1
  Te  Te154  1  0.22959468  0.06938343  0.58282047  1
  Te  Te155  1  0.26490311  0.07283044  0.90425192  1
  Te  Te156  1  0.22152835  0.45081795  0.26294722  1
  Te  Te157  1  0.24483514  0.42413910  0.56095778  1
  Te  Te158  1  0.23121792  0.40416208  0.88620173  1
  Te  Te159  1  0.21488691  0.73596290  0.22971731  1
  Te  Te160  1  0.23419481  0.75220623  0.61556036  1
  Te  Te161  1  0.20504053  0.72777848  0.89204349  1
  Te  Te162  1  0.57355978  0.09143518  0.25584472  1
  Te  Te163  1  0.59321356  0.07222919  0.59820708  1
  Te  Te164  1  0.57605884  0.07153285  0.92948352  1
  Te  Te165  1  0.59115364  0.41827518  0.23826541  1
  Te  Te166  1  0.58846960  0.44194293  0.57831020  1
  Te  Te167  1  0.58005889  0.41112461  0.92590463  1
  Te  Te168  1  0.59708393  0.74155274  0.23751230  1
  Te  Te169  1  0.59741905  0.73289722  0.60733481  1
  Te  Te170  1  0.58156396  0.74739819  0.92771241  1
  Te  Te171  1  0.89926973  0.06739842  0.23085218  1
  Te  Te172  1  0.92990098  0.09375621  0.58071140  1
  Te  Te173  1  0.92321080  0.07926101  0.93315919  1
  Te  Te174  1  0.96712473  0.44669033  0.25568938  1
  Te  Te175  1  0.88390668  0.47102538  0.57537241  1
  Te  Te176  1  0.92938443  0.43283876  0.90015252  1
  Te  Te177  1  0.92767418  0.75685243  0.26653356  1
  Te  Te178  1  0.94496989  0.76473711  0.60606620  1
  Te  Te179  1  0.93670952  0.72165261  0.90984242  1
