# generated using pymatgen
data_In2Te3
_symmetry_space_group_name_H-M   'P 1'
_cell_length_a   18.91088007
_cell_length_b   18.90414969
_cell_length_c   18.89438836
_cell_angle_alpha   90.02652534
_cell_angle_beta   89.86900916
_cell_angle_gamma   89.93093251
_symmetry_Int_Tables_number   1
_chemical_formula_structural   In2Te3
_chemical_formula_sum   'In72 Te108'
_cell_volume   6754.60921207
_cell_formula_units_Z   36
loop_
 _symmetry_equiv_pos_site_id
 _symmetry_equiv_pos_as_xyz
  1  'x, y, z'
loop_
 _atom_site_type_symbol
 _atom_site_label
 _atom_site_symmetry_multiplicity
 _atom_site_fract_x
 _atom_site_fract_y
 _atom_site_fract_z
 _atom_site_occupancy
  In  In0  1  0.67580418  0.47069336  0.81322365  1
  In  In1  1  0.50250047  -0.00537770  0.51370901  1
  In  In2  1  0.32362519  0.65634513  0.68991313  1
  In  In3  1  0.65509568  0.50116027  0.51965787  1
  In  In4  1  0.17761445  0.86182150  0.62463966  1
  In  In5  1  0.00927902  0.16946775  0.51352086  1
  In  In6  1  0.66192879  0.31741491  0.32475130  1
  In  In7  1  0.11698961  0.21351103  -0.03402950  1
  In  In8  1  0.00219776  0.35971176  0.35878583  1
  In  In9  1  0.46851296  0.53047351  0.31745204  1
  In  In10  1  0.33678265  0.16573104  0.83733011  1
  In  In11  1  0.37380451  0.78377228  0.17679360  1
  In  In12  1  0.48714447  0.16024661  0.67902717  1
  In  In13  1  0.64780876  0.36637975  0.00212404  1
  In  In14  1  0.01485073  0.85291696  0.49962397  1
  In  In15  1  0.19076253  0.66487165  0.83774090  1
  In  In16  1  0.33364372  -0.01642556  -0.02632505  1
  In  In17  1  0.74047438  0.78957003  0.32293754  1
  In  In18  1  0.84721030  0.50698311  0.36732698  1
  In  In19  1  0.33747493  0.35305397  0.67205315  1
  In  In20  1  0.15286440  0.18868421  0.67785460  1
  In  In21  1  0.19442755  0.66834971  0.15470719  1
  In  In22  1  0.48506482  0.32272738  0.14598247  1
  In  In23  1  0.83652024  0.82955558  0.01644607  1
  In  In24  1  -0.03631456  0.64979259  0.35993326  1
  In  In25  1  0.35995770  0.81947155  0.83398067  1
  In  In26  1  0.81534755  0.64624517  0.15827223  1
  In  In27  1  0.84228112  0.65531425  0.83302822  1
  In  In28  1  -0.01088132  0.00677940  0.33586047  1
  In  In29  1  0.17239685  0.83901099  -0.02567606  1
  In  In30  1  0.85967822  0.01228641  0.50247491  1
  In  In31  1  0.00473036  0.85070731  0.82495559  1
  In  In32  1  0.00442509  0.65850009  0.68639391  1
  In  In33  1  0.52284997  0.68119669  0.49791889  1
  In  In34  1  0.65343135  0.50416593  0.16933912  1
  In  In35  1  0.50171772  -0.00565573  0.16610425  1
  In  In36  1  0.65706383  -0.02384026  0.31094028  1
  In  In37  1  0.17625102  0.49885321  0.32705700  1
  In  In38  1  -0.02222069  0.18920830  0.16537203  1
  In  In39  1  0.31822271  0.16752391  0.50000537  1
  In  In40  1  0.84986082  0.34928587  0.52757392  1
  In  In41  1  0.16398725  0.51148445  -0.01805533  1
  In  In42  1  -0.02716249  0.85115339  0.16416020  1
  In  In43  1  0.18252616  0.15629095  0.34040550  1
  In  In44  1  0.31597995  0.16505964  0.17252259  1
  In  In45  1  0.52028987  0.13309905  0.34897161  1
  In  In46  1  -0.01079348  0.50199849  0.16940505  1
  In  In47  1  0.51016195  0.80347398  0.32782248  1
  In  In48  1  0.34066839  0.32813616  0.35048545  1
  In  In49  1  -0.03695375  0.45014593  0.80419002  1
  In  In50  1  0.82897580  0.01378277  0.84886394  1
  In  In51  1  0.16952721  0.66067998  0.50311310  1
  In  In52  1  0.65455948  0.18043424  0.81463775  1
  In  In53  1  0.66826638  0.63096169  -0.01259201  1
  In  In54  1  0.67247893  -0.00118197  0.00796991  1
  In  In55  1  0.16001255  0.02245522  0.81245743  1
  In  In56  1  0.69801751  0.18549930  0.50479180  1
  In  In57  1  0.84719732  0.18566286  -0.02512751  1
  In  In58  1  0.14719528  0.00553239  0.15832657  1
  In  In59  1  0.32721821  0.50642244  0.49829490  1
  In  In60  1  0.82153341  0.17002449  0.31826687  1
  In  In61  1  0.68174353  -0.00325347  0.67927115  1
  In  In62  1  0.33047320  0.34669698  -0.01425448  1
  In  In63  1  0.19595879  0.85639433  0.37563955  1
  In  In64  1  0.34329858  -0.00990889  0.65546302  1
  In  In65  1  0.64619471  0.82521681  0.81115488  1
  In  In66  1  0.02156203  0.64819425  0.00925750  1
  In  In67  1  0.50296114  0.49118914  0.67522378  1
  In  In68  1  0.51657066  0.14742238  -0.01846260  1
  In  In69  1  0.82584464  0.82956573  0.65627742  1
  In  In70  1  0.49388437  0.61764301  0.84901087  1
  In  In71  1  0.16363878  0.34872644  0.17966660  1
  Te  Te72  1  0.07631209  0.11192475  0.07809713  1
  Te  Te73  1  0.08981240  0.07257545  0.42754961  1
  Te  Te74  1  0.05414168  0.11258615  0.75975062  1
  Te  Te75  1  0.08066020  0.42209949  0.07777986  1
  Te  Te76  1  0.08514595  0.45312759  0.43273624  1
  Te  Te77  1  0.06849839  0.40421102  0.70697296  1
  Te  Te78  1  0.08506695  0.76424938  0.08322521  1
  Te  Te79  1  0.08066570  0.74448458  0.40850607  1
  Te  Te80  1  0.10592561  0.76198249  0.75388741  1
  Te  Te81  1  0.40619078  0.08756391  0.07619419  1
  Te  Te82  1  0.40406948  0.06733483  0.42260778  1
  Te  Te83  1  0.41957295  0.05875133  0.76926903  1
  Te  Te84  1  0.41367119  0.42866756  0.07584782  1
  Te  Te85  1  0.43156406  0.42255008  0.42463376  1
  Te  Te86  1  0.40210827  0.44166130  0.77185203  1
  Te  Te87  1  0.46750087  0.70702971  0.09095973  1
  Te  Te88  1  0.41389761  0.74607871  0.42334256  1
  Te  Te89  1  0.44282574  0.72738641  0.74807815  1
  Te  Te90  1  0.77610007  0.08599675  0.06080958  1
  Te  Te91  1  0.74271113  0.07384376  0.40881383  1
  Te  Te92  1  0.76635752  0.10550040  0.74313416  1
  Te  Te93  1  0.74696925  0.41689973  0.09798025  1
  Te  Te94  1  0.74462705  0.40143065  0.42240109  1
  Te  Te95  1  0.76537770  0.38044546  0.73562297  1
  Te  Te96  1  0.72955009  0.74059904  0.07713649  1
  Te  Te97  1  0.75363015  0.71931097  0.45384297  1
  Te  Te98  1  0.74749365  0.73252543  0.74262222  1
  Te  Te99  1  0.08290665  0.24703151  0.26611916  1
  Te  Te100  1  0.07584107  0.28104403  0.58724555  1
  Te  Te101  1  0.04326001  0.30964110  0.87732532  1
  Te  Te102  1  0.08795808  0.59142485  0.24129627  1
  Te  Te103  1  0.11228256  0.58590974  0.61652407  1
  Te  Te104  1  0.06539570  0.57956409  0.88238200  1
  Te  Te105  1  0.08203676  0.91024808  0.26047403  1
  Te  Te106  1  0.05752496  0.94354560  0.60658850  1
  Te  Te107  1  0.07928554  0.94389109  0.91907072  1
  Te  Te108  1  0.42021877  0.22717047  0.26567069  1
  Te  Te109  1  0.41205098  0.25098143  0.58178958  1
  Te  Te110  1  0.43307024  0.25412132  0.91341521  1
  Te  Te111  1  0.42192129  0.64388526  0.23071861  1
  Te  Te112  1  0.42400208  0.58808273  0.58438567  1
  Te  Te113  1  0.37486643  0.60875367  0.93640947  1
  Te  Te114  1  0.41854806  0.90728527  0.25565000  1
  Te  Te115  1  0.43914243  0.89177800  0.59977214  1
  Te  Te116  1  0.44148147  0.89373107  0.93264315  1
  Te  Te117  1  0.75196539  0.25917233  0.22501815  1
  Te  Te118  1  0.75098638  0.27462586  0.61256937  1
  Te  Te119  1  0.72582631  0.26207648  0.91901928  1
  Te  Te120  1  0.74701869  0.57136997  0.27043711  1
  Te  Te121  1  0.75963802  0.59917606  0.55404894  1
  Te  Te122  1  0.76811660  0.54780185  0.90995724  1
  Te  Te123  1  0.76105164  0.90615242  0.23583674  1
  Te  Te124  1  0.75045396  0.92435104  0.56466413  1
  Te  Te125  1  0.75173438  0.88994800  0.90170583  1
  Te  Te126  1  0.23797478  0.25749043  0.08137165  1
  Te  Te127  1  0.22684306  0.26947350  0.43174552  1
  Te  Te128  1  0.24946963  0.26519731  0.76489306  1
  Te  Te129  1  0.26815151  0.57065022  0.07220198  1
  Te  Te130  1  0.26412225  0.60091453  0.39708976  1
  Te  Te131  1  0.24903508  0.55112428  0.76130313  1
  Te  Te132  1  0.24819405  0.91776223  0.08161534  1
  Te  Te133  1  0.23800616  0.92358746  0.49744539  1
  Te  Te134  1  0.25749587  0.91060785  0.76489681  1
  Te  Te135  1  0.58908409  0.23888894  0.07768282  1
  Te  Te136  1  0.57804460  0.24628043  0.43103761  1
  Te  Te137  1  0.56285521  0.26983559  0.74148151  1
  Te  Te138  1  0.56023189  0.57991555  0.07959108  1
  Te  Te139  1  0.58270148  0.57603495  0.40401208  1
  Te  Te140  1  0.60363178  0.58286618  0.74066424  1
  Te  Te141  1  0.57791161  0.90814602  0.07521144  1
  Te  Te142  1  0.58299675  0.90410080  0.42106233  1
  Te  Te143  1  0.56848131  0.90886443  0.71699135  1
  Te  Te144  1  0.91747672  0.28255664  0.06827974  1
  Te  Te145  1  0.90977914  0.24562199  0.41717252  1
  Te  Te146  1  0.89229004  0.31090447  0.79132146  1
  Te  Te147  1  0.90435302  0.56769937  0.06130567  1
  Te  Te148  1  0.91936780  0.57314056  0.47915051  1
  Te  Te149  1  0.89069116  0.56431986  0.72253705  1
  Te  Te150  1  0.92315335  0.93986696  0.05955400  1
  Te  Te151  1  0.90582159  0.90091898  0.40546640  1
  Te  Te152  1  0.90405546  0.92790645  0.74365452  1
  Te  Te153  1  0.25650421  0.05349090  0.25687448  1
  Te  Te154  1  0.23711634  0.08842098  0.60050056  1
  Te  Te155  1  0.23534717  0.09785309  0.92827030  1
  Te  Te156  1  0.28040556  0.42055368  0.24551529  1
  Te  Te157  1  0.24364078  0.41810828  0.57912962  1
  Te  Te158  1  0.23395278  0.41318846  0.89644900  1
  Te  Te159  1  0.24429872  0.76848278  0.25688490  1
  Te  Te160  1  0.26749664  0.74652947  0.58178366  1
  Te  Te161  1  0.28302923  0.73419692  0.94571584  1
  Te  Te162  1  0.60190760  0.09141043  0.22823644  1
  Te  Te163  1  0.59557970  0.09450194  0.58501245  1
  Te  Te164  1  0.59665663  0.05843817  0.89023193  1
  Te  Te165  1  0.55613754  0.41009695  0.25228286  1
  Te  Te166  1  0.58493122  0.39656278  0.59584249  1
  Te  Te167  1  0.56494431  0.44670261  0.91004306  1
  Te  Te168  1  0.62118601  0.74111487  0.25467213  1
  Te  Te169  1  0.64318014  0.73735365  0.56084258  1
  Te  Te170  1  0.58137202  0.72892450  0.90930929  1
  Te  Te171  1  0.90291732  0.07374387  0.23141582  1
  Te  Te172  1  0.90072019  0.11543981  0.59734893  1
  Te  Te173  1  0.93913219  0.10597152  0.88725132  1
  Te  Te174  1  0.90469938  0.41164153  0.25621811  1
  Te  Te175  1  0.95666427  0.41605255  0.60459995  1
  Te  Te176  1  0.91690662  0.38330241  0.93242613  1
  Te  Te177  1  0.91482627  0.72994865  0.23771484  1
  Te  Te178  1  0.93712311  0.75360880  0.58703264  1
  Te  Te179  1  0.93107748  0.74995149  0.91599376  1
