# generated using pymatgen
data_In2Te3
_symmetry_space_group_name_H-M   'P 1'
_cell_length_a   18.86169910
_cell_length_b   18.85788294
_cell_length_c   18.86815064
_cell_angle_alpha   89.99513980
_cell_angle_beta   90.03787341
_cell_angle_gamma   89.84264139
_symmetry_Int_Tables_number   1
_chemical_formula_structural   In2Te3
_chemical_formula_sum   'In72 Te108'
_cell_volume   6711.21803405
_cell_formula_units_Z   36
loop_
 _symmetry_equiv_pos_site_id
 _symmetry_equiv_pos_as_xyz
  1  'x, y, z'
loop_
 _atom_site_type_symbol
 _atom_site_label
 _atom_site_symmetry_multiplicity
 _atom_site_fract_x
 _atom_site_fract_y
 _atom_site_fract_z
 _atom_site_occupancy
  In  In0  1  0.69856951  0.50287202  0.18220890  1
  In  In1  1  0.18670496  0.17216461  -0.00286884  1
  In  In2  1  0.02178953  0.82720721  0.85234489  1
  In  In3  1  0.32990324  0.85237353  0.15882033  1
  In  In4  1  0.47607284  0.17083250  0.32513432  1
  In  In5  1  0.68851330  0.68770727  0.67864663  1
  In  In6  1  0.15001822  0.69183823  0.12557372  1
  In  In7  1  0.34229559  0.50142714  0.49541602  1
  In  In8  1  0.81098067  0.32027516  0.85363629  1
  In  In9  1  0.02009533  -0.00281889  -0.01866640  1
  In  In10  1  0.19264191  0.19237217  0.69925399  1
  In  In11  1  0.01435172  0.35234054  0.68273283  1
  In  In12  1  0.46055327  0.80802842  0.68749288  1
  In  In13  1  0.79968586  0.16594594  0.68836928  1
  In  In14  1  0.49729604  -0.00342495  0.52774729  1
  In  In15  1  0.50619066  0.83858071  -0.02658347  1
  In  In16  1  0.01587572  0.14131685  0.48099198  1
  In  In17  1  0.47721235  0.33397982  0.50972091  1
  In  In18  1  0.87241604  -0.01242318  0.16543402  1
  In  In19  1  0.49511574  0.67445124  0.49881646  1
  In  In20  1  0.01978924  0.00663841  0.31314648  1
  In  In21  1  0.48782768  0.81744858  0.32563467  1
  In  In22  1  0.83666333  0.81296687  0.33595496  1
  In  In23  1  0.84247581  0.49557632  0.01218891  1
  In  In24  1  0.81571411  -0.00068265  0.51776676  1
  In  In25  1  0.82907745  0.67606859  0.49816767  1
  In  In26  1  0.47805369  0.50418898  0.67458207  1
  In  In27  1  0.33580638  0.16306555  0.51895411  1
  In  In28  1  0.64490606  0.30476773  -0.02344816  1
  In  In29  1  0.03570247  0.50794736  0.83784327  1
  In  In30  1  0.83160192  0.85133494  0.67438087  1
  In  In31  1  0.00729833  0.67357324  0.33036644  1
  In  In32  1  0.66279797  0.84735412  0.15397337  1
  In  In33  1  0.00103829  0.15639932  0.84193903  1
  In  In34  1  0.16485357  0.16707786  0.30276642  1
  In  In35  1  0.66970078  0.69402796  0.00543742  1
  In  In36  1  0.51920760  0.64643143  0.15512216  1
  In  In37  1  0.01118955  0.50075575  0.16071391  1
  In  In38  1  0.30148268  0.47869680  0.18494896  1
  In  In39  1  0.81587687  0.32683916  0.50599619  1
  In  In40  1  0.34335803  0.31002575  -0.03191358  1
  In  In41  1  0.81245360  0.50968851  0.32380361  1
  In  In42  1  0.02899142  0.49144832  0.50473162  1
  In  In43  1  0.67184303  0.15572781  0.12306593  1
  In  In44  1  0.33035911  0.68146359  -0.00970824  1
  In  In45  1  0.65028877  0.49869067  0.84870229  1
  In  In46  1  0.34118236  0.65885891  0.34804547  1
  In  In47  1  0.65541591  0.32114806  0.33726883  1
  In  In48  1  0.64873705  -0.00305442  0.34414043  1
  In  In49  1  0.48860168  -0.00538273  0.16019161  1
  In  In50  1  0.61004032  0.31223652  0.68403533  1
  In  In51  1  0.34903086  0.01777073  0.70528908  1
  In  In52  1  0.50403411  0.31386264  0.16599273  1
  In  In53  1  0.33047682  -0.00344946  -0.01599704  1
  In  In54  1  0.85859240  0.33389537  0.15145944  1
  In  In55  1  0.81463712  0.13969650  0.31860854  1
  In  In56  1  0.16230528  0.33585059  0.49906479  1
  In  In57  1  0.33039451  0.49568281  0.84247065  1
  In  In58  1  0.18380312  0.51895614  0.65763392  1
  In  In59  1  0.85916279  0.67363720  0.82130542  1
  In  In60  1  0.49683062  0.49853777  0.37053494  1
  In  In61  1  0.19026743  0.83833577  0.33605951  1
  In  In62  1  0.82595441  0.50783214  0.69329606  1
  In  In63  1  0.15738625  0.68097979  0.85660782  1
  In  In64  1  0.48191516  0.49773297  -0.01570305  1
  In  In65  1  0.64051077  0.01261630  0.69989848  1
  In  In66  1  0.00877722  0.32471156  0.00026581  1
  In  In67  1  -0.00268967  0.84523147  0.49274262  1
  In  In68  1  0.01965883  0.31427865  0.34605666  1
  In  In69  1  0.16234427  0.00315050  0.16271572  1
  In  In70  1  0.00332679  -0.01586301  0.66526412  1
  In  In71  1  0.20983758  0.81196297  0.66195718  1
  Te  Te72  1  0.08124558  0.09970072  0.07850667  1
  Te  Te73  1  0.12359515  0.04781159  0.41901886  1
  Te  Te74  1  0.08931034  0.08388884  0.74223364  1
  Te  Te75  1  0.09575270  0.40442226  0.08842782  1
  Te  Te76  1  0.11061677  0.43542880  0.38519001  1
  Te  Te77  1  0.12672091  0.41465678  0.75911258  1
  Te  Te78  1  0.05604510  0.76885419  0.04084307  1
  Te  Te79  1  0.09712318  0.75326152  0.42332504  1
  Te  Te80  1  0.08834684  0.75156102  0.73881346  1
  Te  Te81  1  0.40132943  0.08262739  0.08145999  1
  Te  Te82  1  0.41261690  0.07325765  0.42239572  1
  Te  Te83  1  0.44765574  0.12610953  0.74365951  1
  Te  Te84  1  0.41355129  0.41761861  0.09215716  1
  Te  Te85  1  0.39251156  0.39374740  0.39739050  1
  Te  Te86  1  0.40371191  0.40040253  0.75278115  1
  Te  Te87  1  0.43488817  0.75657521  0.09045997  1
  Te  Te88  1  0.39187524  0.77191865  0.43565707  1
  Te  Te89  1  0.39580078  0.72227856  0.78776162  1
  Te  Te90  1  0.76391147  0.04846784  0.08311601  1
  Te  Te91  1  0.72694802  0.09284631  0.43409883  1
  Te  Te92  1  0.77321855  0.04548947  0.77062967  1
  Te  Te93  1  0.73600777  0.39316995  0.06813134  1
  Te  Te94  1  0.73130064  0.42200022  0.42207768  1
  Te  Te95  1  0.72972252  0.40051286  0.74728999  1
  Te  Te96  1  0.76277924  0.79213994  0.05944871  1
  Te  Te97  1  0.73850939  0.77348188  0.43564804  1
  Te  Te98  1  0.75370821  0.77737535  0.78390089  1
  Te  Te99  1  0.08791119  0.26691477  0.22343222  1
  Te  Te100  1  0.07597666  0.24521241  0.58641965  1
  Te  Te101  1  0.09941633  0.25629575  0.89975534  1
  Te  Te102  1  0.10077751  0.59816698  0.23645760  1
  Te  Te103  1  0.08517038  0.60029679  0.58423749  1
  Te  Te104  1  0.08639358  0.58826182  0.94930229  1
  Te  Te105  1  0.08631188  0.89293103  0.23846152  1
  Te  Te106  1  0.10232723  0.90462271  0.58466872  1
  Te  Te107  1  0.11617333  0.93548062  0.88696952  1
  Te  Te108  1  0.39007112  0.25146453  0.23649261  1
  Te  Te109  1  0.41781034  0.24399381  0.61273622  1
  Te  Te110  1  0.37798556  0.18998674  0.87706431  1
  Te  Te111  1  0.42188515  0.57322156  0.24704375  1
  Te  Te112  1  0.39101881  0.61015696  0.59804901  1
  Te  Te113  1  0.43453999  0.61430306  0.89568811  1
  Te  Te114  1  0.40236169  0.92950764  0.26760779  1
  Te  Te115  1  0.39294088  0.91407005  0.59915656  1
  Te  Te116  1  0.43505568  0.94075129  0.89141397  1
  Te  Te117  1  0.74659702  0.25186962  0.23614632  1
  Te  Te118  1  0.71838905  0.24845119  0.59128495  1
  Te  Te119  1  0.73618101  0.20403982  0.90986811  1
  Te  Te120  1  0.76266543  0.62178942  0.24099261  1
  Te  Te121  1  0.74642914  0.57964095  0.58604529  1
  Te  Te122  1  0.76504598  0.58070834  0.90618061  1
  Te  Te123  1  0.75205508  0.92652467  0.25630241  1
  Te  Te124  1  0.71927129  0.91744386  0.59763863  1
  Te  Te125  1  0.66275162  0.96533701  0.85805172  1
  Te  Te126  1  0.27812377  0.24814506  0.08588787  1
  Te  Te127  1  0.24078720  0.23333279  0.41998730  1
  Te  Te128  1  0.29062001  0.27304120  0.77430253  1
  Te  Te129  1  0.25646190  0.58848818  0.08290187  1
  Te  Te130  1  0.24173801  0.58997345  0.43154497  1
  Te  Te131  1  0.25426685  0.60110922  0.76516655  1
  Te  Te132  1  0.23036745  0.90835046  0.06215273  1
  Te  Te133  1  0.24257674  0.94904217  0.41349738  1
  Te  Te134  1  0.26397624  0.90740785  0.76193463  1
  Te  Te135  1  0.54688331  0.21797217  0.05539078  1
  Te  Te136  1  0.56677748  0.23973823  0.42689190  1
  Te  Te137  1  0.58595909  0.19987059  0.78326429  1
  Te  Te138  1  0.60228254  0.56025619  0.06029406  1
  Te  Te139  1  0.59051524  0.60127456  0.41320412  1
  Te  Te140  1  0.58878061  0.58590553  0.74171492  1
  Te  Te141  1  0.58675356  0.93860465  0.05897520  1
  Te  Te142  1  0.56785301  0.90177242  0.42668409  1
  Te  Te143  1  0.54672260  0.90895540  0.76371620  1
  Te  Te144  1  0.90192706  0.23680148  0.05078182  1
  Te  Te145  1  0.90065016  0.23615753  0.41620293  1
  Te  Te146  1  0.91339421  0.25778020  0.74704859  1
  Te  Te147  1  0.90166152  0.58706505  0.11037622  1
  Te  Te148  1  0.92103930  0.57750899  0.41914580  1
  Te  Te149  1  0.94887911  0.58445384  0.73579985  1
  Te  Te150  1  0.95776305  0.89964410  0.07852925  1
  Te  Te151  1  0.91276150  0.94436377  0.41141993  1
  Te  Te152  1  0.92266947  0.91905411  0.77576350  1
  Te  Te153  1  0.26370092  0.08145119  0.23533677  1
  Te  Te154  1  0.24452150  0.08177092  0.60860682  1
  Te  Te155  1  0.25281232  0.08800500  0.89101255  1
  Te  Te156  1  0.21492933  0.40135513  0.27187920  1
  Te  Te157  1  0.26163195  0.40760318  0.58664549  1
  Te  Te158  1  0.25357736  0.42528470  0.94522593  1
  Te  Te159  1  0.26350581  0.73837419  0.23510709  1
  Te  Te160  1  0.27479934  0.71468238  0.57203174  1
  Te  Te161  1  0.25496515  0.78011683  0.91141408  1
  Te  Te162  1  0.58673987  0.09432317  0.24249064  1
  Te  Te163  1  0.57567174  0.09960716  0.59694209  1
  Te  Te164  1  0.60686462  0.09965216  0.90170461  1
  Te  Te165  1  0.58005159  0.42163448  0.24776921  1
  Te  Te166  1  0.57350782  0.42536007  0.58291647  1
  Te  Te167  1  0.54983186  0.39303426  0.89524602  1
  Te  Te168  1  0.59445043  0.74477493  0.24450346  1
  Te  Te169  1  0.57700064  0.75611181  0.59935020  1
  Te  Te170  1  0.58318557  0.73800221  0.89577611  1
  Te  Te171  1  0.93647995  0.10935728  0.23573680  1
  Te  Te172  1  0.91009535  0.09223955  0.59434696  1
  Te  Te173  1  0.90967343  0.08484012  0.93100699  1
  Te  Te174  1  0.91780096  0.41108848  0.26907600  1
  Te  Te175  1  0.91136112  0.41866599  0.58280442  1
  Te  Te176  1  0.91757290  0.42248441  0.89970581  1
  Te  Te177  1  0.93541820  0.76613118  0.23993554  1
  Te  Te178  1  0.91815701  0.75814050  0.59030116  1
  Te  Te179  1  0.94201162  0.72700796  0.93433535  1
