# generated using pymatgen
data_In2Te3
_symmetry_space_group_name_H-M   'P 1'
_cell_length_a   18.77142895
_cell_length_b   18.76620951
_cell_length_c   18.76235437
_cell_angle_alpha   90.02232232
_cell_angle_beta   90.03959026
_cell_angle_gamma   90.00787852
_symmetry_Int_Tables_number   1
_chemical_formula_structural   In2Te3
_chemical_formula_sum   'In72 Te108'
_cell_volume   6609.38557205
_cell_formula_units_Z   36
loop_
 _symmetry_equiv_pos_site_id
 _symmetry_equiv_pos_as_xyz
  1  'x, y, z'
loop_
 _atom_site_type_symbol
 _atom_site_label
 _atom_site_symmetry_multiplicity
 _atom_site_fract_x
 _atom_site_fract_y
 _atom_site_fract_z
 _atom_site_occupancy
  In  In0  1  0.32790224  0.67660552  0.66290833  1
  In  In1  1  0.69124985  0.84313284  0.51319046  1
  In  In2  1  0.16972669  0.67354585  0.83751191  1
  In  In3  1  0.48445177  0.84301282  0.66129066  1
  In  In4  1  0.34108070  0.64274349  0.00855005  1
  In  In5  1  -0.00495504  0.85570548  0.49154293  1
  In  In6  1  0.50866577  0.82446491  0.34208773  1
  In  In7  1  0.31505918  0.00426709  -0.03405587  1
  In  In8  1  0.85583437  0.84898836  -0.01792693  1
  In  In9  1  0.14315050  0.13055512  0.00379011  1
  In  In10  1  0.32986102  0.32102196  0.67849065  1
  In  In11  1  0.32565879  0.83523931  0.81936169  1
  In  In12  1  0.17903949  0.50656093  0.31485559  1
  In  In13  1  0.67763570  0.00127011  0.65975308  1
  In  In14  1  0.01691291  0.68652849  -0.00117664  1
  In  In15  1  0.83541455  0.33726332  0.83331363  1
  In  In16  1  0.67659760  -0.00099031  -0.00316864  1
  In  In17  1  0.13756106  0.85842995  -0.01265952  1
  In  In18  1  0.00845765  0.67803680  0.68741527  1
  In  In19  1  0.83175007  0.17130747  0.32852604  1
  In  In20  1  0.83127758  0.69030909  0.17849522  1
  In  In21  1  0.84873710  0.83758652  0.33835530  1
  In  In22  1  -0.00288756  0.32653464  0.66558195  1
  In  In23  1  0.48008477  0.18583879  0.35360343  1
  In  In24  1  0.84562995  0.67449996  0.52009867  1
  In  In25  1  0.36679260  0.64691189  0.31133454  1
  In  In26  1  0.50023378  0.65292445  0.49297034  1
  In  In27  1  0.00176779  0.49105311  0.52431912  1
  In  In28  1  0.19351037  0.68310655  0.49341034  1
  In  In29  1  0.49132612  0.33546146  0.49591160  1
  In  In30  1  0.47971237  0.83050669  -0.00338089  1
  In  In31  1  0.66772636  -0.00615370  0.33584965  1
  In  In32  1  0.49811583  0.48894363  0.67464498  1
  In  In33  1  0.36321026  0.02253357  0.69771842  1
  In  In34  1  0.66021664  0.31286011  0.66840964  1
  In  In35  1  0.67361654  0.65565084  0.67871381  1
  In  In36  1  0.17524706  0.50466894  0.00466471  1
  In  In37  1  0.66528813  0.18797853  0.16049506  1
  In  In38  1  0.65730533  0.35583244  -0.01562444  1
  In  In39  1  0.50972167  0.18383245  -0.01656726  1
  In  In40  1  0.79152636  0.46503119  0.36378993  1
  In  In41  1  0.86769032  0.16263062  -0.00712390  1
  In  In42  1  0.49661145  -0.00106689  0.15859887  1
  In  In43  1  0.84382367  0.31904261  0.15890692  1
  In  In44  1  0.35233120  0.33340795  0.00316888  1
  In  In45  1  0.15385080  0.32608356  0.51340501  1
  In  In46  1  0.63910181  0.66029607  0.32187990  1
  In  In47  1  0.66165410  0.82519586  0.83971905  1
  In  In48  1  0.16729219  0.00507990  0.51086554  1
  In  In49  1  0.18780792  0.48067981  0.66565634  1
  In  In50  1  0.85627026  -0.00982949  0.18045178  1
  In  In51  1  0.34105658  0.17050533  0.50588508  1
  In  In52  1  0.15202644  0.16246809  0.32047332  1
  In  In53  1  0.31423613  0.01755539  0.35232605  1
  In  In54  1  0.32330661  0.17798189  0.16757330  1
  In  In55  1  -0.00170476  0.31012987  0.32251027  1
  In  In56  1  0.82436752  0.67206942  0.84111623  1
  In  In57  1  0.67254790  0.15820372  0.81666267  1
  In  In58  1  0.17436973  0.32817691  0.83976694  1
  In  In59  1  0.33248494  0.35651309  0.32566202  1
  In  In60  1  0.14894441  0.85769153  0.30502399  1
  In  In61  1  0.82031387  0.50485763  0.66486876  1
  In  In62  1  0.49916636  0.49340550  -0.00368896  1
  In  In63  1  0.00371065  0.49332550  0.15282030  1
  In  In64  1  -0.02587748  0.13527166  0.52966455  1
  In  In65  1  -0.01925205  0.66365719  0.32077453  1
  In  In66  1  0.32016492  0.82925806  0.16772625  1
  In  In67  1  0.66637515  0.15905856  0.52322723  1
  In  In68  1  0.64664228  0.47691104  0.19116516  1
  In  In69  1  0.84515831  0.49865940  -0.02536482  1
  In  In70  1  0.67540869  0.65273944  0.00863104  1
  In  In71  1  0.01354920  0.14284057  0.81697555  1
  Te  Te72  1  0.06360744  0.04339138  0.09740577  1
  Te  Te73  1  0.07085964  0.08156650  0.42008369  1
  Te  Te74  1  0.06941880  0.03904343  0.72161922  1
  Te  Te75  1  0.08359437  0.40508334  0.06785224  1
  Te  Te76  1  0.08240920  0.41941716  0.41305059  1
  Te  Te77  1  0.07877002  0.42065123  0.75243241  1
  Te  Te78  1  0.10076322  0.76204005  0.09359765  1
  Te  Te79  1  0.07273881  0.74348662  0.41674272  1
  Te  Te80  1  0.10847966  0.77144331  0.74414903  1
  Te  Te81  1  0.41196130  0.08908648  0.06890636  1
  Te  Te82  1  0.43235100  0.06757094  0.43578341  1
  Te  Te83  1  0.42862958  0.13229793  0.77621061  1
  Te  Te84  1  0.40378749  0.43906485  0.10123582  1
  Te  Te85  1  0.43189851  0.44076928  0.40389741  1
  Te  Te86  1  0.41395644  0.40644807  0.76636617  1
  Te  Te87  1  0.42200047  0.73684888  0.10269675  1
  Te  Te88  1  0.40451389  0.75007995  0.42440563  1
  Te  Te89  1  0.42957453  0.73958387  0.75879250  1
  Te  Te90  1  0.75893109  0.08666166  0.09372214  1
  Te  Te91  1  0.75626499  0.07865686  0.42444123  1
  Te  Te92  1  0.77673316  0.07889170  0.74441881  1
  Te  Te93  1  0.75610732  0.42821980  0.08423446  1
  Te  Te94  1  0.70959308  0.38276641  0.45084913  1
  Te  Te95  1  0.73304022  0.41846293  0.75621209  1
  Te  Te96  1  0.75690756  0.76689523  0.06898002  1
  Te  Te97  1  0.75072180  0.74212619  0.40945400  1
  Te  Te98  1  0.76051200  0.76687560  0.73753160  1
  Te  Te99  1  0.09405546  0.25832568  0.22308116  1
  Te  Te100  1  0.08493628  0.22156608  0.59760510  1
  Te  Te101  1  0.07453549  0.24155492  0.91705968  1
  Te  Te102  1  0.08553990  0.59611231  0.23205682  1
  Te  Te103  1  0.09904489  0.59048597  0.58723141  1
  Te  Te104  1  0.07603151  0.57769129  0.91031232  1
  Te  Te105  1  0.07560994  0.96188074  0.23171104  1
  Te  Te106  1  0.07271406  0.92651362  0.59836620  1
  Te  Te107  1  0.08445679  0.95457890  0.88617547  1
  Te  Te108  1  0.42634670  0.26527004  0.23670691  1
  Te  Te109  1  0.43720820  0.24024658  0.60098851  1
  Te  Te110  1  0.39563917  0.23072862  0.89630964  1
  Te  Te111  1  0.42645788  0.53528876  0.22916530  1
  Te  Te112  1  0.40674076  0.57315323  0.58263224  1
  Te  Te113  1  0.42555416  0.58443108  0.90390528  1
  Te  Te114  1  0.40990830  0.92425692  0.26064866  1
  Te  Te115  1  0.39229688  0.92778425  0.58535037  1
  Te  Te116  1  0.42697360  0.92888856  0.89477913  1
  Te  Te117  1  0.73887515  0.27508142  0.26171190  1
  Te  Te118  1  0.76645316  0.24094417  0.59536589  1
  Te  Te119  1  0.74566552  0.24031929  0.93273805  1
  Te  Te120  1  0.75737733  0.57755478  0.25118409  1
  Te  Te121  1  0.73448410  0.57831342  0.56160626  1
  Te  Te122  1  0.73047218  0.56388453  0.89777818  1
  Te  Te123  1  0.74523895  0.90326704  0.24191917  1
  Te  Te124  1  0.79013651  0.93414730  0.57948656  1
  Te  Te125  1  0.76217178  0.92938682  0.89155470  1
  Te  Te126  1  0.24158770  0.24317011  0.05941143  1
  Te  Te127  1  0.25052195  0.24659125  0.40806644  1
  Te  Te128  1  0.22694845  0.23299762  0.73919099  1
  Te  Te129  1  0.24654306  0.58591504  0.10620335  1
  Te  Te130  1  0.27012975  0.57761713  0.41415165  1
  Te  Te131  1  0.26029116  0.57743544  0.75884612  1
  Te  Te132  1  0.24635370  0.92755906  0.07922593  1
  Te  Te133  1  0.23975589  0.90351861  0.41990299  1
  Te  Te134  1  0.24909233  0.94538663  0.75790138  1
  Te  Te135  1  0.56949262  0.28072385  0.08754656  1
  Te  Te136  1  0.59931800  0.25749441  0.41559075  1
  Te  Te137  1  0.56163623  0.23678310  0.75391005  1
  Te  Te138  1  0.57995342  0.58067647  0.10088928  1
  Te  Te139  1  0.57950704  0.55768709  0.40941441  1
  Te  Te140  1  0.57415205  0.58544772  0.76035326  1
  Te  Te141  1  0.58764870  0.90614654  0.07940657  1
  Te  Te142  1  0.58149960  0.91949035  0.43795108  1
  Te  Te143  1  0.58172993  0.92025263  0.75038992  1
  Te  Te144  1  0.94688580  0.23790838  0.09218633  1
  Te  Te145  1  0.91715025  0.24702346  0.43293913  1
  Te  Te146  1  0.90851058  0.23419699  0.74872346  1
  Te  Te147  1  0.90702563  0.59940342  0.07508540  1
  Te  Te148  1  0.91248730  0.57232069  0.42362720  1
  Te  Te149  1  0.91623535  0.57767201  0.75872801  1
  Te  Te150  1  0.94459868  0.92890275  0.07366982  1
  Te  Te151  1  0.91741917  0.94847984  0.40671413  1
  Te  Te152  1  0.96692722  0.94702932  0.78660818  1
  Te  Te153  1  0.23744272  0.06947166  0.23147398  1
  Te  Te154  1  0.25466553  0.09174525  0.60028507  1
  Te  Te155  1  0.23069077  0.09606038  0.88704685  1
  Te  Te156  1  0.23214819  0.40092241  0.22646874  1
  Te  Te157  1  0.27085518  0.41005327  0.55998701  1
  Te  Te158  1  0.26852431  0.42426308  0.91177266  1
  Te  Te159  1  0.24804433  0.74486239  0.27067622  1
  Te  Te160  1  0.23467007  0.77452601  0.60190875  1
  Te  Te161  1  0.25543581  0.76005222  0.93482499  1
  Te  Te162  1  0.57865043  0.09251906  0.25166369  1
  Te  Te163  1  0.56784333  0.07423841  0.59247703  1
  Te  Te164  1  0.57963769  0.07161883  0.90565593  1
  Te  Te165  1  0.53833338  0.43160106  0.28233214  1
  Te  Te166  1  0.59509052  0.41961713  0.57597594  1
  Te  Te167  1  0.55149369  0.39917381  0.89121075  1
  Te  Te168  1  0.57894671  0.75804606  0.23059029  1
  Te  Te169  1  0.58655974  0.74903198  0.57928487  1
  Te  Te170  1  0.57459335  0.73370757  0.92366716  1
  Te  Te171  1  0.93232974  0.09805022  0.24772869  1
  Te  Te172  1  0.88785795  0.05313087  0.61881211  1
  Te  Te173  1  0.93072680  0.05397522  0.91203291  1
  Te  Te174  1  0.91353204  0.42537876  0.25826315  1
  Te  Te175  1  0.89340039  0.40032105  0.57919164  1
  Te  Te176  1  0.93634396  0.39561213  0.92395754  1
  Te  Te177  1  0.94290017  0.78055598  0.22968752  1
  Te  Te178  1  0.92010180  0.77277959  0.60560895  1
  Te  Te179  1  0.94008654  0.76203596  0.88922432  1
