# generated using pymatgen
data_In2Te3
_symmetry_space_group_name_H-M   'P 1'
_cell_length_a   18.97169257
_cell_length_b   19.01515628
_cell_length_c   18.95936661
_cell_angle_alpha   89.98473884
_cell_angle_beta   89.75954603
_cell_angle_gamma   89.84286107
_symmetry_Int_Tables_number   1
_chemical_formula_structural   In2Te3
_chemical_formula_sum   'In72 Te108'
_cell_volume   6839.49962456
_cell_formula_units_Z   36
loop_
 _symmetry_equiv_pos_site_id
 _symmetry_equiv_pos_as_xyz
  1  'x, y, z'
loop_
 _atom_site_type_symbol
 _atom_site_label
 _atom_site_symmetry_multiplicity
 _atom_site_fract_x
 _atom_site_fract_y
 _atom_site_fract_z
 _atom_site_occupancy
  In  In0  1  0.66390383  0.31906720  -0.00348664  1
  In  In1  1  0.33321860  0.86135920  0.52069798  1
  In  In2  1  0.00996088  0.37109417  0.66710277  1
  In  In3  1  0.50088127  0.14636532  0.30692796  1
  In  In4  1  0.33533876  0.73026138  -0.08340872  1
  In  In5  1  0.67760510  -0.01107712  0.65672300  1
  In  In6  1  0.51666240  0.83900294  -0.01228880  1
  In  In7  1  0.79544879  0.35260476  0.81277957  1
  In  In8  1  0.36957716  0.20467839  0.08414537  1
  In  In9  1  0.67781225  -0.02047509  0.34853623  1
  In  In10  1  0.65473310  0.63329370  0.67776398  1
  In  In11  1  0.31242431  -0.01339855  -0.00657700  1
  In  In12  1  0.03102139  0.57889972  0.50781087  1
  In  In13  1  0.66930383  0.45846869  0.17383537  1
  In  In14  1  -0.01151557  -0.00532677  0.67357616  1
  In  In15  1  0.63341658  0.66623191  -0.02505103  1
  In  In16  1  0.00793243  0.68038346  0.32177215  1
  In  In17  1  0.64950931  0.13955279  0.48261332  1
  In  In18  1  0.48464393  0.64788304  0.15937356  1
  In  In19  1  0.35878694  0.36001470  0.65149409  1
  In  In20  1  0.31880402  0.69694994  0.69963869  1
  In  In21  1  0.62405557  0.34696561  0.35719690  1
  In  In22  1  0.64955975  0.82478776  0.15136377  1
  In  In23  1  0.33893869  0.80664541  0.18621009  1
  In  In24  1  -0.06604554  0.08239922  0.14382552  1
  In  In25  1  0.16272562  0.68437790  0.16679355  1
  In  In26  1  0.83112371  0.30674171  0.49924410  1
  In  In27  1  0.32861131  0.00586616  0.70995189  1
  In  In28  1  -0.01454286  0.33851214  -0.01558873  1
  In  In29  1  -0.00151068  0.50905332  0.14630706  1
  In  In30  1  0.65188734  0.19368884  0.81470418  1
  In  In31  1  0.35303484  0.34765103  0.34762606  1
  In  In32  1  0.83569833  0.29895438  0.18204515  1
  In  In33  1  -0.00011206  0.83116330  0.16165071  1
  In  In34  1  0.31857549  0.51076125  0.82552993  1
  In  In35  1  0.50905967  0.82928297  0.33351615  1
  In  In36  1  0.19354399  0.35847980  0.50156674  1
  In  In37  1  0.82160578  0.47305547  0.34429230  1
  In  In38  1  0.33835228  -0.02053583  0.31396542  1
  In  In39  1  0.81791732  0.61767845  0.15380612  1
  In  In40  1  0.03493394  0.35197576  0.34600360  1
  In  In41  1  0.16452124  0.51814143  -0.02316744  1
  In  In42  1  0.57707832  0.35302674  0.64883016  1
  In  In43  1  0.32465055  0.51084618  0.18485445  1
  In  In44  1  0.17936909  0.02443821  0.48019475  1
  In  In45  1  0.32993185  0.53964899  0.50840373  1
  In  In46  1  0.82787831  -0.00449278  0.86554535  1
  In  In47  1  0.67780156  0.81519982  0.53325079  1
  In  In48  1  0.14600819  -0.02590727  0.17160769  1
  In  In49  1  0.20143864  0.32260764  0.15132419  1
  In  In50  1  0.83859496  0.67752390  0.50631014  1
  In  In51  1  0.84379987  0.82827826  0.00280408  1
  In  In52  1  0.49644381  0.66724320  0.51779153  1
  In  In53  1  0.82854073  0.50149464  0.64511537  1
  In  In54  1  0.53380731  0.00092483  0.82688659  1
  In  In55  1  0.40460973  0.13702427  0.91628184  1
  In  In56  1  0.00777104  0.81676522  0.49699973  1
  In  In57  1  0.83471642  0.15449703  0.64824299  1
  In  In58  1  0.01552273  0.55461081  0.77237025  1
  In  In59  1  0.51469220  0.32345118  0.15040471  1
  In  In60  1  0.81408026  0.50957830  -0.02713566  1
  In  In61  1  0.48328317  0.00490825  0.52808378  1
  In  In62  1  0.73645087  0.12628466  0.20340521  1
  In  In63  1  -0.02643488  0.16202400  0.81902029  1
  In  In64  1  0.19399550  0.17940469  0.31965281  1
  In  In65  1  0.19089861  0.31934624  0.83854611  1
  In  In66  1  0.49341218  0.48835475  -0.01719688  1
  In  In67  1  -0.00614701  0.84271691  0.84538007  1
  In  In68  1  0.03499365  0.18301971  0.48418320  1
  In  In69  1  0.16352233  0.84432463  0.67645099  1
  In  In70  1  0.83746830  0.82120612  0.34883017  1
  In  In71  1  0.17415735  0.15400217  0.68462906  1
  Te  Te72  1  0.07075919  0.06958443  0.09061659  1
  Te  Te73  1  0.08637907  0.08738046  0.37840088  1
  Te  Te74  1  0.08397730  0.06572722  0.76702372  1
  Te  Te75  1  0.09281501  0.41296313  0.07387596  1
  Te  Te76  1  0.09537921  0.45446015  0.43776810  1
  Te  Te77  1  0.10023008  0.42340068  0.77340661  1
  Te  Te78  1  0.07661077  0.74855292  0.06356250  1
  Te  Te79  1  0.09411920  0.70496639  0.44318092  1
  Te  Te80  1  0.04965876  0.76602459  0.72841544  1
  Te  Te81  1  0.42261765  0.06695157  0.06031931  1
  Te  Te82  1  0.41422006  0.06991725  0.40861965  1
  Te  Te83  1  0.43003733  0.09916261  0.76787581  1
  Te  Te84  1  0.41156720  0.42493751  0.09501077  1
  Te  Te85  1  0.42668629  0.43518295  0.44718618  1
  Te  Te86  1  0.42316351  0.41958651  0.77144781  1
  Te  Te87  1  0.41618949  0.74439382  0.06501267  1
  Te  Te88  1  0.41546907  0.76550641  0.43353476  1
  Te  Te89  1  0.41125468  0.76204322  0.79357585  1
  Te  Te90  1  0.79864749  0.07201937  0.08178201  1
  Te  Te91  1  0.76671554  0.07515597  0.41838120  1
  Te  Te92  1  0.75596022  0.08862042  0.75788017  1
  Te  Te93  1  0.77745253  0.40566379  0.07977088  1
  Te  Te94  1  0.72901007  0.40885231  0.44600595  1
  Te  Te95  1  0.72194972  0.40532885  0.69459257  1
  Te  Te96  1  0.73828609  0.72147468  0.07500453  1
  Te  Te97  1  0.72872582  0.73798059  0.41402744  1
  Te  Te98  1  0.77706247  0.71472841  0.69964504  1
  Te  Te99  1  0.09216975  0.25972860  0.24034580  1
  Te  Te100  1  0.09926697  0.26225490  0.59651689  1
  Te  Te101  1  0.07246622  0.24654295  0.90035918  1
  Te  Te102  1  0.08799167  0.57538671  0.24693408  1
  Te  Te103  1  0.07258213  0.60837185  0.64502275  1
  Te  Te104  1  0.09309411  0.61206856  0.88780889  1
  Te  Te105  1  0.07715167  0.88842676  0.27207440  1
  Te  Te106  1  0.09304332  0.93672625  0.57143826  1
  Te  Te107  1  0.08369172  0.87527125  0.95994623  1
  Te  Te108  1  0.40732513  0.24647884  0.23984932  1
  Te  Te109  1  0.46361030  0.27362798  0.59355396  1
  Te  Te110  1  0.44005155  0.26860264  0.97147242  1
  Te  Te111  1  0.40358581  0.59849322  0.27770921  1
  Te  Te112  1  0.40913530  0.59977345  0.62446592  1
  Te  Te113  1  0.40851117  0.59335512  0.91668426  1
  Te  Te114  1  0.44198391  0.91154323  0.22533594  1
  Te  Te115  1  0.42188464  0.91285200  0.63158945  1
  Te  Te116  1  0.42364015  0.92611125  0.90631295  1
  Te  Te117  1  0.72868294  0.26195614  0.28038765  1
  Te  Te118  1  0.72545322  0.23234547  0.57871524  1
  Te  Te119  1  0.76589116  0.24524172  0.91287842  1
  Te  Te120  1  0.72909848  0.56426071  0.26620008  1
  Te  Te121  1  0.73451866  0.58052169  0.55534921  1
  Te  Te122  1  0.72295331  0.58497053  0.88082115  1
  Te  Te123  1  0.74822196  0.89133398  0.24755244  1
  Te  Te124  1  0.76982569  0.92314066  0.56359726  1
  Te  Te125  1  0.73447976  0.90171987  0.93291447  1
  Te  Te126  1  0.22497126  0.21383003  0.05454809  1
  Te  Te127  1  0.27205622  0.24925706  0.43280796  1
  Te  Te128  1  0.27602037  0.25392299  0.73350251  1
  Te  Te129  1  0.24848184  0.59127094  0.08106136  1
  Te  Te130  1  0.28465563  0.59338593  0.37954047  1
  Te  Te131  1  0.22239750  0.61507309  0.78008628  1
  Te  Te132  1  0.25053369  0.89203088  0.09681515  1
  Te  Te133  1  0.24297569  0.90761432  0.40692550  1
  Te  Te134  1  0.23533667  0.91754790  0.78572030  1
  Te  Te135  1  0.61924084  0.22972585  0.10551180  1
  Te  Te136  1  0.54656121  0.23474344  0.42215216  1
  Te  Te137  1  0.54900089  0.29666082  0.78579086  1
  Te  Te138  1  0.59163802  0.55971889  0.08406721  1
  Te  Te139  1  0.54465280  0.55802017  0.43135212  1
  Te  Te140  1  0.60528735  0.54593310  0.78723144  1
  Te  Te141  1  0.61620186  0.92847868  0.05198448  1
  Te  Te142  1  0.57440847  0.91454373  0.44420338  1
  Te  Te143  1  0.62154200  0.90163844  0.76050927  1
  Te  Te144  1  0.93339897  0.24123123  0.08644245  1
  Te  Te145  1  0.93118383  0.25286201  0.39807627  1
  Te  Te146  1  0.90820503  0.26824192  0.72493602  1
  Te  Te147  1  0.92247605  0.59025613  0.04473730  1
  Te  Te148  1  0.91225408  0.58228721  0.40228892  1
  Te  Te149  1  0.87410819  0.60206626  0.74597149  1
  Te  Te150  1  0.90270835  0.92636462  0.09835618  1
  Te  Te151  1  0.94601863  0.90592969  0.39688013  1
  Te  Te152  1  0.88919820  0.91515660  0.75219987  1
  Te  Te153  1  0.25370657  0.07277347  0.23130997  1
  Te  Te154  1  0.26760655  0.08155092  0.58886785  1
  Te  Te155  1  0.25916685  0.10514648  0.92048912  1
  Te  Te156  1  0.24251744  0.41280045  0.26717566  1
  Te  Te157  1  0.24512966  0.45312817  0.60394221  1
  Te  Te158  1  0.26351701  0.41228877  0.93220914  1
  Te  Te159  1  0.25044397  0.73052225  0.27746340  1
  Te  Te160  1  0.24394240  0.75619547  0.58176435  1
  Te  Te161  1  0.20864914  0.80725015  0.89738850  1
  Te  Te162  1  0.60072593  0.05592247  0.24229499  1
  Te  Te163  1  0.57655952  0.09103210  0.60856704  1
  Te  Te164  1  0.60025826  0.09891888  0.91368004  1
  Te  Te165  1  0.54629246  0.42783488  0.25681849  1
  Te  Te166  1  0.53845360  0.46412063  0.55553528  1
  Te  Te167  1  0.60706514  0.42548582  0.90718166  1
  Te  Te168  1  0.58052391  0.72718374  0.24677200  1
  Te  Te169  1  0.57287524  0.75112225  0.61890340  1
  Te  Te170  1  0.57148992  0.75622684  0.87640170  1
  Te  Te171  1  0.86249586  0.08498458  0.27599263  1
  Te  Te172  1  0.94106546  0.08946750  0.56366224  1
  Te  Te173  1  0.94002874  0.06775487  0.92506561  1
  Te  Te174  1  0.92435547  0.41662003  0.24487025  1
  Te  Te175  1  0.91970285  0.41786082  0.55509479  1
  Te  Te176  1  0.90786719  0.42528295  0.88659368  1
  Te  Te177  1  0.89584854  0.72548572  0.23022355  1
  Te  Te178  1  0.91216028  0.76515179  0.59871998  1
  Te  Te179  1  0.90304525  0.74125913  0.90233172  1
