# generated using pymatgen
data_In2Te3
_symmetry_space_group_name_H-M   'P 1'
_cell_length_a   18.75732674
_cell_length_b   18.76293009
_cell_length_c   18.76205405
_cell_angle_alpha   89.91729227
_cell_angle_beta   89.97918476
_cell_angle_gamma   89.99535531
_symmetry_Int_Tables_number   1
_chemical_formula_structural   In2Te3
_chemical_formula_sum   'In72 Te108'
_cell_volume   6603.15518585
_cell_formula_units_Z   36
loop_
 _symmetry_equiv_pos_site_id
 _symmetry_equiv_pos_as_xyz
  1  'x, y, z'
loop_
 _atom_site_type_symbol
 _atom_site_label
 _atom_site_symmetry_multiplicity
 _atom_site_fract_x
 _atom_site_fract_y
 _atom_site_fract_z
 _atom_site_occupancy
  In  In0  1  0.49688804  0.01870074  0.15624052  1
  In  In1  1  0.17379538  0.30816213  0.16004897  1
  In  In2  1  0.67676042  0.33813807  -0.00279858  1
  In  In3  1  0.18633681  0.15150686  0.01005114  1
  In  In4  1  0.49338377  0.85813580  0.31916963  1
  In  In5  1  0.50161888  0.48824354  0.01931998  1
  In  In6  1  0.02044383  0.81780270  0.15287686  1
  In  In7  1  0.00856312  0.01667208  0.00118746  1
  In  In8  1  0.83591250  0.85859343  0.65498083  1
  In  In9  1  0.83789316  0.16439675  0.67711404  1
  In  In10  1  0.17596473  0.49795389  -0.01017065  1
  In  In11  1  0.84220344  0.49202833  0.66860178  1
  In  In12  1  0.66268195  0.16483776  0.17260644  1
  In  In13  1  -0.02324838  0.84585254  0.49051205  1
  In  In14  1  -0.00782990  0.31564400  0.31828488  1
  In  In15  1  -0.00498117  0.49472425  0.51783081  1
  In  In16  1  0.17005493  0.00307524  0.50575388  1
  In  In17  1  0.65781847  0.49615947  0.84663571  1
  In  In18  1  0.47192921  0.16801511  -0.03732113  1
  In  In19  1  0.33735988  0.66103342  0.31430973  1
  In  In20  1  0.17481628  0.17047365  0.66586900  1
  In  In21  1  0.66339728  0.31103023  0.67042399  1
  In  In22  1  0.83679700  0.64653502  0.15459804  1
  In  In23  1  0.84592777  0.87092815  0.31756197  1
  In  In24  1  0.32558466  0.30896151  0.33411545  1
  In  In25  1  -0.00277427  0.17392682  0.50337281  1
  In  In26  1  0.02160813  0.66198131  0.33556087  1
  In  In27  1  0.35425276  0.68081648  0.66877100  1
  In  In28  1  0.47586088  0.15149345  0.68608381  1
  In  In29  1  0.47956481  0.04386869  0.48317391  1
  In  In30  1  0.64800059  0.84951027  0.84866563  1
  In  In31  1  0.83411740  0.47219234  0.31644988  1
  In  In32  1  0.18155877  0.83023211  0.33019404  1
  In  In33  1  -0.02110669  0.01297720  0.33048279  1
  In  In34  1  0.18518163  0.00950398  0.83388433  1
  In  In35  1  0.66043177  0.15481888  0.84895115  1
  In  In36  1  0.49561315  0.32725074  0.17357313  1
  In  In37  1  0.84069001  0.64566555  0.83533711  1
  In  In38  1  0.17397704  0.33524094  0.81911145  1
  In  In39  1  0.19458185  0.02260574  0.18201447  1
  In  In40  1  0.32653697  0.68346747  0.00216366  1
  In  In41  1  0.65776526  0.49005476  0.47796184  1
  In  In42  1  0.14733125  0.49831643  0.67419504  1
  In  In43  1  0.32853846  0.84347266  0.50834308  1
  In  In44  1  0.81922523  0.83134983  -0.01647112  1
  In  In45  1  0.67507578  0.66386904  0.69232684  1
  In  In46  1  0.49023241  0.65881029  0.14928521  1
  In  In47  1  0.32696055  0.32100155  0.68462889  1
  In  In48  1  0.16755892  0.66400969  0.85990954  1
  In  In49  1  0.51971055  0.67433645  0.84649639  1
  In  In50  1  0.17725677  0.50357964  0.32374512  1
  In  In51  1  0.66563277  0.86407350  0.51941297  1
  In  In52  1  0.33201169  0.47863890  0.83367155  1
  In  In53  1  0.17128527  0.84870674  0.68313486  1
  In  In54  1  -0.01916576  0.82913804  0.82589305  1
  In  In55  1  0.66806443  0.32487098  0.31603971  1
  In  In56  1  0.83204205  0.01617773  0.16730772  1
  In  In57  1  0.68196897  0.14363766  0.47810140  1
  In  In58  1  0.65693148  0.86394656  0.15622391  1
  In  In59  1  0.83138368  0.16945149  0.00880207  1
  In  In60  1  0.49498027  0.64873705  0.50529751  1
  In  In61  1  0.50940890  0.31371987  0.50544916  1
  In  In62  1  0.18135117  0.84574444  0.02321874  1
  In  In63  1  0.17000103  0.65799055  0.17892324  1
  In  In64  1  -0.00629983  0.16980955  0.82928004  1
  In  In65  1  0.83035362  0.49348992  0.00108534  1
  In  In66  1  0.50552459  0.85158128  0.68142036  1
  In  In67  1  -0.01781868  0.33354572  -0.00427105  1
  In  In68  1  0.67940541  0.66347476  0.33767601  1
  In  In69  1  0.84071390  0.68136772  0.50425610  1
  In  In70  1  0.16558547  0.31024926  0.48746958  1
  In  In71  1  0.32777101  0.49158133  0.47814574  1
  Te  Te72  1  0.08040767  0.09577287  0.10906826  1
  Te  Te73  1  0.08649104  0.08829563  0.40946322  1
  Te  Te74  1  0.08224040  0.07721205  0.74447230  1
  Te  Te75  1  0.08995027  0.40693710  0.07935947  1
  Te  Te76  1  0.08568318  0.41874908  0.41306829  1
  Te  Te77  1  0.06209799  0.41211336  0.75873337  1
  Te  Te78  1  0.09448236  0.72319169  0.06105719  1
  Te  Te79  1  0.09039541  0.75907873  0.43026438  1
  Te  Te80  1  0.08661708  0.74373246  0.75558099  1
  Te  Te81  1  0.40163647  0.11656345  0.08781478  1
  Te  Te82  1  0.39126764  0.10200891  0.37830793  1
  Te  Te83  1  0.40945403  0.04464089  0.77725141  1
  Te  Te84  1  0.40197266  0.40096499  0.08400385  1
  Te  Te85  1  0.42667059  0.40072050  0.40727292  1
  Te  Te86  1  0.42886152  0.40583565  0.74903189  1
  Te  Te87  1  0.42578653  0.76835935  0.07154750  1
  Te  Te88  1  0.41815192  0.75337560  0.41973542  1
  Te  Te89  1  0.41887462  0.76773983  0.77565226  1
  Te  Te90  1  0.73034505  0.07185214  0.06856289  1
  Te  Te91  1  0.76778879  0.05828411  0.39364677  1
  Te  Te92  1  0.73331038  0.07737802  0.74263667  1
  Te  Te93  1  0.75969766  0.40548310  0.09782241  1
  Te  Te94  1  0.75997814  0.39381298  0.42456446  1
  Te  Te95  1  0.74552327  0.41104787  0.75489873  1
  Te  Te96  1  0.74496682  0.75501423  0.09262158  1
  Te  Te97  1  0.75196163  0.77434430  0.41875081  1
  Te  Te98  1  0.76068127  0.76583833  0.76280517  1
  Te  Te99  1  0.10868460  0.23617095  0.27175729  1
  Te  Te100  1  0.07536086  0.26667456  0.60199349  1
  Te  Te101  1  0.09626539  0.24013992  0.92319750  1
  Te  Te102  1  0.06585961  0.55922071  0.23244594  1
  Te  Te103  1  0.08807173  0.59172932  0.57601615  1
  Te  Te104  1  0.07447628  0.55649522  0.89986767  1
  Te  Te105  1  0.08210511  0.91874313  0.25166840  1
  Te  Te106  1  0.07271350  0.91967898  0.58822731  1
  Te  Te107  1  0.08532306  0.91460687  0.91713620  1
  Te  Te108  1  0.42248261  0.22035357  0.25562335  1
  Te  Te109  1  0.40184688  0.23579233  0.57959894  1
  Te  Te110  1  0.38054682  0.26005310  0.89209736  1
  Te  Te111  1  0.41947870  0.56520405  0.24028850  1
  Te  Te112  1  0.40902599  0.55900076  0.59240502  1
  Te  Te113  1  0.41178410  0.58335344  0.91675113  1
  Te  Te114  1  0.39977747  0.92722626  0.22989851  1
  Te  Te115  1  0.42534706  0.93460077  0.58058282  1
  Te  Te116  1  0.39300814  0.95352833  0.89190557  1
  Te  Te117  1  0.76868386  0.23732553  0.24836973  1
  Te  Te118  1  0.75410486  0.24239733  0.56999752  1
  Te  Te119  1  0.76369065  0.25574036  0.90245775  1
  Te  Te120  1  0.73778932  0.56377719  0.23780268  1
  Te  Te121  1  0.73950591  0.58817304  0.57229548  1
  Te  Te122  1  0.73080609  0.59918555  0.92921194  1
  Te  Te123  1  0.72546958  0.95147118  0.26268898  1
  Te  Te124  1  0.73361696  0.95949307  0.61043147  1
  Te  Te125  1  0.74985032  0.93831373  0.91224886  1
  Te  Te126  1  0.28527914  0.22646743  0.09651377  1
  Te  Te127  1  0.26506738  0.21321132  0.43417982  1
  Te  Te128  1  0.27208518  0.21399855  0.78688065  1
  Te  Te129  1  0.26297627  0.57554678  0.08983018  1
  Te  Te130  1  0.24113880  0.60375874  0.41980734  1
  Te  Te131  1  0.25609714  0.58771093  0.75244787  1
  Te  Te132  1  0.27879907  0.93388737  0.09406843  1
  Te  Te133  1  0.26445136  0.93423834  0.40373747  1
  Te  Te134  1  0.27934000  0.93714993  0.74061405  1
  Te  Te135  1  0.57810263  0.24151174  0.06651052  1
  Te  Te136  1  0.58068694  0.22993510  0.40022052  1
  Te  Te137  1  0.56532995  0.24537023  0.76682065  1
  Te  Te138  1  0.59591645  0.58684534  0.07433262  1
  Te  Te139  1  0.56441746  0.57482169  0.39142922  1
  Te  Te140  1  0.56809085  0.57054416  0.74426538  1
  Te  Te141  1  0.56532075  0.92646096  0.05855810  1
  Te  Te142  1  0.57471521  0.93802752  0.42047445  1
  Te  Te143  1  0.59057875  0.94897534  0.75295758  1
  Te  Te144  1  0.92574731  0.24104277  0.09689823  1
  Te  Te145  1  0.90318724  0.24184920  0.41054367  1
  Te  Te146  1  0.91622913  0.26757876  0.75108670  1
  Te  Te147  1  0.93341252  0.57798786  0.06921469  1
  Te  Te148  1  0.90613824  0.58551590  0.40452680  1
  Te  Te149  1  0.93178592  0.58832628  0.73470719  1
  Te  Te150  1  0.91881865  0.91345504  0.08653346  1
  Te  Te151  1  0.88067161  0.95982149  0.44457003  1
  Te  Te152  1  0.91864572  0.93787747  0.74933170  1
  Te  Te153  1  0.28506019  0.10998062  0.26249089  1
  Te  Te154  1  0.26447950  0.08065287  0.58948084  1
  Te  Te155  1  0.27900880  0.04539019  0.94953037  1
  Te  Te156  1  0.26207826  0.41175610  0.23929089  1
  Te  Te157  1  0.24559768  0.41091240  0.58126687  1
  Te  Te158  1  0.26531231  0.38486844  0.93586397  1
  Te  Te159  1  0.26949995  0.76472817  0.22434178  1
  Te  Te160  1  0.24240389  0.74728463  0.58827675  1
  Te  Te161  1  0.25650698  0.78038398  0.90615474  1
  Te  Te162  1  0.57108437  0.09145827  0.26353173  1
  Te  Te163  1  0.57854874  0.09783812  0.58540413  1
  Te  Te164  1  0.56507806  0.06109925  0.91804335  1
  Te  Te165  1  0.58670669  0.42255912  0.24085859  1
  Te  Te166  1  0.58327366  0.41752777  0.59007328  1
  Te  Te167  1  0.56316869  0.39708252  0.91231310  1
  Te  Te168  1  0.58803907  0.75594102  0.25302628  1
  Te  Te169  1  0.58278226  0.74570243  0.58676990  1
  Te  Te170  1  0.56910314  0.77069269  0.94814042  1
  Te  Te171  1  0.90598357  0.11593904  0.24960934  1
  Te  Te172  1  0.92865153  0.07894379  0.59470177  1
  Te  Te173  1  0.90292796  0.07446313  0.90897573  1
  Te  Te174  1  0.92580151  0.40755859  0.22173701  1
  Te  Te175  1  0.90394024  0.39578799  0.57540295  1
  Te  Te176  1  0.90635444  0.41568037  0.89970299  1
  Te  Te177  1  0.91923643  0.75010554  0.25276917  1
  Te  Te178  1  0.93254957  0.74808898  0.60265743  1
  Te  Te179  1  0.92386952  0.73363793  0.93101243  1
