# generated using pymatgen
data_In2Te3
_symmetry_space_group_name_H-M   'P 1'
_cell_length_a   18.93391914
_cell_length_b   18.93421983
_cell_length_c   18.96158556
_cell_angle_alpha   90.05987107
_cell_angle_beta   89.91044723
_cell_angle_gamma   89.82307571
_symmetry_Int_Tables_number   1
_chemical_formula_structural   In2Te3
_chemical_formula_sum   'In72 Te108'
_cell_volume   6797.66475987
_cell_formula_units_Z   36
loop_
 _symmetry_equiv_pos_site_id
 _symmetry_equiv_pos_as_xyz
  1  'x, y, z'
loop_
 _atom_site_type_symbol
 _atom_site_label
 _atom_site_symmetry_multiplicity
 _atom_site_fract_x
 _atom_site_fract_y
 _atom_site_fract_z
 _atom_site_occupancy
  In  In0  1  0.88815066  0.30799257  0.17221800  1
  In  In1  1  0.82806195  0.50290485  0.67751411  1
  In  In2  1  0.51623958  0.04417223  0.81654511  1
  In  In3  1  0.32804795  0.00418538  0.32801223  1
  In  In4  1  0.82229908  0.16847879  0.67656456  1
  In  In5  1  0.03005217  0.22355246  0.42873366  1
  In  In6  1  -0.00354739  0.48017045  0.47131795  1
  In  In7  1  0.00742867  0.82093849  0.51505386  1
  In  In8  1  0.49155392  0.50756232  0.00238209  1
  In  In9  1  0.00390604  0.15414659  0.85351617  1
  In  In10  1  0.30091656  0.34529334  0.32142022  1
  In  In11  1  0.17487820  0.03230450  0.15935423  1
  In  In12  1  0.49467136  0.83496244  0.65236119  1
  In  In13  1  0.50517115  0.50994276  0.32077652  1
  In  In14  1  0.50450540  0.85541341  0.32266153  1
  In  In15  1  0.01770422  0.83019833  0.81681953  1
  In  In16  1  0.48837044  0.66969768  0.83731408  1
  In  In17  1  0.67302542  0.19159830  0.84202342  1
  In  In18  1  0.16362424  0.81497762  0.66634752  1
  In  In19  1  0.71103422  0.65466737  0.32055318  1
  In  In20  1  0.84215426  0.49675244  -0.01040702  1
  In  In21  1  0.14320107  0.81769741  0.32859655  1
  In  In22  1  0.64602786  0.33520926  0.66253301  1
  In  In23  1  0.83087256  0.82138540  0.30922718  1
  In  In24  1  0.84930472  0.81708614  0.01040578  1
  In  In25  1  0.34884013  0.00917180  -0.00626378  1
  In  In26  1  0.32376161  0.63707780  0.35425059  1
  In  In27  1  0.47261406  0.51100351  0.67470918  1
  In  In28  1  0.65995248  0.84071343  0.47324293  1
  In  In29  1  0.66604767  0.03317453  0.36388271  1
  In  In30  1  0.14347306  0.31438505  0.18342812  1
  In  In31  1  0.85603876  0.64220130  0.16206404  1
  In  In32  1  -0.00366828  0.63717402  0.65144144  1
  In  In33  1  0.15139261  -0.00388426  0.83562442  1
  In  In34  1  0.69495356  0.34057467  0.01313568  1
  In  In35  1  0.30650454  0.84322475  0.85358397  1
  In  In36  1  0.02530107  0.36872643  0.66970133  1
  In  In37  1  0.32108329  0.19728344  0.82105482  1
  In  In38  1  0.82851384  -0.00702242  0.49887191  1
  In  In39  1  0.66387866  0.67171664  0.66059743  1
  In  In40  1  0.70018063  0.48510258  0.46545321  1
  In  In41  1  0.85881291  0.35502550  0.82840968  1
  In  In42  1  -0.01688600  -0.01181600  -0.00252939  1
  In  In43  1  0.64600685  0.01113400  0.64072542  1
  In  In44  1  0.69967798  0.83367638  0.15887139  1
  In  In45  1  0.30344696  0.80518396  0.14652014  1
  In  In46  1  0.02917374  0.00302062  0.34726815  1
  In  In47  1  0.32136656  0.13547548  0.18593301  1
  In  In48  1  0.51466662  0.01730031  0.19818403  1
  In  In49  1  0.49537548  0.66859060  0.17760143  1
  In  In50  1  0.34269620  0.82694886  0.49249206  1
  In  In51  1  0.15392859  0.71131520  0.01743941  1
  In  In52  1  0.31223516  0.64774064  0.66705040  1
  In  In53  1  0.01491983  0.49487086  0.16153293  1
  In  In54  1  0.48502510  0.34574848  0.15422351  1
  In  In55  1  0.47898987  0.33561749  0.52014946  1
  In  In56  1  0.68823667  0.50965031  0.20283254  1
  In  In57  1  0.66118223  0.81071848  0.84232302  1
  In  In58  1  0.44683599  0.19115501  0.64517070  1
  In  In59  1  0.50758431  0.18816592  -0.02726493  1
  In  In60  1  0.18149331  0.17804155  0.64155849  1
  In  In61  1  0.48025265  0.35444218  0.84371255  1
  In  In62  1  0.31565387  0.48790165  0.51424756  1
  In  In63  1  -0.00391399  -0.02195467  0.66101044  1
  In  In64  1  0.67690440  0.18390441  0.49103583  1
  In  In65  1  0.83743533  0.66080589  0.85048124  1
  In  In66  1  0.15874082  0.19674964  0.00263327  1
  In  In67  1  0.72065061  0.00933345  0.03505789  1
  In  In68  1  0.49340744  0.16277837  0.35326024  1
  In  In69  1  0.27088199  0.48427065  0.84600123  1
  In  In70  1  0.86129908  0.03214608  0.19263948  1
  In  In71  1  0.48758871  0.83397647  0.01616828  1
  Te  Te72  1  0.06036188  0.10269716  0.07619846  1
  Te  Te73  1  0.07821994  0.08529090  0.45824750  1
  Te  Te74  1  0.08708809  0.08655481  0.73221395  1
  Te  Te75  1  0.08210130  0.39434435  0.07081027  1
  Te  Te76  1  0.12022623  0.41232374  0.40240854  1
  Te  Te77  1  0.09376076  0.45813807  0.76343463  1
  Te  Te78  1  0.06631150  0.73518033  0.13484550  1
  Te  Te79  1  0.06533165  0.73080827  0.41600845  1
  Te  Te80  1  0.09156528  0.71564259  0.75137879  1
  Te  Te81  1  0.43716660  0.09485182  0.08277407  1
  Te  Te82  1  0.38294978  0.09976105  0.43075604  1
  Te  Te83  1  0.39100778  0.08695313  0.74264229  1
  Te  Te84  1  0.39387825  0.43327634  0.08261408  1
  Te  Te85  1  0.41248360  0.42131452  0.40479163  1
  Te  Te86  1  0.38955948  0.40500639  0.73637721  1
  Te  Te87  1  0.40147260  0.71966725  0.06730386  1
  Te  Te88  1  0.42672274  0.74694150  0.39276631  1
  Te  Te89  1  0.40199881  0.75175519  0.74256295  1
  Te  Te90  1  0.79894643  0.12169573  0.09039902  1
  Te  Te91  1  0.78616752  0.11118110  0.41270393  1
  Te  Te92  1  0.72769359  0.07805205  0.75123714  1
  Te  Te93  1  0.77767285  0.41925194  0.11345941  1
  Te  Te94  1  0.76387701  0.37645667  0.38710681  1
  Te  Te95  1  0.73457629  0.41284467  0.75777477  1
  Te  Te96  1  0.75413365  0.71867096  0.07798349  1
  Te  Te97  1  0.77156019  0.74714267  0.42679029  1
  Te  Te98  1  0.76175148  0.74729262  0.74886532  1
  Te  Te99  1  0.08077844  0.21872183  0.28102741  1
  Te  Te100  1  0.07724515  0.26611778  0.57122838  1
  Te  Te101  1  0.09413804  0.26426797  0.88853262  1
  Te  Te102  1  0.05884593  0.61828720  0.23473310  1
  Te  Te103  1  0.08438923  0.55742340  0.56360030  1
  Te  Te104  1  0.14214460  0.54195030  0.92176149  1
  Te  Te105  1  0.09277352  0.92644615  0.23140657  1
  Te  Te106  1  0.10563805  0.92064209  0.57287194  1
  Te  Te107  1  0.09082250  0.90002605  0.93405628  1
  Te  Te108  1  0.40973631  0.24593598  0.25600322  1
  Te  Te109  1  0.34619349  0.26804117  0.55617854  1
  Te  Te110  1  0.38908259  0.27346917  0.93435515  1
  Te  Te111  1  0.39478021  0.57008781  0.23590109  1
  Te  Te112  1  0.41477497  0.59684015  0.56606997  1
  Te  Te113  1  0.39953523  0.56076341  0.89240737  1
  Te  Te114  1  0.40096726  0.91039679  0.22223026  1
  Te  Te115  1  0.41113403  0.92660897  0.57565671  1
  Te  Te116  1  0.43456292  0.92200329  0.90094400  1
  Te  Te117  1  0.78680460  0.26943628  0.27423911  1
  Te  Te118  1  0.75933730  0.27119949  0.58396860  1
  Te  Te119  1  0.78180154  0.25514141  0.92173772  1
  Te  Te120  1  0.82071048  0.54987753  0.28550964  1
  Te  Te121  1  0.75166237  0.58207850  0.57345239  1
  Te  Te122  1  0.74142114  0.57290892  0.91640671  1
  Te  Te123  1  0.74050638  0.94068320  0.26113024  1
  Te  Te124  1  0.74145186  0.90581917  0.58635647  1
  Te  Te125  1  0.74891261  0.90173325  0.93238292  1
  Te  Te126  1  0.25971202  0.24640808  0.10324450  1
  Te  Te127  1  0.20210716  0.28980293  0.41786134  1
  Te  Te128  1  0.22157496  0.27615357  0.74699607  1
  Te  Te129  1  0.21418164  0.58122146  0.04711167  1
  Te  Te130  1  0.21966933  0.56059699  0.42678372  1
  Te  Te131  1  0.21439920  0.54511215  0.71636328  1
  Te  Te132  1  0.24868509  0.92632610  0.07182715  1
  Te  Te133  1  0.24522813  0.90562793  0.40552092  1
  Te  Te134  1  0.24642235  0.92218565  0.74146479  1
  Te  Te135  1  0.58841735  0.25678201  0.08146981  1
  Te  Te136  1  0.57536525  0.27174402  0.41971110  1
  Te  Te137  1  0.55782936  0.24945364  0.75356676  1
  Te  Te138  1  0.58842706  0.57263023  0.10518318  1
  Te  Te139  1  0.60254858  0.58722109  0.40662643  1
  Te  Te140  1  0.58182289  0.58321930  0.75308642  1
  Te  Te141  1  0.58497191  0.92087913  0.09579729  1
  Te  Te142  1  0.55914748  0.94812742  0.42921043  1
  Te  Te143  1  0.58820558  0.90839317  0.74978436  1
  Te  Te144  1  0.94545832  0.21087573  0.07763605  1
  Te  Te145  1  0.90475887  0.30458429  0.39011733  1
  Te  Te146  1  0.93083804  0.24973703  0.74429053  1
  Te  Te147  1  0.94684287  0.58444105  0.05557842  1
  Te  Te148  1  0.89409438  0.57175641  0.41921027  1
  Te  Te149  1  0.92704088  0.56671632  0.77165460  1
  Te  Te150  1  0.91311402  0.91337822  0.10958750  1
  Te  Te151  1  0.91481324  0.91234867  0.40308001  1
  Te  Te152  1  0.91246644  0.92132620  0.76683103  1
  Te  Te153  1  0.21729282  0.10554301  0.29127065  1
  Te  Te154  1  0.27626279  0.10908890  0.55218952  1
  Te  Te155  1  0.24483350  0.09126333  0.91882090  1
  Te  Te156  1  0.20854831  0.43393980  0.24716257  1
  Te  Te157  1  0.26299279  0.38605898  0.60708148  1
  Te  Te158  1  0.20507650  0.40593836  0.95633269  1
  Te  Te159  1  0.24227764  0.72434286  0.25608165  1
  Te  Te160  1  0.24253616  0.73585967  0.56376467  1
  Te  Te161  1  0.24715345  0.71982862  0.90226164  1
  Te  Te162  1  0.60780239  0.12070578  0.25292986  1
  Te  Te163  1  0.56462911  0.11851512  0.57472893  1
  Te  Te164  1  0.61522967  0.08246036  0.94191130  1
  Te  Te165  1  0.58844785  0.40434393  0.25055914  1
  Te  Te166  1  0.57937339  0.43905162  0.57393946  1
  Te  Te167  1  0.58911671  0.41466779  0.92805495  1
  Te  Te168  1  0.60413061  0.75392674  0.25407697  1
  Te  Te169  1  0.57704429  0.74655648  0.56074688  1
  Te  Te170  1  0.57767951  0.73387742  0.94238528  1
  Te  Te171  1  0.96115842  0.11300586  0.26751458  1
  Te  Te172  1  0.91208364  0.08334740  0.58751365  1
  Te  Te173  1  0.90442456  0.05311590  0.89054129  1
  Te  Te174  1  0.96447898  0.39670466  0.26595819  1
  Te  Te175  1  0.90941575  0.41574276  0.58539350  1
  Te  Te176  1  0.94356668  0.40281420  0.93722598  1
  Te  Te177  1  0.93839752  0.73948268  0.24402212  1
  Te  Te178  1  0.91768513  0.75333636  0.60726729  1
  Te  Te179  1  0.94462543  0.74226457  0.92070486  1
