# generated using pymatgen
data_In2Te3
_symmetry_space_group_name_H-M   'P 1'
_cell_length_a   18.79344245
_cell_length_b   18.79095947
_cell_length_c   18.78183485
_cell_angle_alpha   89.95277406
_cell_angle_beta   90.00022802
_cell_angle_gamma   90.01961379
_symmetry_Int_Tables_number   1
_chemical_formula_structural   In2Te3
_chemical_formula_sum   'In72 Te108'
_cell_volume   6632.74252543
_cell_formula_units_Z   36
loop_
 _symmetry_equiv_pos_site_id
 _symmetry_equiv_pos_as_xyz
  1  'x, y, z'
loop_
 _atom_site_type_symbol
 _atom_site_label
 _atom_site_symmetry_multiplicity
 _atom_site_fract_x
 _atom_site_fract_y
 _atom_site_fract_z
 _atom_site_occupancy
  In  In0  1  -0.01785112  0.16852542  0.81225079  1
  In  In1  1  0.84045161  0.33012042  0.80663419  1
  In  In2  1  0.51305413  0.64631409  0.47404043  1
  In  In3  1  0.01253711  0.66375796  0.64699047  1
  In  In4  1  -0.00936976  0.83308033  0.19513590  1
  In  In5  1  0.50749503  0.81281980  0.34060027  1
  In  In6  1  0.35278288  0.20087034  0.48717581  1
  In  In7  1  0.84493004  0.66705499  0.82851973  1
  In  In8  1  0.67674682  0.15297945  0.82065269  1
  In  In9  1  0.68052722  0.82242765  0.15043538  1
  In  In10  1  0.83287808  0.34026335  0.18010548  1
  In  In11  1  0.68540337  0.84248316  0.50011166  1
  In  In12  1  0.32412823  0.81703930  0.14988078  1
  In  In13  1  0.33658098  0.47693812  0.50241052  1
  In  In14  1  0.33269545  0.65321829  0.00785246  1
  In  In15  1  0.67087446  0.33230494  0.01930484  1
  In  In16  1  0.00924902  0.66296308  0.34047132  1
  In  In17  1  0.67613865  0.00220010  0.35422489  1
  In  In18  1  0.29007179  0.65617123  0.64276416  1
  In  In19  1  0.65673652  0.84901441  0.82154065  1
  In  In20  1  0.50049086  0.15066704  0.64661949  1
  In  In21  1  0.32398327  0.02129161  0.33586351  1
  In  In22  1  0.51045110  0.17071902  0.33856264  1
  In  In23  1  0.33104628  0.64649656  0.35897732  1
  In  In24  1  0.18079055  0.18008622  0.35787659  1
  In  In25  1  -0.00814801  0.18230177  0.16548789  1
  In  In26  1  0.82327903  0.00281757  0.81963096  1
  In  In27  1  0.50299228  0.48517804  0.67851020  1
  In  In28  1  0.47370318  0.65314590  0.84901536  1
  In  In29  1  0.82749297  0.00264876  0.50017428  1
  In  In30  1  0.33583699  0.01300930  0.67050057  1
  In  In31  1  -0.00740873  0.00380267  0.67478663  1
  In  In32  1  0.00882131  0.33970463  0.01060365  1
  In  In33  1  0.50078967  -0.00360795  0.17806585  1
  In  In34  1  0.16565034  0.66626888  0.80187423  1
  In  In35  1  0.17414809  0.48201479  0.66118396  1
  In  In36  1  0.68054802  0.32240677  0.63207233  1
  In  In37  1  0.00542736  0.83403170  0.49880678  1
  In  In38  1  0.49567341  0.85646182  0.67139269  1
  In  In39  1  0.18486986  0.35864721  0.20667589  1
  In  In40  1  0.47550081  0.64538839  0.16803336  1
  In  In41  1  0.82012852  0.50701760  0.31874791  1
  In  In42  1  0.51433333  0.19166541  -0.01190425  1
  In  In43  1  0.01716058  0.35135587  0.39580800  1
  In  In44  1  0.47514884  0.36771572  0.16686157  1
  In  In45  1  -0.00781192  0.00287289  -0.00749345  1
  In  In46  1  0.34646083  -0.01044839  -0.02246895  1
  In  In47  1  0.15471811  0.64353502  0.16845144  1
  In  In48  1  0.83540535  0.16303702  0.36117897  1
  In  In49  1  0.03444658  0.50397580  0.81256456  1
  In  In50  1  0.17443907  0.01177018  0.82413092  1
  In  In51  1  0.65455271  0.66387109  0.01719566  1
  In  In52  1  0.18984473  0.31843532  0.80350201  1
  In  In53  1  0.33727523  0.18501385  0.16611341  1
  In  In54  1  0.65485341  0.32887765  0.33939474  1
  In  In55  1  0.34245553  0.84325118  0.82120828  1
  In  In56  1  0.84338497  0.67721062  0.48936331  1
  In  In57  1  0.83034780  0.80172011  0.34617026  1
  In  In58  1  0.17946663  0.17012602  -0.00052983  1
  In  In59  1  0.17754219  0.02442007  0.49910368  1
  In  In60  1  0.16441398  0.84726133  -0.00589545  1
  In  In61  1  0.67238846  0.00662709  -0.00100236  1
  In  In62  1  0.17520994  0.48488937  -0.00316772  1
  In  In63  1  0.83547811  0.49106996  0.00738081  1
  In  In64  1  0.66391835  0.50946019  0.48672006  1
  In  In65  1  -0.03194195  0.65918903  0.00922145  1
  In  In66  1  0.67567254  0.65865186  0.65235038  1
  In  In67  1  0.03772561  0.01675265  0.34988098  1
  In  In68  1  0.66903453  0.46417704  0.83307845  1
  In  In69  1  0.14718631  0.83333555  0.34354712  1
  In  In70  1  0.82533692  0.00957045  0.14706278  1
  In  In71  1  0.48670454  0.33132468  0.83035344  1
  Te  Te72  1  0.08094207  0.08799069  0.08356029  1
  Te  Te73  1  0.06929840  0.12464066  0.45103838  1
  Te  Te74  1  0.09948813  0.10912643  0.73239016  1
  Te  Te75  1  0.08325392  0.42732187  0.10696845  1
  Te  Te76  1  0.11194022  0.45732044  0.43783334  1
  Te  Te77  1  0.05940737  0.37231642  0.72737189  1
  Te  Te78  1  0.08535647  0.75762711  0.09187649  1
  Te  Te79  1  0.10683619  0.72662018  0.45013187  1
  Te  Te80  1  0.07278415  0.76090493  0.74077381  1
  Te  Te81  1  0.42088474  0.08738627  0.08264850  1
  Te  Te82  1  0.42673559  0.07814977  0.43021721  1
  Te  Te83  1  0.42981564  0.08411275  0.75842630  1
  Te  Te84  1  0.40432422  0.45084667  0.06687618  1
  Te  Te85  1  0.40690098  0.41360496  0.38847052  1
  Te  Te86  1  0.39545250  0.40384496  0.73780405  1
  Te  Te87  1  0.43193317  0.75482184  0.06532768  1
  Te  Te88  1  0.40612275  0.75271579  0.43826647  1
  Te  Te89  1  0.40908377  0.73397555  0.73566973  1
  Te  Te90  1  0.73843309  0.10811773  0.08341052  1
  Te  Te91  1  0.71219232  0.11308412  0.45672312  1
  Te  Te92  1  0.75762113  0.08759779  0.71614325  1
  Te  Te93  1  0.73625429  0.43684252  0.11062535  1
  Te  Te94  1  0.75848721  0.41003561  0.41968930  1
  Te  Te95  1  0.75873897  0.42572594  0.71782278  1
  Te  Te96  1  0.77073934  0.73522048  0.07329470  1
  Te  Te97  1  0.71606062  0.71463739  0.40422779  1
  Te  Te98  1  0.75117027  0.75434635  0.74312072  1
  Te  Te99  1  0.07779719  0.25837118  0.26605954  1
  Te  Te100  1  0.05985986  0.30763319  0.57857940  1
  Te  Te101  1  0.08021430  0.24808929  0.91126253  1
  Te  Te102  1  0.09195690  0.56018012  0.27201730  1
  Te  Te103  1  0.07284558  0.54787509  0.57217324  1
  Te  Te104  1  0.09098782  0.59526112  0.92822790  1
  Te  Te105  1  0.09883946  0.93208820  0.23684902  1
  Te  Te106  1  0.09114198  0.92824235  0.58141254  1
  Te  Te107  1  0.07432855  0.91932533  0.89437612  1
  Te  Te108  1  0.40831448  0.26462143  0.27234851  1
  Te  Te109  1  0.42505571  0.26895330  0.59706188  1
  Te  Te110  1  0.39888106  0.25506077  0.92341730  1
  Te  Te111  1  0.40006058  0.55306770  0.26359940  1
  Te  Te112  1  0.42501152  0.58211293  0.58288455  1
  Te  Te113  1  0.41272888  0.54621676  0.93630219  1
  Te  Te114  1  0.40571282  0.90512806  0.25712529  1
  Te  Te115  1  0.40037631  0.91729745  0.57760538  1
  Te  Te116  1  0.44373533  0.90448944  0.90836127  1
  Te  Te117  1  0.75118591  0.23767735  0.25877463  1
  Te  Te118  1  0.77658071  0.25252004  0.54420559  1
  Te  Te119  1  0.74686467  0.25948818  0.90724684  1
  Te  Te120  1  0.72795413  0.61573198  0.28281089  1
  Te  Te121  1  0.77301335  0.57054099  0.57762072  1
  Te  Te122  1  0.74810994  0.57273495  0.90872082  1
  Te  Te123  1  0.75451013  0.91077194  0.25714385  1
  Te  Te124  1  0.74688281  0.92960304  0.60165557  1
  Te  Te125  1  0.75637861  0.90653951  0.92220364  1
  Te  Te126  1  0.24429967  0.27767369  0.08850783  1
  Te  Te127  1  0.23763193  0.28810627  0.44267043  1
  Te  Te128  1  0.24168971  0.21055468  0.71976708  1
  Te  Te129  1  0.26355378  0.55645889  0.10490128  1
  Te  Te130  1  0.23069825  0.56307344  0.43403121  1
  Te  Te131  1  0.26424633  0.55954082  0.75988266  1
  Te  Te132  1  0.25105987  0.93517866  0.08433828  1
  Te  Te133  1  0.25161132  0.91614305  0.42063302  1
  Te  Te134  1  0.23850181  0.90790833  0.73272833  1
  Te  Te135  1  0.57256055  0.25884999  0.11090336  1
  Te  Te136  1  0.56727064  0.26278485  0.43953538  1
  Te  Te137  1  0.59586673  0.26085165  0.74587983  1
  Te  Te138  1  0.57136047  0.56519598  0.08799669  1
  Te  Te139  1  0.57147511  0.55070823  0.37398304  1
  Te  Te140  1  0.59015957  0.58444982  0.75849684  1
  Te  Te141  1  0.57973606  0.91225738  0.07851817  1
  Te  Te142  1  0.57237216  0.91885529  0.42965880  1
  Te  Te143  1  0.59516155  0.94775832  0.73005272  1
  Te  Te144  1  0.89702750  0.25392599  0.06967048  1
  Te  Te145  1  0.90338957  0.26395776  0.45046049  1
  Te  Te146  1  0.90022814  0.23682557  0.70620996  1
  Te  Te147  1  0.92038442  0.56102524  0.10674162  1
  Te  Te148  1  0.92105857  0.56686812  0.42146807  1
  Te  Te149  1  0.92218381  0.57364991  0.73560032  1
  Te  Te150  1  0.91431478  0.90460045  0.08197893  1
  Te  Te151  1  0.92154834  0.91565977  0.39843279  1
  Te  Te152  1  0.91668933  0.90749803  0.75542854  1
  Te  Te153  1  0.23469778  0.09771966  0.23974326  1
  Te  Te154  1  0.25418249  0.12386809  0.58694967  1
  Te  Te155  1  0.27281977  0.09971972  0.90091509  1
  Te  Te156  1  0.29375382  0.42871556  0.28332921  1
  Te  Te157  1  0.25298024  0.38003475  0.58382629  1
  Te  Te158  1  0.25538286  0.39700604  0.90933345  1
  Te  Te159  1  0.24686135  0.74185871  0.25897972  1
  Te  Te160  1  0.20712931  0.75066521  0.57192821  1
  Te  Te161  1  0.25260171  0.74900623  0.91538953  1
  Te  Te162  1  0.60152458  0.08522997  0.24858565  1
  Te  Te163  1  0.59773788  0.08421148  0.56060645  1
  Te  Te164  1  0.57396923  0.07819098  0.90607253  1
  Te  Te165  1  0.58141413  0.42998414  0.25502303  1
  Te  Te166  1  0.57457924  0.41222749  0.56533375  1
  Te  Te167  1  0.57110468  0.41126751  0.93375398  1
  Te  Te168  1  0.58276470  0.73647351  0.23518254  1
  Te  Te169  1  0.57917950  0.74995848  0.57780005  1
  Te  Te170  1  0.58232527  0.74297230  0.90793337  1
  Te  Te171  1  0.92040245  0.07891604  0.25773132  1
  Te  Te172  1  0.93176689  0.08496877  0.56525467  1
  Te  Te173  1  0.89847054  0.09642494  0.91852593  1
  Te  Te174  1  0.92981023  0.40601689  0.27452293  1
  Te  Te175  1  0.94430387  0.38642727  0.61520434  1
  Te  Te176  1  0.92752635  0.42338796  0.90352183  1
  Te  Te177  1  0.90364058  0.71757434  0.24182410  1
  Te  Te178  1  0.90577377  0.76871478  0.59236022  1
  Te  Te179  1  0.93035173  0.75778284  0.90839316  1
