# generated using pymatgen
data_In2Te3
_symmetry_space_group_name_H-M   'P 1'
_cell_length_a   18.91000560
_cell_length_b   18.95478173
_cell_length_c   18.97544252
_cell_angle_alpha   89.82126932
_cell_angle_beta   90.17785870
_cell_angle_gamma   89.90801617
_symmetry_Int_Tables_number   1
_chemical_formula_structural   In2Te3
_chemical_formula_sum   'In72 Te108'
_cell_volume   6801.38855363
_cell_formula_units_Z   36
loop_
 _symmetry_equiv_pos_site_id
 _symmetry_equiv_pos_as_xyz
  1  'x, y, z'
loop_
 _atom_site_type_symbol
 _atom_site_label
 _atom_site_symmetry_multiplicity
 _atom_site_fract_x
 _atom_site_fract_y
 _atom_site_fract_z
 _atom_site_occupancy
  In  In0  1  0.83579769  0.31636189  0.49722142  1
  In  In1  1  -0.02902212  -0.02257538  0.01295224  1
  In  In2  1  0.52728898  0.16276072  0.02139739  1
  In  In3  1  0.16537126  0.69164407  0.85393617  1
  In  In4  1  0.33454658  0.32409556  0.02041287  1
  In  In5  1  0.68304246  0.49384387  0.50167039  1
  In  In6  1  0.34898651  0.52152734  0.15859663  1
  In  In7  1  0.66172823  0.32941422  0.31549932  1
  In  In8  1  0.34816168  0.15701368  0.82749885  1
  In  In9  1  0.85266268  0.13672654  0.68135464  1
  In  In10  1  0.48146831  0.15022325  0.34158813  1
  In  In11  1  0.69781770  0.83131501  0.83149412  1
  In  In12  1  0.53312812  0.35624284  0.13332550  1
  In  In13  1  0.16646403  0.65564139  0.49832293  1
  In  In14  1  0.66509651  -0.03522511  0.31393283  1
  In  In15  1  0.16159183  0.34224988  0.15298807  1
  In  In16  1  -0.00518916  0.64966306  0.28011033  1
  In  In17  1  -0.02288694  0.35047932  0.31239043  1
  In  In18  1  -0.09868678  0.55745534  0.91454727  1
  In  In19  1  0.32498848  0.00950351  -0.00996958  1
  In  In20  1  0.82838498  -0.00590485  0.84835047  1
  In  In21  1  0.65076392  -0.01512022  0.65913624  1
  In  In22  1  0.01364777  0.50038201  0.48079472  1
  In  In23  1  -0.04351219  0.17180244  0.14523027  1
  In  In24  1  0.19484515  -0.01215875  0.80934467  1
  In  In25  1  0.13480747  0.48983723  0.30500183  1
  In  In26  1  0.50492928  0.16177332  0.69086020  1
  In  In27  1  0.50668954  0.84800919  0.00674324  1
  In  In28  1  0.35546909  0.69068430  0.66945859  1
  In  In29  1  0.18057344  0.15761529  0.64473351  1
  In  In30  1  0.50422435  0.82035289  0.32285867  1
  In  In31  1  0.58328265  0.29854864  0.89524417  1
  In  In32  1  -0.02356659  0.33800351  0.68518017  1
  In  In33  1  0.68422447  0.68836192  0.66746224  1
  In  In34  1  0.82118495  0.58425939  0.23434368  1
  In  In35  1  0.71632768  0.13643985  0.15597778  1
  In  In36  1  0.83844834  0.50965104  0.70204220  1
  In  In37  1  0.69194307  0.67042737  0.02040627  1
  In  In38  1  0.48514117  0.33556505  0.50239649  1
  In  In39  1  0.11667119  -0.00447905  0.18059719  1
  In  In40  1  0.50880700  0.67935915  0.81450738  1
  In  In41  1  0.15311232  0.49702465  -0.00657231  1
  In  In42  1  0.16727319  0.50729042  0.65690945  1
  In  In43  1  0.13812854  0.32297223  0.82918980  1
  In  In44  1  0.32379838  0.68412599  0.31133125  1
  In  In45  1  0.12789436  0.83537314  0.00875709  1
  In  In46  1  0.00719065  0.15228706  0.86456961  1
  In  In47  1  0.00365431  -0.01952581  0.66535974  1
  In  In48  1  0.34507262  0.84091689  0.51395696  1
  In  In49  1  0.32769071  0.47617840  0.47976823  1
  In  In50  1  0.81730994  -0.05049911  0.46951374  1
  In  In51  1  0.83651592  0.13808385  0.34835527  1
  In  In52  1  0.33780371  0.51881811  0.85388602  1
  In  In53  1  0.00994402  0.84083067  0.49170982  1
  In  In54  1  0.15967766  0.16726565  0.33444598  1
  In  In55  1  0.33417592  0.31410669  0.34058751  1
  In  In56  1  0.32626392  0.17102772  0.19834346  1
  In  In57  1  0.35169843  0.68951327  -0.00304512  1
  In  In58  1  0.64060671  0.83857226  0.50191144  1
  In  In59  1  0.33852915  0.84663638  0.15359032  1
  In  In60  1  -0.00931161  0.81260368  0.84829382  1
  In  In61  1  0.52866706  0.65865035  0.51148832  1
  In  In62  1  0.84360135  0.68898380  0.47028271  1
  In  In63  1  0.52017801  -0.01057087  0.15939731  1
  In  In64  1  0.65791448  0.16290059  0.53363028  1
  In  In65  1  0.79926371  0.37098833  0.13833933  1
  In  In66  1  0.03026189  0.13932594  0.51418712  1
  In  In67  1  0.15091593  0.83192156  0.31072825  1
  In  In68  1  0.51133067  0.50928855  0.66177867  1
  In  In69  1  0.76885408  0.37033171  0.87954385  1
  In  In70  1  0.20233891  0.00697831  0.49574752  1
  In  In71  1  0.34563575  0.36074544  0.68015186  1
  Te  Te72  1  0.06363856  0.08839161  0.07598269  1
  Te  Te73  1  0.08426018  0.05381724  0.40409641  1
  Te  Te74  1  0.08034134  0.08773211  0.74103429  1
  Te  Te75  1  0.06197963  0.41812649  0.07735924  1
  Te  Te76  1  0.09136331  0.39056971  0.40916890  1
  Te  Te77  1  0.07148891  0.43599015  0.75256323  1
  Te  Te78  1  0.03717438  0.72715512  0.05433688  1
  Te  Te79  1  0.07934607  0.72515944  0.39435939  1
  Te  Te80  1  0.09137120  0.76658385  0.75249070  1
  Te  Te81  1  0.41148592  0.08633249  0.09580325  1
  Te  Te82  1  0.36722638  0.10707358  0.41779872  1
  Te  Te83  1  0.45340956  0.06246614  0.78894399  1
  Te  Te84  1  0.42835846  0.43702759  0.05837937  1
  Te  Te85  1  0.43412484  0.42184623  0.38854746  1
  Te  Te86  1  0.43762789  0.43382087  0.77493818  1
  Te  Te87  1  0.44252984  0.74820971  0.10393479  1
  Te  Te88  1  0.41658298  0.73537738  0.42745880  1
  Te  Te89  1  0.39872197  0.77504579  0.78245985  1
  Te  Te90  1  0.71192235  0.03350747  0.04715874  1
  Te  Te91  1  0.72610711  0.07197125  0.42960653  1
  Te  Te92  1  0.73673451  0.07126087  0.75202977  1
  Te  Te93  1  0.73023060  0.48080455  0.06036580  1
  Te  Te94  1  0.76110943  0.40864051  0.40268259  1
  Te  Te95  1  0.74232696  0.40807237  0.73808573  1
  Te  Te96  1  0.81421191  0.72639611  0.08947705  1
  Te  Te97  1  0.72243095  0.75457838  0.40924718  1
  Te  Te98  1  0.78517792  0.72905809  0.76845126  1
  Te  Te99  1  0.06747449  0.24638549  0.24012844  1
  Te  Te100  1  0.07412428  0.25722428  0.59620946  1
  Te  Te101  1  0.06730829  0.26218517  0.94077837  1
  Te  Te102  1  0.09426235  0.57963827  0.19812282  1
  Te  Te103  1  0.06166886  0.59487987  0.58986945  1
  Te  Te104  1  0.07502763  0.58440580  0.90143558  1
  Te  Te105  1  0.04141682  0.87321183  0.21704745  1
  Te  Te106  1  0.10880913  0.91656194  0.58019272  1
  Te  Te107  1  0.07841752  0.93544065  0.90383946  1
  Te  Te108  1  0.44109649  0.26460293  0.23462918  1
  Te  Te109  1  0.41126816  0.25029515  0.60025014  1
  Te  Te110  1  0.42760244  0.24645617  0.92783116  1
  Te  Te111  1  0.42913091  0.60427731  0.24915931  1
  Te  Te112  1  0.39948135  0.57066095  0.57585925  1
  Te  Te113  1  0.44701050  0.59509488  0.92613536  1
  Te  Te114  1  0.41758762  0.92682941  0.25429098  1
  Te  Te115  1  0.38885930  0.92960032  0.62182153  1
  Te  Te116  1  0.43662873  0.94523830  0.91878130  1
  Te  Te117  1  0.77390089  0.24424080  0.25697435  1
  Te  Te118  1  0.76417089  0.24122594  0.60659026  1
  Te  Te119  1  0.71702666  0.23005629  0.89942392  1
  Te  Te120  1  0.67608727  0.62139797  0.23478348  1
  Te  Te121  1  0.76828267  0.59363547  0.57921568  1
  Te  Te122  1  0.74801713  0.57428080  0.92037565  1
  Te  Te123  1  0.78743348  0.94744937  0.23458752  1
  Te  Te124  1  0.75351268  0.89256648  0.59198711  1
  Te  Te125  1  0.76164832  0.90307369  0.94509709  1
  Te  Te126  1  0.23825896  0.22865540  0.08715221  1
  Te  Te127  1  0.26022453  0.22264507  0.43345661  1
  Te  Te128  1  0.25000681  0.25464529  0.74886840  1
  Te  Te129  1  0.25532502  0.59161685  0.06137101  1
  Te  Te130  1  0.24209110  0.57095172  0.39534177  1
  Te  Te131  1  0.25778771  0.59208374  0.74734074  1
  Te  Te132  1  0.23089309  0.93394737  0.08372225  1
  Te  Te133  1  0.25363610  0.89659458  0.40366666  1
  Te  Te134  1  0.29048474  0.90320660  0.73913299  1
  Te  Te135  1  0.63163605  0.25042536  0.09194879  1
  Te  Te136  1  0.58619850  0.24531084  0.42421374  1
  Te  Te137  1  0.59005691  0.26402552  0.75253840  1
  Te  Te138  1  0.60846933  0.57519053  0.10121028  1
  Te  Te139  1  0.59227741  0.57197930  0.41519614  1
  Te  Te140  1  0.60825591  0.58408363  0.75004695  1
  Te  Te141  1  0.61529709  0.89568282  0.09745973  1
  Te  Te142  1  0.55562328  0.93047236  0.41569718  1
  Te  Te143  1  0.58855013  0.90160482  0.76186637  1
  Te  Te144  1  0.87717373  0.26865276  0.06765679  1
  Te  Te145  1  0.93784926  0.23642142  0.41731552  1
  Te  Te146  1  0.91211816  0.23708474  0.77731046  1
  Te  Te147  1  0.92003492  0.61684250  0.05775913  1
  Te  Te148  1  0.91517757  0.57486807  0.39505674  1
  Te  Te149  1  0.91197334  0.61368278  0.77258827  1
  Te  Te150  1  0.90002162  0.92167840  0.12912677  1
  Te  Te151  1  0.92269562  0.89557705  0.38615176  1
  Te  Te152  1  0.90857407  0.90546179  0.75313433  1
  Te  Te153  1  0.23488199  0.06349688  0.25301263  1
  Te  Te154  1  0.28804272  0.06183469  0.60689856  1
  Te  Te155  1  0.23298284  0.09815639  0.90729715  1
  Te  Te156  1  0.26485237  0.41268816  0.23971892  1
  Te  Te157  1  0.23910517  0.40085612  0.57649043  1
  Te  Te158  1  0.25394780  0.40344632  0.91107354  1
  Te  Te159  1  0.23359684  0.75124543  0.21026219  1
  Te  Te160  1  0.24181299  0.75118674  0.58640255  1
  Te  Te161  1  0.25290129  0.78620995  0.93349783  1
  Te  Te162  1  0.59521087  0.09460216  0.24985183  1
  Te  Te163  1  0.55014562  0.06832242  0.57831054  1
  Te  Te164  1  0.62558244  0.09097155  0.93682460  1
  Te  Te165  1  0.59712284  0.43688838  0.23806994  1
  Te  Te166  1  0.59131032  0.40548933  0.58575001  1
  Te  Te167  1  0.63530931  0.43059596  0.94288731  1
  Te  Te168  1  0.63038196  0.76729557  0.27059366  1
  Te  Te169  1  0.56243708  0.76524675  0.61042306  1
  Te  Te170  1  0.59258640  0.74874230  0.92280190  1
  Te  Te171  1  0.91096312  0.06499752  0.24120899  1
  Te  Te172  1  0.91061116  0.05877726  0.56286752  1
  Te  Te173  1  0.89389701  0.09089415  0.94464274  1
  Te  Te174  1  0.89816432  0.44607176  0.22593979  1
  Te  Te175  1  0.91362530  0.42400125  0.57371912  1
  Te  Te176  1  0.90592006  0.40965747  0.91442906  1
  Te  Te177  1  0.87021233  0.72543599  0.24801567  1
  Te  Te178  1  0.92137946  0.75749765  0.57292637  1
  Te  Te179  1  0.91215396  0.75782004  0.96483230  1
