# generated using pymatgen
data_In2Te3
_symmetry_space_group_name_H-M   'P 1'
_cell_length_a   18.82586861
_cell_length_b   18.83231549
_cell_length_c   18.81830275
_cell_angle_alpha   90.06152306
_cell_angle_beta   90.07108160
_cell_angle_gamma   90.06904463
_symmetry_Int_Tables_number   1
_chemical_formula_structural   In2Te3
_chemical_formula_sum   'In72 Te108'
_cell_volume   6671.72742679
_cell_formula_units_Z   36
loop_
 _symmetry_equiv_pos_site_id
 _symmetry_equiv_pos_as_xyz
  1  'x, y, z'
loop_
 _atom_site_type_symbol
 _atom_site_label
 _atom_site_symmetry_multiplicity
 _atom_site_fract_x
 _atom_site_fract_y
 _atom_site_fract_z
 _atom_site_occupancy
  In  In0  1  0.17348348  0.04606907  0.15419242  1
  In  In1  1  0.17170615  0.84668963  0.68623143  1
  In  In2  1  0.34214472  0.65787608  0.00847733  1
  In  In3  1  0.33658497  0.84683459  0.82197035  1
  In  In4  1  0.16180729  0.52031454  0.66580193  1
  In  In5  1  0.33406294  0.49644457  0.16950720  1
  In  In6  1  0.65331701  0.15786398  0.15889575  1
  In  In7  1  0.00377384  0.15956732  0.84380021  1
  In  In8  1  0.83112366  -0.00059266  0.13980924  1
  In  In9  1  0.68132166  0.02724787  0.65768171  1
  In  In10  1  0.84968692  0.16673658  0.31072093  1
  In  In11  1  0.49531219  0.82645014  0.67986997  1
  In  In12  1  0.51118787  0.50748033  -0.00611914  1
  In  In13  1  0.17535367  0.31985095  0.84530576  1
  In  In14  1  0.82947014  0.16835943  0.71536966  1
  In  In15  1  0.66511142  0.33844678  0.70169997  1
  In  In16  1  0.65641588  0.00264192  0.31487991  1
  In  In17  1  0.17630338  0.16831044  0.33504944  1
  In  In18  1  0.83224914  0.33833663  0.16379751  1
  In  In19  1  0.00964547  0.31759433  0.64697954  1
  In  In20  1  0.67718077  0.81081796  0.82685040  1
  In  In21  1  0.80477304  0.36381127  0.50958895  1
  In  In22  1  0.83895224  0.01157620  0.51651305  1
  In  In23  1  0.31399555  0.31903684  0.00356152  1
  In  In24  1  0.31335485  0.82847452  0.50203120  1
  In  In25  1  -0.02372755  0.65668903  0.35198838  1
  In  In26  1  0.83135259  0.48834248  0.00007121  1
  In  In27  1  -0.01096965  0.83473927  0.17886721  1
  In  In28  1  0.68323162  0.65228047  0.32093889  1
  In  In29  1  0.68170354  0.01329891  -0.00362347  1
  In  In30  1  0.45372235  0.03446028  0.45993883  1
  In  In31  1  0.14089952  0.86020584  -0.03101734  1
  In  In32  1  0.48668843  0.19221901  0.67499534  1
  In  In33  1  0.51774120  0.49957471  0.31837711  1
  In  In34  1  0.85053739  0.82921039  0.34385196  1
  In  In35  1  0.52062939  0.84249254  -0.02521548  1
  In  In36  1  0.47967208  0.32157186  0.50090375  1
  In  In37  1  0.32665959  0.50986749  0.52092530  1
  In  In38  1  0.17036427  0.67467022  0.51324657  1
  In  In39  1  0.49339189  0.31706140  0.84459749  1
  In  In40  1  -0.01601724  0.17199802  0.14136985  1
  In  In41  1  0.00396070  0.32881241  0.34741309  1
  In  In42  1  0.67581805  0.49603256  0.48301674  1
  In  In43  1  0.82851749  0.50171735  0.68083572  1
  In  In44  1  0.64789033  0.18113838  0.49644792  1
  In  In45  1  0.16746028  0.65943094  0.83191084  1
  In  In46  1  0.00363489  0.16658022  0.50453394  1
  In  In47  1  -0.03364301  0.80786938  0.53246223  1
  In  In48  1  0.68278389  0.50665575  0.84508918  1
  In  In49  1  0.15567966  0.48992994  0.34446938  1
  In  In50  1  -0.01474527  0.49420695  0.83951904  1
  In  In51  1  0.67477882  0.81148921  0.14142652  1
  In  In52  1  0.49012444  0.49194475  0.65706207  1
  In  In53  1  0.48050721  0.84025098  0.35006660  1
  In  In54  1  -0.00765270  0.86480200  0.80162201  1
  In  In55  1  0.46260528  0.02711766  0.12658096  1
  In  In56  1  0.51380181  0.31151635  0.17023470  1
  In  In57  1  0.68847272  0.85138668  0.51899515  1
  In  In58  1  0.65836928  0.35665483  0.35527505  1
  In  In59  1  0.31142170  0.31545453  0.68350491  1
  In  In60  1  0.31612744  0.85095133  0.16279745  1
  In  In61  1  0.51231508  0.01549650  0.84466547  1
  In  In62  1  0.00606195  0.66154907  -0.00530016  1
  In  In63  1  0.32075523  -0.00057565  0.65790488  1
  In  In64  1  0.84451062  0.81760273  0.01716971  1
  In  In65  1  0.17026706  0.84414948  0.32946801  1
  In  In66  1  0.18380075  0.66350745  0.16620977  1
  In  In67  1  0.67567332  0.66596467  0.66916848  1
  In  In68  1  0.04064743  0.47200845  0.12916793  1
  In  In69  1  0.15945551  -0.01037026  0.49812211  1
  In  In70  1  0.51388032  0.65785628  0.15611214  1
  In  In71  1  0.32510430  0.32087396  0.32731976  1
  Te  Te72  1  0.07519445  0.09342319  0.05164491  1
  Te  Te73  1  0.07476312  0.07648158  0.40471663  1
  Te  Te74  1  0.08641440  0.05976712  0.77023353  1
  Te  Te75  1  0.10845727  0.36055737  0.05546261  1
  Te  Te76  1  0.08209497  0.40913306  0.44362895  1
  Te  Te77  1  0.08497960  0.41135414  0.74935004  1
  Te  Te78  1  0.09595361  0.76004894  0.08600591  1
  Te  Te79  1  0.07634668  0.76133792  0.41650881  1
  Te  Te80  1  0.07534805  0.74585462  0.74725005  1
  Te  Te81  1  0.37615358  0.13392370  0.05814813  1
  Te  Te82  1  0.37083885  0.12519285  0.37997839  1
  Te  Te83  1  0.41226765  0.08297348  0.75088199  1
  Te  Te84  1  0.42722375  0.41238861  0.08350738  1
  Te  Te85  1  0.41598981  0.42760752  0.41046720  1
  Te  Te86  1  0.40953428  0.40908162  0.75537257  1
  Te  Te87  1  0.42219045  0.76736902  0.08491634  1
  Te  Te88  1  0.40798566  0.74144539  0.42958035  1
  Te  Te89  1  0.43128003  0.74115776  0.78154930  1
  Te  Te90  1  0.77263051  0.11966492  0.06973019  1
  Te  Te91  1  0.74548644  0.08405635  0.41728217  1
  Te  Te92  1  0.74833231  0.06386144  0.78956968  1
  Te  Te93  1  0.74163940  0.38378542  0.05653471  1
  Te  Te94  1  0.78784251  0.45254526  0.37136746  1
  Te  Te95  1  0.77570783  0.40088520  0.78293462  1
  Te  Te96  1  0.75589575  0.71119794  0.07113596  1
  Te  Te97  1  0.75184391  0.74873569  0.42457046  1
  Te  Te98  1  0.78337351  0.73994202  0.74524013  1
  Te  Te99  1  0.07481389  0.24129904  0.24551320  1
  Te  Te100  1  0.10687775  0.21562452  0.60050937  1
  Te  Te101  1  0.10980149  0.22063257  0.94203085  1
  Te  Te102  1  0.08146060  0.58795849  0.25010893  1
  Te  Te103  1  0.06789971  0.59389033  0.57915221  1
  Te  Te104  1  0.09543079  0.56118187  0.92377121  1
  Te  Te105  1  0.09543507  0.93157780  0.23206474  1
  Te  Te106  1  0.07044204  0.90725831  0.59017340  1
  Te  Te107  1  0.06515308  0.96670429  0.89087890  1
  Te  Te108  1  0.39609395  0.23886701  0.22545676  1
  Te  Te109  1  0.38247333  0.23178367  0.57105289  1
  Te  Te110  1  0.39378126  0.22854987  0.91298998  1
  Te  Te111  1  0.41522710  0.59437385  0.25331917  1
  Te  Te112  1  0.42639004  0.59959388  0.58118936  1
  Te  Te113  1  0.42041768  0.58608701  0.90752455  1
  Te  Te114  1  0.41992634  0.92951350  0.24267014  1
  Te  Te115  1  0.42120864  0.91643445  0.57817797  1
  Te  Te116  1  0.40768675  0.93699605  0.92788638  1
  Te  Te117  1  0.73278495  0.24889314  0.25984818  1
  Te  Te118  1  0.74622560  0.24291135  0.59843177  1
  Te  Te119  1  0.78265400  0.20133825  0.86453446  1
  Te  Te120  1  0.73865911  0.53862837  0.24741000  1
  Te  Te121  1  0.76248650  0.58678214  0.56969689  1
  Te  Te122  1  0.77949423  0.59562008  0.91146553  1
  Te  Te123  1  0.75817191  0.91062195  0.24512729  1
  Te  Te124  1  0.78319101  0.91020045  0.62657027  1
  Te  Te125  1  0.75622250  0.90162964  0.92332810  1
  Te  Te126  1  0.20838936  0.24862845  0.08267801  1
  Te  Te127  1  0.22599370  0.27417507  0.42566876  1
  Te  Te128  1  0.24552218  0.21441902  0.76754827  1
  Te  Te129  1  0.23930571  0.56100876  0.06813985  1
  Te  Te130  1  0.24961310  0.58820466  0.41441262  1
  Te  Te131  1  0.26410766  0.58438097  0.75089592  1
  Te  Te132  1  0.24103852  0.93693621  0.06075283  1
  Te  Te133  1  0.26676723  0.93533749  0.40403032  1
  Te  Te134  1  0.23355092  0.95308028  0.77691462  1
  Te  Te135  1  0.57953602  0.23884420  0.05708044  1
  Te  Te136  1  0.55662919  0.24581163  0.39276761  1
  Te  Te137  1  0.59707410  0.22409388  0.77457058  1
  Te  Te138  1  0.61002301  0.58154488  0.07750320  1
  Te  Te139  1  0.57903192  0.59525531  0.42015593  1
  Te  Te140  1  0.58497568  0.57256295  0.74818326  1
  Te  Te141  1  0.58747793  0.92779521  0.09196850  1
  Te  Te142  1  0.58695653  0.92771175  0.42907167  1
  Te  Te143  1  0.59286847  0.92269785  0.75038069  1
  Te  Te144  1  0.92194138  0.27868612  0.05554217  1
  Te  Te145  1  0.89140484  0.25161931  0.43137341  1
  Te  Te146  1  0.92944501  0.27231670  0.76719940  1
  Te  Te147  1  0.93193343  0.57072112  0.09003769  1
  Te  Te148  1  0.89455589  0.55951917  0.42094924  1
  Te  Te149  1  0.92396989  0.59413710  0.74837220  1
  Te  Te150  1  0.94138590  0.92655320  0.06546814  1
  Te  Te151  1  0.92983505  0.92432383  0.42989814  1
  Te  Te152  1  0.89975020  0.95043944  0.72567426  1
  Te  Te153  1  0.27667355  0.08425350  0.25812216  1
  Te  Te154  1  0.23064833  0.09009345  0.58191976  1
  Te  Te155  1  0.29095815  0.06193940  0.96230275  1
  Te  Te156  1  0.23279245  0.40842649  0.24038986  1
  Te  Te157  1  0.23654028  0.40956192  0.58779430  1
  Te  Te158  1  0.26478291  0.41988810  0.90816353  1
  Te  Te159  1  0.26716055  0.74656913  0.26341933  1
  Te  Te160  1  0.26049441  0.74419735  0.61720666  1
  Te  Te161  1  0.24898072  0.75983267  0.92547143  1
  Te  Te162  1  0.55043954  0.08496770  0.24473911  1
  Te  Te163  1  0.56064976  0.08693186  0.58021009  1
  Te  Te164  1  0.57038731  0.10286134  0.95183682  1
  Te  Te165  1  0.60824359  0.42438858  0.22284565  1
  Te  Te166  1  0.59355336  0.40049372  0.57735171  1
  Te  Te167  1  0.59517107  0.40323096  0.91894283  1
  Te  Te168  1  0.58562534  0.76306849  0.25744458  1
  Te  Te169  1  0.58753911  0.75414705  0.58105471  1
  Te  Te170  1  0.59574447  0.73037936  0.92016774  1
  Te  Te171  1  0.92841891  0.06078567  0.24254960  1
  Te  Te172  1  0.92675833  0.08819782  0.61458225  1
  Te  Te173  1  0.88532733  0.10617047  0.91961890  1
  Te  Te174  1  0.94546682  0.41393333  0.23431733  1
  Te  Te175  1  0.92172803  0.42530528  0.58432744  1
  Te  Te176  1  0.93662873  0.39589533  0.94189187  1
  Te  Te177  1  0.89721325  0.72848296  0.23942197  1
  Te  Te178  1  0.88327409  0.72595684  0.62083573  1
  Te  Te179  1  0.93695691  0.76358647  0.90809643  1
