# generated using pymatgen
data_In2Te3
_symmetry_space_group_name_H-M   'P 1'
_cell_length_a   18.80290900
_cell_length_b   18.79111054
_cell_length_c   18.77577177
_cell_angle_alpha   89.99589315
_cell_angle_beta   89.92589459
_cell_angle_gamma   90.03441861
_symmetry_Int_Tables_number   1
_chemical_formula_structural   In2Te3
_chemical_formula_sum   'In72 Te108'
_cell_volume   6633.99051716
_cell_formula_units_Z   36
loop_
 _symmetry_equiv_pos_site_id
 _symmetry_equiv_pos_as_xyz
  1  'x, y, z'
loop_
 _atom_site_type_symbol
 _atom_site_label
 _atom_site_symmetry_multiplicity
 _atom_site_fract_x
 _atom_site_fract_y
 _atom_site_fract_z
 _atom_site_occupancy
  In  In0  1  0.48406198  0.53121481  0.00662705  1
  In  In1  1  0.66422372  0.67136328  0.63469960  1
  In  In2  1  0.00429282  0.49243857  0.47785898  1
  In  In3  1  0.51142367  0.16066199  0.33965346  1
  In  In4  1  -0.00810258  -0.00909092  0.65693333  1
  In  In5  1  0.82845249  0.00956033  0.16215598  1
  In  In6  1  0.84549339  0.00735869  0.49299382  1
  In  In7  1  0.68236064  0.34145951  0.00519237  1
  In  In8  1  0.13762432  0.35179778  0.14894593  1
  In  In9  1  0.49432864  0.14892752  0.01369345  1
  In  In10  1  0.67899315  0.33128293  0.66365632  1
  In  In11  1  0.84769888  0.17108052  0.31732281  1
  In  In12  1  0.68370173  0.32719676  0.31323821  1
  In  In13  1  0.65997752  0.14411900  0.84622539  1
  In  In14  1  0.00300803  0.18281352  0.84297253  1
  In  In15  1  -0.01200344  0.82935857  0.48340523  1
  In  In16  1  0.32039317  0.02315598  0.30090250  1
  In  In17  1  0.33717218  0.35426690  0.35509421  1
  In  In18  1  0.32820945  0.48566510  0.50521868  1
  In  In19  1  0.13380709  0.49561781  0.29929093  1
  In  In20  1  0.82721631  0.32299680  0.49734399  1
  In  In21  1  0.84290706  0.67174010  0.49081267  1
  In  In22  1  0.72050051  0.51338556  0.18435565  1
  In  In23  1  0.83575346  0.01336022  0.85380095  1
  In  In24  1  0.67383785  0.50943535  0.84927002  1
  In  In25  1  0.15819852  0.68051916  0.49092121  1
  In  In26  1  0.15005513  0.14485771  0.01665126  1
  In  In27  1  0.65410068  0.85056549  0.83870456  1
  In  In28  1  0.49640282  0.48400462  0.68053560  1
  In  In29  1  0.31782374  0.67421894  0.32628076  1
  In  In30  1  0.85288401  0.17879112  0.03047542  1
  In  In31  1  0.15755256  0.82532694  0.68855387  1
  In  In32  1  0.67988942  0.66734022  -0.01817747  1
  In  In33  1  0.48726367  0.32368735  0.49626642  1
  In  In34  1  0.17741611  0.50118458  0.67467877  1
  In  In35  1  0.17576066  0.01453874  0.46792100  1
  In  In36  1  0.50796601  -0.00674349  0.15139988  1
  In  In37  1  0.49197829  0.13382809  0.67078679  1
  In  In38  1  0.00467192  0.32488916  0.65214200  1
  In  In39  1  0.84304937  0.64553696  0.84383667  1
  In  In40  1  0.16345818  0.30964030  0.84393719  1
  In  In41  1  0.35082825  0.85224848  0.86487037  1
  In  In42  1  0.32297270  0.53612254  0.15750642  1
  In  In43  1  0.51858283  0.66233409  0.49934295  1
  In  In44  1  0.36121759  0.87294561  0.52941424  1
  In  In45  1  0.64796617  0.00355428  0.67401322  1
  In  In46  1  0.49887944  0.68166967  0.15751124  1
  In  In47  1  0.02371516  0.82640363  0.86329000  1
  In  In48  1  0.49863863  0.68222916  0.85479991  1
  In  In49  1  0.67507021  -0.01534405  0.33171016  1
  In  In50  1  0.64900910  0.84299965  0.49811484  1
  In  In51  1  0.16573693  0.83274165  0.30460657  1
  In  In52  1  0.68963715  0.50275765  0.47061963  1
  In  In53  1  0.31441464  0.66238549  0.69406656  1
  In  In54  1  0.51166217  0.82597607  0.32512184  1
  In  In55  1  0.32649832  0.31841327  -0.00864651  1
  In  In56  1  0.82704689  0.82202533  -0.00679732  1
  In  In57  1  0.17222086  -0.01617731  0.85228081  1
  In  In58  1  0.35079521  0.14555035  0.17264882  1
  In  In59  1  0.52331682  0.33809583  0.15885431  1
  In  In60  1  0.47671149  0.33996670  0.82577518  1
  In  In61  1  -0.00701738  0.81314278  0.15589484  1
  In  In62  1  0.16438536  0.17924059  0.67200360  1
  In  In63  1  0.01443914  0.51979726  0.87117035  1
  In  In64  1  0.32122912  0.67618773  -0.00302657  1
  In  In65  1  0.14986802  0.64954862  0.15443467  1
  In  In66  1  0.82653507  0.83357128  0.32746731  1
  In  In67  1  0.33726116  0.16739215  0.52262918  1
  In  In68  1  0.83409489  0.81377686  0.67845028  1
  In  In69  1  0.14679143  0.35798091  0.49388706  1
  In  In70  1  0.85796449  0.35046779  0.83477995  1
  In  In71  1  0.15589700  0.17584206  0.31184832  1
  Te  Te72  1  0.06571992  0.07893916  0.12024883  1
  Te  Te73  1  0.07136463  0.08849503  0.39775324  1
  Te  Te74  1  0.07595138  0.07394960  0.75663705  1
  Te  Te75  1  0.04941711  0.45416824  0.07582112  1
  Te  Te76  1  0.05520251  0.38717886  0.37525252  1
  Te  Te77  1  0.08014892  0.40792929  0.75483588  1
  Te  Te78  1  0.09417892  0.75318009  0.06220714  1
  Te  Te79  1  0.06754179  0.74241270  0.38656485  1
  Te  Te80  1  0.06382573  0.73387744  0.75414258  1
  Te  Te81  1  0.37009282  0.04326174  0.05288190  1
  Te  Te82  1  0.40693873  0.08130038  0.41698281  1
  Te  Te83  1  0.40745614  0.04193104  0.74783240  1
  Te  Te84  1  0.41386736  0.41913574  0.08618500  1
  Te  Te85  1  0.44497835  0.44523266  0.41314895  1
  Te  Te86  1  0.38311844  0.43392030  0.76050440  1
  Te  Te87  1  0.40699788  0.76544569  0.07825553  1
  Te  Te88  1  0.41228518  0.74792322  0.42145320  1
  Te  Te89  1  0.41464102  0.75958115  0.75428263  1
  Te  Te90  1  0.74392829  0.08461510  0.06523704  1
  Te  Te91  1  0.74981468  0.09090201  0.40969097  1
  Te  Te92  1  0.75833253  0.08460356  0.74361968  1
  Te  Te93  1  0.77845608  0.39939479  0.10461965  1
  Te  Te94  1  0.78275402  0.41906208  0.38403165  1
  Te  Te95  1  0.75907891  0.43074721  0.74966379  1
  Te  Te96  1  0.75961506  0.73023977  0.08902733  1
  Te  Te97  1  0.73415220  0.74821948  0.41519611  1
  Te  Te98  1  0.73485743  0.73883310  0.76861170  1
  Te  Te99  1  0.05650879  0.24087309  0.21388571  1
  Te  Te100  1  0.08100167  0.23428874  0.55629249  1
  Te  Te101  1  0.06974998  0.26065635  0.95524047  1
  Te  Te102  1  0.04256904  0.60307851  0.24979023  1
  Te  Te103  1  0.08577750  0.57776543  0.57734026  1
  Te  Te104  1  0.11409392  0.60493326  0.93853893  1
  Te  Te105  1  0.06574543  0.91620815  0.23689151  1
  Te  Te106  1  0.08817041  0.90867025  0.56852205  1
  Te  Te107  1  0.09243257  0.91748804  0.95786818  1
  Te  Te108  1  0.42479615  0.26093085  0.26055090  1
  Te  Te109  1  0.41773011  0.26020343  0.61362304  1
  Te  Te110  1  0.41424851  0.22517406  0.90809968  1
  Te  Te111  1  0.42432720  0.58744204  0.25730528  1
  Te  Te112  1  0.41037674  0.58639075  0.58972287  1
  Te  Te113  1  0.39362334  0.57925922  0.89662770  1
  Te  Te114  1  0.41247147  0.91267647  0.24386240  1
  Te  Te115  1  0.43568750  0.97953623  0.61313424  1
  Te  Te116  1  0.44039492  0.94427860  0.94087691  1
  Te  Te117  1  0.75828771  0.24055731  0.21977902  1
  Te  Te118  1  0.74727168  0.23070153  0.58163568  1
  Te  Te119  1  0.76111863  0.24861646  0.91078055  1
  Te  Te120  1  0.80060702  0.60464089  0.26917280  1
  Te  Te121  1  0.76728374  0.57432656  0.58480185  1
  Te  Te122  1  0.77926028  0.55341222  0.94874508  1
  Te  Te123  1  0.73653395  0.90041476  0.22243242  1
  Te  Te124  1  0.76060945  0.90867137  0.58411438  1
  Te  Te125  1  0.73617286  0.93293160  0.93668606  1
  Te  Te126  1  0.25256368  0.24391800  0.10358930  1
  Te  Te127  1  0.25034063  0.24590497  0.41861608  1
  Te  Te128  1  0.26366377  0.23207963  0.76624390  1
  Te  Te129  1  0.22082030  0.55627940  0.04419239  1
  Te  Te130  1  0.23447077  0.56805036  0.40879114  1
  Te  Te131  1  0.20918888  0.60236856  0.78058257  1
  Te  Te132  1  0.27628548  0.95085519  0.13452642  1
  Te  Te133  1  0.25959974  0.90478982  0.40396725  1
  Te  Te134  1  0.26136424  0.91614582  0.74849558  1
  Te  Te135  1  0.60111796  0.23271117  0.08209577  1
  Te  Te136  1  0.59991501  0.25432159  0.42123831  1
  Te  Te137  1  0.58854121  0.25405730  0.76213638  1
  Te  Te138  1  0.60459956  0.57366091  0.08685434  1
  Te  Te139  1  0.60453073  0.59905056  0.39792227  1
  Te  Te140  1  0.58139575  0.59042777  0.75404858  1
  Te  Te141  1  0.56513457  0.88746019  0.06733110  1
  Te  Te142  1  0.55973315  0.93734280  0.42050225  1
  Te  Te143  1  0.55428879  0.91763991  0.75159431  1
  Te  Te144  1  0.92677636  0.26736066  0.12741978  1
  Te  Te145  1  0.92735385  0.26048640  0.40595190  1
  Te  Te146  1  0.90875245  0.24229241  0.73882372  1
  Te  Te147  1  0.94531046  0.55582162  0.12289548  1
  Te  Te148  1  0.91336343  0.57963840  0.39564667  1
  Te  Te149  1  0.93131136  0.56667940  0.75692585  1
  Te  Te150  1  0.91461019  0.91700103  0.07286500  1
  Te  Te151  1  0.92662164  0.93146482  0.38833608  1
  Te  Te152  1  0.91388105  0.90663573  0.77190431  1
  Te  Te153  1  0.19606508  0.05704039  0.21232458  1
  Te  Te154  1  0.24207076  0.07088133  0.59321054  1
  Te  Te155  1  0.24452848  0.09882944  0.91183853  1
  Te  Te156  1  0.25484177  0.41602574  0.24081680  1
  Te  Te157  1  0.25248508  0.39031665  0.59798846  1
  Te  Te158  1  0.23865137  0.41266740  0.92096097  1
  Te  Te159  1  0.25481859  0.75023881  0.21171217  1
  Te  Te160  1  0.25593284  0.75519656  0.58025853  1
  Te  Te161  1  0.23897622  0.77254151  0.92023251  1
  Te  Te162  1  0.59526835  0.08125940  0.24022797  1
  Te  Te163  1  0.59249060  0.09329337  0.57038279  1
  Te  Te164  1  0.56085971  0.05498593  0.91522194  1
  Te  Te165  1  0.59682148  0.43466508  0.24787172  1
  Te  Te166  1  0.59142887  0.42598896  0.57490175  1
  Te  Te167  1  0.56942943  0.41707829  0.92377473  1
  Te  Te168  1  0.60205837  0.74523211  0.24202152  1
  Te  Te169  1  0.55757233  0.77380351  0.59900183  1
  Te  Te170  1  0.57053297  0.77473836  0.95478676  1
  Te  Te171  1  0.93841730  0.08252383  0.23307605  1
  Te  Te172  1  0.92441767  0.09607851  0.58003000  1
  Te  Te173  1  0.93749784  0.08436125  0.94054852  1
  Te  Te174  1  0.93377356  0.42090287  0.18812777  1
  Te  Te175  1  0.91377380  0.42181424  0.57945479  1
  Te  Te176  1  0.93706308  0.41278059  0.94282367  1
  Te  Te177  1  0.88568437  0.73330964  0.22971839  1
  Te  Te178  1  0.93549804  0.73740014  0.59463520  1
  Te  Te179  1  0.93176854  0.72579741  0.93765918  1
