# generated using pymatgen
data_In2Te3
_symmetry_space_group_name_H-M   'P 1'
_cell_length_a   19.03468323
_cell_length_b   19.02801343
_cell_length_c   19.03996446
_cell_angle_alpha   89.97394568
_cell_angle_beta   90.06914213
_cell_angle_gamma   89.95464847
_symmetry_Int_Tables_number   1
_chemical_formula_structural   In2Te3
_chemical_formula_sum   'In72 Te108'
_cell_volume   6896.11887335
_cell_formula_units_Z   36
loop_
 _symmetry_equiv_pos_site_id
 _symmetry_equiv_pos_as_xyz
  1  'x, y, z'
loop_
 _atom_site_type_symbol
 _atom_site_label
 _atom_site_symmetry_multiplicity
 _atom_site_fract_x
 _atom_site_fract_y
 _atom_site_fract_z
 _atom_site_occupancy
  In  In0  1  0.32292066  0.31456907  -0.00351472  1
  In  In1  1  0.36372837  0.50998575  0.53441868  1
  In  In2  1  0.84173808  0.65409915  0.16193385  1
  In  In3  1  0.00056212  0.49816319  0.84464932  1
  In  In4  1  0.66413573  0.85192486  0.79947729  1
  In  In5  1  0.47839170  0.16722330  0.33155668  1
  In  In6  1  0.65438222  0.15691914  0.82523712  1
  In  In7  1  0.33468838  0.82215528  0.48736966  1
  In  In8  1  0.35353140  -0.02614287  0.68088027  1
  In  In9  1  0.68878444  -0.01836040  0.32351196  1
  In  In10  1  0.03444999  0.65323025  -0.00623915  1
  In  In11  1  0.16582861  0.18098546  0.01245949  1
  In  In12  1  0.83635594  0.34113749  0.81980349  1
  In  In13  1  0.16181757  0.00378331  0.84171782  1
  In  In14  1  0.65347194  0.36293882  -0.01389958  1
  In  In15  1  -0.02147099  0.68498901  0.36185465  1
  In  In16  1  0.13915389  0.81103301  0.66121555  1
  In  In17  1  0.85942036  0.49537303  0.32488393  1
  In  In18  1  -0.01908110  0.16313921  0.50083249  1
  In  In19  1  0.17303538  0.65980086  0.16922144  1
  In  In20  1  0.15167881  0.33852752  0.47081159  1
  In  In21  1  0.63824126  0.14056216  0.48764297  1
  In  In22  1  0.15884891  0.51962046  0.35216224  1
  In  In23  1  0.52500625  0.34517805  0.17699058  1
  In  In24  1  0.33977464  0.17090149  0.80523531  1
  In  In25  1  0.48415770  0.82286795  -0.00207113  1
  In  In26  1  0.82890552  0.34902164  0.50702206  1
  In  In27  1  0.00630792  0.81907777  0.82624260  1
  In  In28  1  0.49716177  0.83285063  0.31508354  1
  In  In29  1  0.67155737  0.82549777  0.14971867  1
  In  In30  1  0.51719614  0.14250766  0.64417991  1
  In  In31  1  0.17941985  0.15160542  0.31521115  1
  In  In32  1  0.18136397  -0.01036216  0.51705306  1
  In  In33  1  0.65363857  0.51528534  0.18112918  1
  In  In34  1  0.16163749  0.16493427  0.66045210  1
  In  In35  1  0.50795375  0.32798390  0.50434614  1
  In  In36  1  0.48716678  0.67030737  0.17350680  1
  In  In37  1  0.51279748  0.66234761  0.81981574  1
  In  In38  1  0.02023720  0.20000532  0.16195429  1
  In  In39  1  0.32879646  0.81641202  0.84535768  1
  In  In40  1  0.82137964  0.18100110  0.33486769  1
  In  In41  1  0.33418264  0.51481061  0.16164368  1
  In  In42  1  0.65793435  0.53267849  0.46855832  1
  In  In43  1  0.80023240  0.67702426  0.83487599  1
  In  In44  1  0.68265854  0.73121993  0.51920514  1
  In  In45  1  0.17128692  0.33623288  0.84952167  1
  In  In46  1  0.17960777  0.51257980  0.66950796  1
  In  In47  1  0.03654181  0.46880897  0.15843323  1
  In  In48  1  -0.02340370  -0.00695197  0.67545294  1
  In  In49  1  -0.01390517  -0.02250405  0.37240153  1
  In  In50  1  0.83765935  0.17545418  0.67096910  1
  In  In51  1  0.17616770  0.82931360  0.00321154  1
  In  In52  1  -0.02707982  0.68335681  0.64777012  1
  In  In53  1  0.48148415  0.01609420  0.16204980  1
  In  In54  1  0.50735088  0.01015976  0.48352374  1
  In  In55  1  0.82041202  0.51435776  -0.01461972  1
  In  In56  1  0.81976507  0.50596756  0.66089914  1
  In  In57  1  0.15902599  0.66291642  0.50624821  1
  In  In58  1  0.85052670  0.03295046  0.16007107  1
  In  In59  1  0.84760579  -0.00558472  0.86074983  1
  In  In60  1  0.32817524  -0.00313379  0.02325701  1
  In  In61  1  0.68324292  0.16847311  0.16439782  1
  In  In62  1  0.32225430  0.33542146  0.33452298  1
  In  In63  1  0.49503075  0.16098591  -0.02595595  1
  In  In64  1  0.37567810  0.37317140  0.66688052  1
  In  In65  1  0.48715842  0.50529425  -0.01956736  1
  In  In66  1  0.84195740  0.82906721  0.01856536  1
  In  In67  1  0.32587121  0.83517942  0.18460302  1
  In  In68  1  -0.00516035  0.86693685  0.18790915  1
  In  In69  1  0.36001161  0.64694235  0.68559907  1
  In  In70  1  0.68005110  0.34293849  0.66490769  1
  In  In71  1  0.84511335  0.17747558  0.00255899  1
  Te  Te72  1  0.09090052  0.08996050  0.09732311  1
  Te  Te73  1  0.09193713  0.08455802  0.43441515  1
  Te  Te74  1  0.07166377  0.08543780  0.75239512  1
  Te  Te75  1  0.10417743  0.37319700  0.06798100  1
  Te  Te76  1  0.05927494  0.44199939  0.42657016  1
  Te  Te77  1  0.08998672  0.42008927  0.75058370  1
  Te  Te78  1  0.07044275  0.76083372  0.09598403  1
  Te  Te79  1  0.08894948  0.75851106  0.42219850  1
  Te  Te80  1  0.08262869  0.70995628  0.75711230  1
  Te  Te81  1  0.39899423  0.11540818  0.08367325  1
  Te  Te82  1  0.39492460  0.08381155  0.42041040  1
  Te  Te83  1  0.44138820  0.07078390  0.75576801  1
  Te  Te84  1  0.42245147  0.41031648  0.08358142  1
  Te  Te85  1  0.41359861  0.41512589  0.42532432  1
  Te  Te86  1  0.47635761  0.44999677  0.73992356  1
  Te  Te87  1  0.38865896  0.74332468  0.08256242  1
  Te  Te88  1  0.42239449  0.74272382  0.40199851  1
  Te  Te89  1  0.42734618  0.77021378  0.74449106  1
  Te  Te90  1  0.74191780  0.07566194  0.06443934  1
  Te  Te91  1  0.75725759  0.07289189  0.42047940  1
  Te  Te92  1  0.76558723  0.07847245  0.76103046  1
  Te  Te93  1  0.74028427  0.43236297  0.08720827  1
  Te  Te94  1  0.74769136  0.42436828  0.40751645  1
  Te  Te95  1  0.73467286  0.43972936  0.76719728  1
  Te  Te96  1  0.74492689  0.72241170  0.06769912  1
  Te  Te97  1  0.76694826  0.78506099  0.40891963  1
  Te  Te98  1  0.73632487  0.74720440  0.72511927  1
  Te  Te99  1  0.09174166  0.25948201  0.27415581  1
  Te  Te100  1  0.07605536  0.25422795  0.57513930  1
  Te  Te101  1  0.07306686  0.27425171  0.94269663  1
  Te  Te102  1  0.06292566  0.58850747  0.25282129  1
  Te  Te103  1  0.06652498  0.57892693  0.58950735  1
  Te  Te104  1  0.10923722  0.54434707  0.93305607  1
  Te  Te105  1  0.08864943  0.92263107  0.28374053  1
  Te  Te106  1  0.06485743  0.91396791  0.58160757  1
  Te  Te107  1  0.07477424  0.91283826  0.92313898  1
  Te  Te108  1  0.41204308  0.26215482  0.23599872  1
  Te  Te109  1  0.41764696  0.24464710  0.59037363  1
  Te  Te110  1  0.42359240  0.26300339  0.88947242  1
  Te  Te111  1  0.41678760  0.57918043  0.26678598  1
  Te  Te112  1  0.46743588  0.61529631  0.57561182  1
  Te  Te113  1  0.41547061  0.61668119  0.91941858  1
  Te  Te114  1  0.40155361  0.94235578  0.26769387  1
  Te  Te115  1  0.42888778  0.90972969  0.56825325  1
  Te  Te116  1  0.40634380  0.92540714  0.91677640  1
  Te  Te117  1  0.73701909  0.26878825  0.25329045  1
  Te  Te118  1  0.73408717  0.23515066  0.56918667  1
  Te  Te119  1  0.73950268  0.25693944  0.90994977  1
  Te  Te120  1  0.75367857  0.59072775  0.26545914  1
  Te  Te121  1  0.75515747  0.60037823  0.56462964  1
  Te  Te122  1  0.71796259  0.57851673  0.90406701  1
  Te  Te123  1  0.77213666  0.91326713  0.22006626  1
  Te  Te124  1  0.76686055  0.85468488  0.55390668  1
  Te  Te125  1  0.74913490  0.90027480  0.92470164  1
  Te  Te126  1  0.22623227  0.28273656  0.10515361  1
  Te  Te127  1  0.25355024  0.23864056  0.42612539  1
  Te  Te128  1  0.24913628  0.26694577  0.73209865  1
  Te  Te129  1  0.23362310  0.57069109  0.07030509  1
  Te  Te130  1  0.26638573  0.58228695  0.43830677  1
  Te  Te131  1  0.28248051  0.55221997  0.76657247  1
  Te  Te132  1  0.22864480  0.92596738  0.10827606  1
  Te  Te133  1  0.23800622  0.90368353  0.41407168  1
  Te  Te134  1  0.22900494  0.90856441  0.74558957  1
  Te  Te135  1  0.58331682  0.25060967  0.07111707  1
  Te  Te136  1  0.58453743  0.25109159  0.39907928  1
  Te  Te137  1  0.58115471  0.25034501  0.73193980  1
  Te  Te138  1  0.57139789  0.58867658  0.07852230  1
  Te  Te139  1  0.55159523  0.56718342  0.37308725  1
  Te  Te140  1  0.56310288  0.57510078  0.70937248  1
  Te  Te141  1  0.56587018  0.91481728  0.08722083  1
  Te  Te142  1  0.59032027  0.90761949  0.41000045  1
  Te  Te143  1  0.58418940  0.93674679  0.71336435  1
  Te  Te144  1  0.89794123  0.26203657  0.11001104  1
  Te  Te145  1  0.91706303  0.26853971  0.41355897  1
  Te  Te146  1  0.93067805  0.26172600  0.74208317  1
  Te  Te147  1  0.93444304  0.56869100  0.07829808  1
  Te  Te148  1  0.91693108  0.57462817  0.43431939  1
  Te  Te149  1  0.90818409  0.58733712  0.75855611  1
  Te  Te150  1  0.93064112  0.93989713  0.07124102  1
  Te  Te151  1  0.88558319  0.88267944  0.42980300  1
  Te  Te152  1  0.89736372  0.89235792  0.75480867  1
  Te  Te153  1  0.29797359  0.07453546  0.28421690  1
  Te  Te154  1  0.26973961  0.07622980  0.60365181  1
  Te  Te155  1  0.26056836  0.09461780  0.91079065  1
  Te  Te156  1  0.24239132  0.43697658  0.25677920  1
  Te  Te157  1  0.24974326  0.41327825  0.57650822  1
  Te  Te158  1  0.28312138  0.41723266  0.90045301  1
  Te  Te159  1  0.25074876  0.73871384  0.26316000  1
  Te  Te160  1  0.25777252  0.73558259  0.60602986  1
  Te  Te161  1  0.22765037  0.73345067  0.90701684  1
  Te  Te162  1  0.58580057  0.07907589  0.25405208  1
  Te  Te163  1  0.62244247  0.03603365  0.60107242  1
  Te  Te164  1  0.58264454  0.06372476  0.91213232  1
  Te  Te165  1  0.56835594  0.44239884  0.28175472  1
  Te  Te166  1  0.60203363  0.42634399  0.56644666  1
  Te  Te167  1  0.56189612  0.41973034  0.88502604  1
  Te  Te168  1  0.59878595  0.74118217  0.24995450  1
  Te  Te169  1  0.56820712  0.72387541  0.61214766  1
  Te  Te170  1  0.58540082  0.76593824  0.90475738  1
  Te  Te171  1  0.92570513  0.08385318  0.27950780  1
  Te  Te172  1  0.89107301  0.06758075  0.57575678  1
  Te  Te173  1  0.93041945  0.10197689  0.91279871  1
  Te  Te174  1  0.92280537  0.40569440  0.22630785  1
  Te  Te175  1  0.91295445  0.40412205  0.61227929  1
  Te  Te176  1  0.91328702  0.40865571  0.93079686  1
  Te  Te177  1  0.90693501  0.75873977  0.24836610  1
  Te  Te178  1  0.90410254  0.78007304  0.56052985  1
  Te  Te179  1  0.91806687  0.73373646  0.92584597  1
