# generated using pymatgen
data_In2Te3
_symmetry_space_group_name_H-M   'P 1'
_cell_length_a   18.91646232
_cell_length_b   18.90303217
_cell_length_c   18.89872819
_cell_angle_alpha   89.87979800
_cell_angle_beta   90.00893639
_cell_angle_gamma   90.15583504
_symmetry_Int_Tables_number   1
_chemical_formula_structural   In2Te3
_chemical_formula_sum   'In72 Te108'
_cell_volume   6757.73885637
_cell_formula_units_Z   36
loop_
 _symmetry_equiv_pos_site_id
 _symmetry_equiv_pos_as_xyz
  1  'x, y, z'
loop_
 _atom_site_type_symbol
 _atom_site_label
 _atom_site_symmetry_multiplicity
 _atom_site_fract_x
 _atom_site_fract_y
 _atom_site_fract_z
 _atom_site_occupancy
  In  In0  1  -0.01396398  0.33410822  0.33388488  1
  In  In1  1  0.67688979  0.15479877  0.48110738  1
  In  In2  1  0.83264003  0.63164126  0.49335611  1
  In  In3  1  0.32735851  0.85341033  0.49614510  1
  In  In4  1  -0.00475760  0.80293733  0.82863091  1
  In  In5  1  0.50967810  0.19108630  0.32826589  1
  In  In6  1  -0.02285756  0.46357015  0.19111003  1
  In  In7  1  0.47635690  0.84016995  -0.00639665  1
  In  In8  1  0.84445548  -0.00176679  0.84073993  1
  In  In9  1  0.33705264  0.47739522  0.14581896  1
  In  In10  1  0.68040960  0.47991966  0.16378607  1
  In  In11  1  0.04551138  0.20512308  0.87294557  1
  In  In12  1  0.50778253  0.64447431  0.19166645  1
  In  In13  1  0.16841424  0.29594454  0.13218664  1
  In  In14  1  0.69714077  0.66004145  0.65357474  1
  In  In15  1  0.50412601  0.81370764  0.67274049  1
  In  In16  1  0.84284075  0.15539814  0.66662280  1
  In  In17  1  0.83153507  0.35071773  0.48110825  1
  In  In18  1  -0.00859752  0.67458882  0.35907497  1
  In  In19  1  -0.00518824  0.80977309  0.51956552  1
  In  In20  1  0.15323495  0.50973077  0.68406619  1
  In  In21  1  0.47295968  0.02182152  0.85902446  1
  In  In22  1  0.68179873  0.65413534  -0.00909976  1
  In  In23  1  0.16774246  0.84571611  0.69356968  1
  In  In24  1  0.00005854  0.02200894  0.32371487  1
  In  In25  1  0.50959941  0.45762959  0.33449507  1
  In  In26  1  0.14999496  0.50616681  -0.01253413  1
  In  In27  1  0.67039953  0.33073261  -0.00294787  1
  In  In28  1  0.34045904  0.84611230  0.14586999  1
  In  In29  1  0.01841542  0.33540809  0.65792716  1
  In  In30  1  0.01266568  0.51529954  0.51461431  1
  In  In31  1  0.31274582  0.16814197  0.81626203  1
  In  In32  1  -0.02073788  0.53118900  0.80187418  1
  In  In33  1  0.65061487  0.83721206  0.50502450  1
  In  In34  1  0.34072909  0.33299606  0.02855585  1
  In  In35  1  0.66218862  0.32441903  0.68118754  1
  In  In36  1  0.01098250  0.85187435  0.14638913  1
  In  In37  1  0.50769196  0.03929059  0.17287832  1
  In  In38  1  0.84055891  0.33850947  0.84147149  1
  In  In39  1  0.16794439  0.50917782  0.34484202  1
  In  In40  1  0.50426241  0.16347008  0.00278868  1
  In  In41  1  0.68619157  0.50398127  0.83681098  1
  In  In42  1  0.69031112  0.82623653  0.82639585  1
  In  In43  1  0.80567057  0.17275143  0.02153752  1
  In  In44  1  0.65317230  0.00447713  0.64113052  1
  In  In45  1  0.47793870  0.65527719  0.84746848  1
  In  In46  1  0.49605239  0.01349958  0.48031299  1
  In  In47  1  0.17995376  0.00258660  0.83596385  1
  In  In48  1  0.32873519  0.67567202  0.33857778  1
  In  In49  1  -0.02147427  0.19706265  0.15373076  1
  In  In50  1  -0.00184082  0.01395570  0.00653099  1
  In  In51  1  0.83762248  0.64315846  0.15052085  1
  In  In52  1  0.20361412  0.30711328  0.50318573  1
  In  In53  1  0.52457128  0.48371929  0.66331606  1
  In  In54  1  0.81827931  -0.00309712  0.49269728  1
  In  In55  1  0.35115601  0.47519647  0.82971166  1
  In  In56  1  0.17837226  0.03565607  0.20338307  1
  In  In57  1  0.82936690  0.83248544  0.31760053  1
  In  In58  1  0.51968279  0.32391162  0.82950936  1
  In  In59  1  0.33438948  0.49964407  0.48133537  1
  In  In60  1  0.49437595  0.85653353  0.35618862  1
  In  In61  1  0.00127221  -0.01015040  0.68124108  1
  In  In62  1  0.17916130  0.01945080  0.47894011  1
  In  In63  1  0.17075978  0.83767784  0.00749416  1
  In  In64  1  0.84574452  0.83590656  -0.00206318  1
  In  In65  1  0.33378450  0.32913798  0.32075794  1
  In  In66  1  0.31139657  0.66733677  -0.01842310  1
  In  In67  1  0.66604640  0.87273557  0.16506472  1
  In  In68  1  0.18205478  0.15924128  0.64958916  1
  In  In69  1  0.15168617  0.69180062  0.17465719  1
  In  In70  1  0.63958331  0.65982378  0.34902173  1
  In  In71  1  0.33807181  0.66299664  0.66874430  1
  Te  Te72  1  0.08514814  0.09532747  0.09679261  1
  Te  Te73  1  0.07757972  0.10507132  0.41628400  1
  Te  Te74  1  0.07645260  0.09195631  0.76323334  1
  Te  Te75  1  0.07775977  0.41221882  0.08534955  1
  Te  Te76  1  0.08607425  0.41092097  0.42704441  1
  Te  Te77  1  0.07996484  0.41178462  0.77267270  1
  Te  Te78  1  0.06587922  0.74025716  0.05904366  1
  Te  Te79  1  0.09167517  0.76088569  0.41975380  1
  Te  Te80  1  0.08107998  0.73118072  0.73095439  1
  Te  Te81  1  0.40046362  0.09046467  0.08322358  1
  Te  Te82  1  0.40986269  0.09465745  0.38985274  1
  Te  Te83  1  0.42224047  0.09981921  0.74541391  1
  Te  Te84  1  0.45235422  0.39312780  0.10857752  1
  Te  Te85  1  0.41724757  0.38171739  0.43650323  1
  Te  Te86  1  0.42308902  0.38998019  0.72789735  1
  Te  Te87  1  0.41744556  0.72483889  0.09048249  1
  Te  Te88  1  0.42368086  0.74656473  0.43290764  1
  Te  Te89  1  0.40102101  0.76064370  0.77016578  1
  Te  Te90  1  0.72449542  0.07832705  0.09980715  1
  Te  Te91  1  0.79250373  0.11027902  0.39916904  1
  Te  Te92  1  0.74740619  0.06859712  0.74524877  1
  Te  Te93  1  0.77476927  0.40193315  0.07779806  1
  Te  Te94  1  0.74925725  0.39639796  0.36645586  1
  Te  Te95  1  0.76488717  0.42202574  0.73806885  1
  Te  Te96  1  0.74110464  0.75816846  0.09396060  1
  Te  Te97  1  0.75036792  0.74916184  0.42048526  1
  Te  Te98  1  0.77203171  0.71273893  0.77296172  1
  Te  Te99  1  0.08240277  0.24988498  0.25164857  1
  Te  Te100  1  0.07953501  0.23631264  0.56427444  1
  Te  Te101  1  0.10638775  0.27072467  0.99094174  1
  Te  Te102  1  0.07373318  0.58347595  0.25042354  1
  Te  Te103  1  0.08200932  0.61202423  0.60278341  1
  Te  Te104  1  0.08396170  0.59316831  0.88996856  1
  Te  Te105  1  0.09037229  0.91924447  0.25492680  1
  Te  Te106  1  0.09104993  0.92253732  0.57817554  1
  Te  Te107  1  0.06666530  0.91700890  0.91217373  1
  Te  Te108  1  0.43333006  0.27130883  0.22641152  1
  Te  Te109  1  0.30618863  0.23439872  0.58849596  1
  Te  Te110  1  0.41246937  0.25576623  0.91335206  1
  Te  Te111  1  0.40371227  0.56242419  0.26934364  1
  Te  Te112  1  0.42202039  0.57040757  0.58500595  1
  Te  Te113  1  0.41242424  0.55895439  0.94348380  1
  Te  Te114  1  0.42425987  0.92791214  0.24284783  1
  Te  Te115  1  0.43576404  0.91628766  0.58303106  1
  Te  Te116  1  0.38200797  0.92417976  0.92094144  1
  Te  Te117  1  0.71961241  0.20362779  0.17794401  1
  Te  Te118  1  0.75971721  0.24812600  0.58151261  1
  Te  Te119  1  0.73847135  0.24088829  0.89609065  1
  Te  Te120  1  0.73911886  0.59182096  0.25276535  1
  Te  Te121  1  0.72527824  0.55347811  0.55677481  1
  Te  Te122  1  0.77975290  0.55978726  0.93656808  1
  Te  Te123  1  0.75660889  0.94343492  0.25548341  1
  Te  Te124  1  0.75463468  0.89964501  0.59500688  1
  Te  Te125  1  0.74329809  0.92503359  0.92922052  1
  Te  Te126  1  0.29268068  0.21586822  0.10995234  1
  Te  Te127  1  0.24264898  0.22527654  0.37998055  1
  Te  Te128  1  0.23209050  0.26702287  0.73971902  1
  Te  Te129  1  0.23633005  0.59016785  0.09656568  1
  Te  Te130  1  0.23413630  0.60895619  0.43741585  1
  Te  Te131  1  0.25947221  0.58020219  0.76917165  1
  Te  Te132  1  0.23765467  0.94303758  0.09129551  1
  Te  Te133  1  0.26616471  0.93700675  0.39175613  1
  Te  Te134  1  0.26511916  0.94955729  0.72882421  1
  Te  Te135  1  0.59271823  0.24570642  0.09426231  1
  Te  Te136  1  0.59760677  0.26474340  0.42304205  1
  Te  Te137  1  0.58058342  0.21980723  0.74597910  1
  Te  Te138  1  0.58865429  0.57472337  0.08491224  1
  Te  Te139  1  0.57170322  0.55549283  0.42557946  1
  Te  Te140  1  0.58308710  0.59480103  0.75716898  1
  Te  Te141  1  0.56531638  0.93543333  0.07132197  1
  Te  Te142  1  0.60927007  0.94381200  0.40612538  1
  Te  Te143  1  0.58980834  0.91172807  0.75048402  1
  Te  Te144  1  0.89105023  0.28475821  0.06975979  1
  Te  Te145  1  0.90759994  0.23941093  0.41865062  1
  Te  Te146  1  0.93099611  0.24633610  0.75059255  1
  Te  Te147  1  0.93507998  0.55758960  0.08485797  1
  Te  Te148  1  0.91564497  0.55031048  0.39747840  1
  Te  Te149  1  0.88888957  0.61460900  0.71693829  1
  Te  Te150  1  0.89912099  0.94016458  0.09572439  1
  Te  Te151  1  0.92076155  0.90443203  0.41856978  1
  Te  Te152  1  0.90308016  0.89426293  0.74627184  1
  Te  Te153  1  0.27954694  0.09834795  0.29237830  1
  Te  Te154  1  0.28054318  0.07036735  0.57762334  1
  Te  Te155  1  0.22805026  0.11007529  0.92269508  1
  Te  Te156  1  0.23150627  0.41784645  0.24119462  1
  Te  Te157  1  0.23833820  0.43692127  0.58208907  1
  Te  Te158  1  0.25369192  0.41127621  0.92852053  1
  Te  Te159  1  0.25324667  0.77365948  0.25121889  1
  Te  Te160  1  0.25295245  0.76297829  0.59327879  1
  Te  Te161  1  0.24482027  0.76930363  0.90100603  1
  Te  Te162  1  0.61172259  0.10367910  0.25912914  1
  Te  Te163  1  0.56387236  0.10924920  0.57665905  1
  Te  Te164  1  0.59246591  0.08069682  0.91921298  1
  Te  Te165  1  0.62022231  0.38529586  0.26415868  1
  Te  Te166  1  0.59524907  0.39531019  0.56992764  1
  Te  Te167  1  0.58236410  0.42917143  0.91888962  1
  Te  Te168  1  0.57655238  0.76810433  0.25219623  1
  Te  Te169  1  0.58029405  0.72455687  0.57797412  1
  Te  Te170  1  0.58144336  0.75231298  0.91860447  1
  Te  Te171  1  0.90952883  0.09309457  0.23268744  1
  Te  Te172  1  0.92633949  0.06971118  0.57529688  1
  Te  Te173  1  0.91815359  0.10782888  0.91794977  1
  Te  Te174  1  0.86496938  0.38985872  0.26038566  1
  Te  Te175  1  0.91693184  0.42401219  0.58914801  1
  Te  Te176  1  0.92702267  0.43773660  0.90635248  1
  Te  Te177  1  0.92607643  0.74929488  0.23292238  1
  Te  Te178  1  0.90305466  0.71743686  0.59563608  1
  Te  Te179  1  0.90630504  0.72855393  0.92058728  1
