# generated using pymatgen
data_In2Te3
_symmetry_space_group_name_H-M   'P 1'
_cell_length_a   18.76948185
_cell_length_b   18.77144162
_cell_length_c   18.77802974
_cell_angle_alpha   89.94685441
_cell_angle_beta   90.05375392
_cell_angle_gamma   89.95154909
_symmetry_Int_Tables_number   1
_chemical_formula_structural   In2Te3
_chemical_formula_sum   'In72 Te108'
_cell_volume   6616.05946209
_cell_formula_units_Z   36
loop_
 _symmetry_equiv_pos_site_id
 _symmetry_equiv_pos_as_xyz
  1  'x, y, z'
loop_
 _atom_site_type_symbol
 _atom_site_label
 _atom_site_symmetry_multiplicity
 _atom_site_fract_x
 _atom_site_fract_y
 _atom_site_fract_z
 _atom_site_occupancy
  In  In0  1  0.68887506  0.85190368  0.15725881  1
  In  In1  1  0.48921280  0.00707718  0.52160995  1
  In  In2  1  0.17546451  0.66532104  0.84080354  1
  In  In3  1  0.33462424  0.82660356  0.15141091  1
  In  In4  1  0.48588011  0.47363141  0.32750849  1
  In  In5  1  0.68019882  0.52831038  0.19726392  1
  In  In6  1  0.49758784  0.82459298  0.35672542  1
  In  In7  1  0.67394566  0.67665939  0.00581061  1
  In  In8  1  0.68657527  0.14433167  0.48229417  1
  In  In9  1  0.47583190  0.32527526  0.83688625  1
  In  In10  1  0.86452829  0.49624368  -0.00342280  1
  In  In11  1  0.16385132  0.49591085  0.66440406  1
  In  In12  1  0.01267398  0.50454544  0.15803248  1
  In  In13  1  0.18173069  0.50363052  -0.00728913  1
  In  In14  1  0.66456835  0.48956122  0.80889434  1
  In  In15  1  0.47832358  0.66712828  0.17710969  1
  In  In16  1  0.33575068  0.49968986  0.17599090  1
  In  In17  1  0.15739822  0.65362850  0.17505385  1
  In  In18  1  0.45856634  0.86958835  -0.03610170  1
  In  In19  1  0.02273455  0.33654323  -0.00688502  1
  In  In20  1  0.00425047  -0.01107906  0.35666765  1
  In  In21  1  0.18132304  0.84751474  -0.01112478  1
  In  In22  1  0.67089842  0.84305903  0.82234194  1
  In  In23  1  0.65514415  0.15122518  0.84780010  1
  In  In24  1  0.47668304  0.49959120  -0.00190557  1
  In  In25  1  0.81152894  0.15678580  -0.00793494  1
  In  In26  1  0.33257045  0.00100932  0.67140251  1
  In  In27  1  0.33337247  0.34105530  0.32127869  1
  In  In28  1  0.84678849  -0.01059026  0.18719994  1
  In  In29  1  0.49068966  0.32074789  0.15745532  1
  In  In30  1  0.20239355  0.17179548  -0.00413032  1
  In  In31  1  0.85164958  0.84431430  0.33865580  1
  In  In32  1  0.13508297  0.17037600  0.67295914  1
  In  In33  1  0.81246370  0.80926010  -0.01130822  1
  In  In34  1  0.68445762  0.65361651  0.32290613  1
  In  In35  1  0.16716292  0.84095972  0.66704896  1
  In  In36  1  0.47412550  0.67064120  0.50641044  1
  In  In37  1  0.85810789  -0.00694704  0.80005428  1
  In  In38  1  0.16855376  0.33629237  0.82004078  1
  In  In39  1  0.64523735  0.00766608  0.00014813  1
  In  In40  1  0.67690093  0.31541348  0.00225999  1
  In  In41  1  0.84926743  0.32407304  0.50058552  1
  In  In42  1  0.83251197  0.68968973  0.83120772  1
  In  In43  1  0.00104043  0.16963619  0.18094983  1
  In  In44  1  0.85044066  0.65353567  0.49187847  1
  In  In45  1  0.67329028  0.85681485  0.51932455  1
  In  In46  1  0.48357808  0.66404557  0.83250705  1
  In  In47  1  0.15047276  0.15205669  0.34029267  1
  In  In48  1  0.66970839  0.33456628  0.37167552  1
  In  In49  1  0.18196514  0.00984572  0.15948429  1
  In  In50  1  0.46921432  0.03332050  0.14166705  1
  In  In51  1  0.48850148  0.83722008  0.68119600  1
  In  In52  1  0.18555969  0.65613809  0.49644401  1
  In  In53  1  0.00357857  -0.00738850  -0.03059391  1
  In  In54  1  0.01759453  0.66923730  0.65156895  1
  In  In55  1  0.01505751  0.32338920  0.35514277  1
  In  In56  1  0.32749531  0.15703475  0.81943392  1
  In  In57  1  0.48703058  0.50540668  0.67956418  1
  In  In58  1  0.48245964  0.31984637  0.49282581  1
  In  In59  1  0.31440366  -0.01673499  0.33970123  1
  In  In60  1  0.02325648  0.49645986  0.82600008  1
  In  In61  1  0.67103000  0.32885711  0.65687004  1
  In  In62  1  0.15601813  0.33421449  0.51705057  1
  In  In63  1  0.33647822  0.16514281  0.51913454  1
  In  In64  1  0.67996863  0.50793500  0.49224687  1
  In  In65  1  0.00507953  0.83814794  0.50415918  1
  In  In66  1  0.64851561  0.18214979  0.18632417  1
  In  In67  1  -0.00904639  0.81561919  0.17228426  1
  In  In68  1  0.82295432  0.32783396  0.17152663  1
  In  In69  1  0.65268181  -0.00077236  0.66702325  1
  In  In70  1  0.84452714  0.50043734  0.63626012  1
  In  In71  1  0.16443309  0.83407540  0.35687890  1
  Te  Te72  1  0.07559418  0.08481756  0.07722243  1
  Te  Te73  1  0.08389043  0.07483212  0.44685494  1
  Te  Te74  1  0.04963530  0.06651744  0.74788636  1
  Te  Te75  1  0.11390430  0.40644526  0.08966762  1
  Te  Te76  1  0.10265839  0.42780976  0.41357300  1
  Te  Te77  1  0.06288000  0.39212450  0.72376575  1
  Te  Te78  1  0.09298078  0.75561421  0.07889822  1
  Te  Te79  1  0.07028741  0.73316750  0.41654100  1
  Te  Te80  1  0.07862143  0.75361950  0.76035139  1
  Te  Te81  1  0.37998610  0.12329178  0.05915523  1
  Te  Te82  1  0.40925027  0.08032191  0.41409057  1
  Te  Te83  1  0.43136117  0.09013038  0.73549566  1
  Te  Te84  1  0.39009043  0.39885756  0.07413816  1
  Te  Te85  1  0.39095898  0.42860283  0.43762645  1
  Te  Te86  1  0.39554173  0.42661068  0.76558792  1
  Te  Te87  1  0.42423107  0.74575187  0.05905725  1
  Te  Te88  1  0.38268804  0.75355951  0.41965650  1
  Te  Te89  1  0.39315814  0.74930022  0.75200908  1
  Te  Te90  1  0.74483242  0.07909670  0.10479938  1
  Te  Te91  1  0.77690740  0.06188935  0.40284100  1
  Te  Te92  1  0.75193615  0.08853852  0.74626848  1
  Te  Te93  1  0.74837287  0.42856359  0.08040641  1
  Te  Te94  1  0.78155649  0.43076276  0.40961737  1
  Te  Te95  1  0.77313064  0.40910735  0.73802140  1
  Te  Te96  1  0.77045102  0.73099563  0.11378502  1
  Te  Te97  1  0.74504327  0.75590883  0.42092565  1
  Te  Te98  1  0.75963713  0.77056211  0.73099730  1
  Te  Te99  1  0.10509240  0.25905531  0.24071889  1
  Te  Te100  1  0.05047216  0.23352625  0.56247042  1
  Te  Te101  1  0.09200167  0.23430198  0.90570950  1
  Te  Te102  1  0.08602010  0.56740536  0.27206587  1
  Te  Te103  1  0.07605733  0.56657768  0.55809558  1
  Te  Te104  1  0.07046670  0.58986593  0.93400390  1
  Te  Te105  1  0.08290057  0.92371153  0.24089176  1
  Te  Te106  1  0.06808804  0.93562649  0.60006607  1
  Te  Te107  1  0.09856221  0.91783517  0.88615639  1
  Te  Te108  1  0.43150765  0.24366263  0.26823512  1
  Te  Te109  1  0.41952697  0.25121786  0.60665025  1
  Te  Te110  1  0.40046474  0.23424267  0.92845429  1
  Te  Te111  1  0.39632117  0.59827292  0.28728898  1
  Te  Te112  1  0.39407764  0.58192777  0.59267127  1
  Te  Te113  1  0.39038610  0.57692947  0.90792466  1
  Te  Te114  1  0.41850135  0.91335507  0.24747101  1
  Te  Te115  1  0.39728995  0.89950845  0.57411457  1
  Te  Te116  1  0.36089688  0.95000704  0.88438773  1
  Te  Te117  1  0.75426469  0.24383617  0.27770224  1
  Te  Te118  1  0.76403593  0.23093515  0.58643892  1
  Te  Te119  1  0.76124253  0.25951968  0.88989752  1
  Te  Te120  1  0.80462613  0.57512789  0.26937938  1
  Te  Te121  1  0.74087268  0.60352479  0.59180581  1
  Te  Te122  1  0.74835803  0.57848853  0.91173617  1
  Te  Te123  1  0.73629128  0.93266150  0.27771195  1
  Te  Te124  1  0.76878632  0.94062308  0.59536619  1
  Te  Te125  1  0.75541333  0.93647693  0.91905344  1
  Te  Te126  1  0.27935482  0.23186592  0.10519373  1
  Te  Te127  1  0.24909522  0.24685911  0.41983431  1
  Te  Te128  1  0.25389823  0.25400648  0.72459463  1
  Te  Te129  1  0.26490155  0.59678470  0.08183061  1
  Te  Te130  1  0.28685849  0.60468043  0.40213864  1
  Te  Te131  1  0.25252906  0.57892320  0.74886653  1
  Te  Te132  1  0.27774066  0.94015734  0.06562379  1
  Te  Te133  1  0.22963371  0.92905511  0.44766299  1
  Te  Te134  1  0.26341991  0.90582754  0.76802440  1
  Te  Te135  1  0.56981602  0.22794313  0.06267812  1
  Te  Te136  1  0.57163770  0.22694680  0.41126797  1
  Te  Te137  1  0.58267675  0.25235399  0.75509436  1
  Te  Te138  1  0.57564258  0.57781652  0.08774679  1
  Te  Te139  1  0.57323944  0.58174376  0.40758751  1
  Te  Te140  1  0.59060540  0.60276031  0.73997027  1
  Te  Te141  1  0.56579090  0.90650773  0.08322984  1
  Te  Te142  1  0.58173833  0.93346608  0.42339008  1
  Te  Te143  1  0.56113091  0.93624191  0.77200233  1
  Te  Te144  1  0.91329173  0.24751982  0.07248775  1
  Te  Te145  1  0.91941811  0.22595349  0.41320384  1
  Te  Te146  1  0.96614640  0.19668186  0.74003382  1
  Te  Te147  1  0.92599496  0.59884157  0.08073812  1
  Te  Te148  1  0.91067993  0.57313518  0.38654144  1
  Te  Te149  1  0.92048681  0.58454131  0.74884327  1
  Te  Te150  1  0.91729868  0.91466371  0.07478339  1
  Te  Te151  1  0.89137205  0.94338763  0.45082518  1
  Te  Te152  1  0.95728606  0.92387908  0.71438238  1
  Te  Te153  1  0.26390705  0.09872145  0.24985823  1
  Te  Te154  1  0.23178695  0.07923188  0.58825785  1
  Te  Te155  1  0.23219082  0.06623933  0.89367819  1
  Te  Te156  1  0.23369412  0.42978408  0.25698865  1
  Te  Te157  1  0.26006147  0.41320089  0.58624949  1
  Te  Te158  1  0.26108228  0.40916084  0.91048093  1
  Te  Te159  1  0.24345856  0.75729388  0.25127710  1
  Te  Te160  1  0.25080161  0.73887940  0.60015411  1
  Te  Te161  1  0.26869047  0.74833550  0.92149020  1
  Te  Te162  1  0.57124531  0.06969655  0.24238905  1
  Te  Te163  1  0.58061604  0.10830356  0.58869736  1
  Te  Te164  1  0.54685305  0.07509394  0.91397511  1
  Te  Te165  1  0.59935103  0.40496209  0.24538769  1
  Te  Te166  1  0.58154255  0.42082889  0.57212332  1
  Te  Te167  1  0.58570061  0.41646055  0.91924915  1
  Te  Te168  1  0.58714405  0.75312470  0.24568824  1
  Te  Te169  1  0.57620394  0.75742940  0.58399046  1
  Te  Te170  1  0.58196097  0.76184930  0.91706102  1
  Te  Te171  1  0.91201638  0.09408719  0.27702038  1
  Te  Te172  1  0.95359009  0.11122354  0.62118894  1
  Te  Te173  1  0.91788756  0.09877772  0.89978696  1
  Te  Te174  1  0.93591500  0.39713156  0.24097988  1
  Te  Te175  1  0.94449830  0.41229840  0.57410393  1
  Te  Te176  1  0.92260657  0.39866178  0.89580008  1
  Te  Te177  1  0.92917467  0.73328616  0.27804452  1
  Te  Te178  1  0.90838199  0.75558045  0.58949529  1
  Te  Te179  1  0.92906996  0.76807299  0.91010139  1
