# generated using pymatgen
data_In2Te3
_symmetry_space_group_name_H-M   'P 1'
_cell_length_a   18.78037295
_cell_length_b   18.78882749
_cell_length_c   18.79041471
_cell_angle_alpha   89.97096461
_cell_angle_beta   89.94899095
_cell_angle_gamma   90.00154937
_symmetry_Int_Tables_number   1
_chemical_formula_structural   In2Te3
_chemical_formula_sum   'In72 Te108'
_cell_volume   6630.40456642
_cell_formula_units_Z   36
loop_
 _symmetry_equiv_pos_site_id
 _symmetry_equiv_pos_as_xyz
  1  'x, y, z'
loop_
 _atom_site_type_symbol
 _atom_site_label
 _atom_site_symmetry_multiplicity
 _atom_site_fract_x
 _atom_site_fract_y
 _atom_site_fract_z
 _atom_site_occupancy
  In  In0  1  0.34035651  0.83264170  0.50037726  1
  In  In1  1  0.33734027  0.16932775  0.85629409  1
  In  In2  1  0.15800362  0.51966805  0.34162674  1
  In  In3  1  0.34690035  0.67217528  0.65096651  1
  In  In4  1  0.00432600  0.33847022  0.33120757  1
  In  In5  1  -0.00534555  0.01864345  0.66254111  1
  In  In6  1  0.49194644  0.31771408  0.15441178  1
  In  In7  1  0.66996726  0.68659591  -0.00413149  1
  In  In8  1  0.67020393  0.14359486  0.83979708  1
  In  In9  1  0.83735920  0.13846227  0.33090607  1
  In  In10  1  0.17360176  0.14323011  0.32614650  1
  In  In11  1  0.49286501  0.48816674  -0.01381852  1
  In  In12  1  0.67492782  0.83308309  0.84388316  1
  In  In13  1  -0.01894076  0.85093177  0.45467873  1
  In  In14  1  0.32529606  0.50273889  0.50029972  1
  In  In15  1  0.32509451  0.82824388  0.88878818  1
  In  In16  1  0.68191189  0.68719271  0.34511338  1
  In  In17  1  0.02639507  0.50977330  0.16057048  1
  In  In18  1  0.50201765  -0.02054471  0.85375329  1
  In  In19  1  0.17272662  0.48276376  -0.01288201  1
  In  In20  1  0.16495347  0.01408918  0.84486567  1
  In  In21  1  0.85369340  0.15907097  0.66731321  1
  In  In22  1  0.83366461  0.33596565  0.80462497  1
  In  In23  1  0.68178598  0.16672227  0.49337550  1
  In  In24  1  0.13476069  0.47993435  0.66566488  1
  In  In25  1  -0.00670073  0.48902331  0.82286259  1
  In  In26  1  0.35832382  -0.00224998  0.33071240  1
  In  In27  1  -0.00927503  0.65378892  0.65855257  1
  In  In28  1  0.48416103  0.51114283  0.31556082  1
  In  In29  1  0.86386620  0.71220066  0.20764415  1
  In  In30  1  0.66969512  0.34635223  0.66258541  1
  In  In31  1  0.64098355  0.31789375  0.00309366  1
  In  In32  1  0.00452726  0.69227330  0.00978614  1
  In  In33  1  0.31719330  0.32535403  0.33023100  1
  In  In34  1  0.31607406  0.01150159  0.66287171  1
  In  In35  1  0.49880779  0.16992374  0.64835753  1
  In  In36  1  0.83558866  -0.01588580  0.16911822  1
  In  In37  1  0.67441360  0.84892926  0.17070427  1
  In  In38  1  0.67440846  0.84882618  0.48250618  1
  In  In39  1  0.51899748  0.00120688  0.17982292  1
  In  In40  1  0.51129349  0.01101246  0.47901884  1
  In  In41  1  0.48732125  0.67814104  0.16661957  1
  In  In42  1  0.48507241  0.33143653  0.84287353  1
  In  In43  1  0.13694246  0.16939430  0.00017255  1
  In  In44  1  -0.01761886  0.00678250  0.01202014  1
  In  In45  1  0.52060257  0.81963642  0.67081584  1
  In  In46  1  0.82978416  -0.00409764  0.85418929  1
  In  In47  1  0.82879997  0.15536323  0.02384740  1
  In  In48  1  0.18763147  0.66820567  0.83588691  1
  In  In49  1  0.16261337  0.01821138  0.50728947  1
  In  In50  1  0.13549367  0.86840878  0.30330576  1
  In  In51  1  0.15448921  0.16867384  0.64757821  1
  In  In52  1  0.35286632  0.67255086  0.02288187  1
  In  In53  1  0.81209241  0.82641301  0.65700897  1
  In  In54  1  -0.01217244  0.83691751  0.86546653  1
  In  In55  1  0.83025835  0.51854336  0.34341202  1
  In  In56  1  0.83527717  0.51150119  -0.01439758  1
  In  In57  1  0.15295555  0.69027497  0.17029410  1
  In  In58  1  -0.02730447  0.48581113  0.51440923  1
  In  In59  1  -0.00015545  0.17238543  0.49623475  1
  In  In60  1  0.66832019  0.50695379  0.53477019  1
  In  In61  1  0.68478653  0.32404140  0.34922820  1
  In  In62  1  0.53843621  0.65170677  0.80592128  1
  In  In63  1  0.32087649  0.47748511  0.83603036  1
  In  In64  1  0.37020945  0.50591282  0.16042760  1
  In  In65  1  0.83972597  0.29674912  0.18265474  1
  In  In66  1  0.67409507  0.48814475  0.15449146  1
  In  In67  1  0.34007136  0.15094379  0.17056911  1
  In  In68  1  0.17784177  0.81654047  0.66856894  1
  In  In69  1  0.16241930  0.32807415  0.17307700  1
  In  In70  1  0.50041171  0.67131898  0.48676996  1
  In  In71  1  0.35505527  0.33450182  0.67472066  1
  Te  Te72  1  0.09226097  0.06239167  0.10031718  1
  Te  Te73  1  0.06413981  0.06756185  0.40406808  1
  Te  Te74  1  0.07443197  0.10296230  0.76202575  1
  Te  Te75  1  0.07217402  0.39818727  0.06988499  1
  Te  Te76  1  0.08815097  0.41730290  0.42884569  1
  Te  Te77  1  0.09435579  0.38650328  0.77596655  1
  Te  Te78  1  0.04909642  0.78674084  0.11657173  1
  Te  Te79  1  0.09229766  0.76668838  0.40520506  1
  Te  Te80  1  0.07657083  0.74689136  0.76053159  1
  Te  Te81  1  0.41732045  0.05967128  0.08258253  1
  Te  Te82  1  0.41615245  0.10363900  0.41538338  1
  Te  Te83  1  0.42130662  0.07745444  0.75539873  1
  Te  Te84  1  0.39795739  0.39473822  0.06062835  1
  Te  Te85  1  0.41377673  0.41441152  0.40995663  1
  Te  Te86  1  0.43954718  0.44077222  0.74610119  1
  Te  Te87  1  0.40637175  0.78670175  0.10410519  1
  Te  Te88  1  0.43179278  0.77093820  0.40238010  1
  Te  Te89  1  0.41219049  0.75647273  0.75861167  1
  Te  Te90  1  0.73752056  0.05350589  0.07893807  1
  Te  Te91  1  0.73357143  0.05910126  0.40312022  1
  Te  Te92  1  0.75597471  0.06673673  0.74026632  1
  Te  Te93  1  0.76049770  0.39108844  0.07876926  1
  Te  Te94  1  0.77101546  0.41477489  0.44095722  1
  Te  Te95  1  0.74894204  0.44300140  0.74507845  1
  Te  Te96  1  0.76594580  0.75256348  0.09246801  1
  Te  Te97  1  0.77737430  0.74938112  0.43610421  1
  Te  Te98  1  0.75183437  0.73856874  0.75919091  1
  Te  Te99  1  0.07180211  0.23168506  0.24640525  1
  Te  Te100  1  0.06528316  0.26963066  0.58615916  1
  Te  Te101  1  0.11749327  0.27601270  0.89921393  1
  Te  Te102  1  0.05944257  0.60982651  0.26842352  1
  Te  Te103  1  0.08879833  0.58400532  0.56586208  1
  Te  Te104  1  0.07702971  0.58342495  0.91793616  1
  Te  Te105  1  0.05417466  0.96121887  0.21845281  1
  Te  Te106  1  0.08850890  0.91576105  0.59348970  1
  Te  Te107  1  0.09243616  0.91744535  0.93889143  1
  Te  Te108  1  0.42352083  0.23736149  0.26525364  1
  Te  Te109  1  0.41755823  0.25813670  0.56364465  1
  Te  Te110  1  0.43909949  0.23362874  0.94259859  1
  Te  Te111  1  0.38599993  0.61692578  0.26460122  1
  Te  Te112  1  0.43727265  0.57134808  0.58349495  1
  Te  Te113  1  0.40928487  0.58917500  0.90566433  1
  Te  Te114  1  0.41254378  0.90389533  0.22812827  1
  Te  Te115  1  0.42171941  0.92098704  0.59603728  1
  Te  Te116  1  0.40192541  0.93669470  0.96086914  1
  Te  Te117  1  0.72455927  0.21404089  0.24236096  1
  Te  Te118  1  0.76898270  0.25714304  0.58344072  1
  Te  Te119  1  0.75391011  0.24852424  0.91433504  1
  Te  Te120  1  0.74831075  0.59511487  0.23308561  1
  Te  Te121  1  0.74872687  0.60082558  0.61325070  1
  Te  Te122  1  0.73059379  0.58215227  0.91032305  1
  Te  Te123  1  0.74991684  0.92213742  0.28032480  1
  Te  Te124  1  0.75199086  0.93397088  0.57666965  1
  Te  Te125  1  0.74492138  0.91677785  0.94543704  1
  Te  Te126  1  0.25027480  0.24152615  0.08631914  1
  Te  Te127  1  0.21876512  0.25398403  0.41314183  1
  Te  Te128  1  0.26226895  0.23298378  0.74120830  1
  Te  Te129  1  0.24575261  0.57478494  0.08732236  1
  Te  Te130  1  0.26281411  0.60020874  0.40724414  1
  Te  Te131  1  0.24860051  0.57381031  0.73245683  1
  Te  Te132  1  0.25384423  0.88742537  0.01556495  1
  Te  Te133  1  0.24772584  0.92545207  0.42015008  1
  Te  Te134  1  0.25325330  0.90819081  0.76653691  1
  Te  Te135  1  0.58745662  0.21521748  0.09870378  1
  Te  Te136  1  0.58100926  0.25295097  0.42615774  1
  Te  Te137  1  0.58573029  0.24523590  0.75593865  1
  Te  Te138  1  0.57325510  0.58069159  0.08318018  1
  Te  Te139  1  0.59663524  0.56994823  0.40220988  1
  Te  Te140  1  0.62524556  0.58277398  0.70507798  1
  Te  Te141  1  0.59933472  0.92991576  0.07215037  1
  Te  Te142  1  0.57262178  0.91007551  0.39156139  1
  Te  Te143  1  0.59835000  0.92524578  0.74773171  1
  Te  Te144  1  0.93430582  0.23764217  0.08634693  1
  Te  Te145  1  0.90330382  0.25305146  0.40776410  1
  Te  Te146  1  0.93950018  0.25968787  0.73392217  1
  Te  Te147  1  0.91437990  0.58957437  0.09236049  1
  Te  Te148  1  0.91477142  0.59656416  0.43457052  1
  Te  Te149  1  0.90100735  0.56506485  0.73513701  1
  Te  Te150  1  0.91684931  0.89145593  0.08196808  1
  Te  Te151  1  0.87595468  0.92192895  0.37601715  1
  Te  Te152  1  0.92128896  0.91600049  0.75168858  1
  Te  Te153  1  0.24779919  0.04728107  0.23402032  1
  Te  Te154  1  0.26976599  0.11245586  0.55976139  1
  Te  Te155  1  0.25433169  0.08119172  0.94797781  1
  Te  Te156  1  0.25029796  0.43479736  0.24158790  1
  Te  Te157  1  0.24734577  0.40713418  0.59020578  1
  Te  Te158  1  0.24978744  0.37312429  0.91631648  1
  Te  Te159  1  0.24097730  0.78481914  0.24021252  1
  Te  Te160  1  0.23981975  0.73168289  0.55941373  1
  Te  Te161  1  0.21754884  0.74480398  0.96920818  1
  Te  Te162  1  0.59752241  0.11602529  0.23419254  1
  Te  Te163  1  0.59750501  0.07217676  0.58824680  1
  Te  Te164  1  0.58047575  0.07576929  0.93441000  1
  Te  Te165  1  0.58536088  0.40564012  0.24727665  1
  Te  Te166  1  0.57412873  0.39688254  0.56110369  1
  Te  Te167  1  0.59973471  0.42431776  0.90109302  1
  Te  Te168  1  0.58274803  0.75880512  0.25499354  1
  Te  Te169  1  0.60394353  0.74027059  0.57479702  1
  Te  Te170  1  0.55834977  0.75517396  0.91793597  1
  Te  Te171  1  0.93556036  0.07632897  0.23515206  1
  Te  Te172  1  0.90263669  0.06695630  0.55300705  1
  Te  Te173  1  0.92463964  0.10128753  0.90809727  1
  Te  Te174  1  0.91258801  0.42620165  0.24293618  1
  Te  Te175  1  0.86230639  0.40265506  0.56713900  1
  Te  Te176  1  0.91631837  0.40035771  0.92160744  1
  Te  Te177  1  0.93929364  0.79542401  0.30797807  1
  Te  Te178  1  0.92826612  0.76661357  0.57783807  1
  Te  Te179  1  0.89957020  0.73028804  0.91297591  1
