# generated using pymatgen
data_In2Te3
_symmetry_space_group_name_H-M   'P 1'
_cell_length_a   18.96245861
_cell_length_b   18.94975411
_cell_length_c   18.95813116
_cell_angle_alpha   89.99865334
_cell_angle_beta   89.87054031
_cell_angle_gamma   90.08165140
_symmetry_Int_Tables_number   1
_chemical_formula_structural   In2Te3
_chemical_formula_sum   'In72 Te108'
_cell_volume   6812.27542934
_cell_formula_units_Z   36
loop_
 _symmetry_equiv_pos_site_id
 _symmetry_equiv_pos_as_xyz
  1  'x, y, z'
loop_
 _atom_site_type_symbol
 _atom_site_label
 _atom_site_symmetry_multiplicity
 _atom_site_fract_x
 _atom_site_fract_y
 _atom_site_fract_z
 _atom_site_occupancy
  In  In0  1  0.35487350  0.52077518  0.53684482  1
  In  In1  1  0.66350516  0.64653209  0.36333408  1
  In  In2  1  0.33976091  0.17358882  0.17115995  1
  In  In3  1  -0.00945298  0.17465503  0.15535473  1
  In  In4  1  0.33654312  0.17342019  0.81155217  1
  In  In5  1  0.01979191  0.00439788  0.66106846  1
  In  In6  1  0.79044376  0.18067735  0.31822356  1
  In  In7  1  0.64533675  0.65343433  0.01303521  1
  In  In8  1  0.65862809  0.18436168  0.50321184  1
  In  In9  1  0.33353752  0.68179217  0.31273287  1
  In  In10  1  0.47397332  0.34112770  0.16302896  1
  In  In11  1  0.48808125  0.01619527  0.82449584  1
  In  In12  1  0.15972187  0.66571721  0.49701940  1
  In  In13  1  0.84355350  -0.01360473  0.52202311  1
  In  In14  1  -0.00573633  0.18616475  0.81858286  1
  In  In15  1  0.19583277  0.84283138  0.70520364  1
  In  In16  1  0.18827099  0.84195048  0.32521397  1
  In  In17  1  0.65544289  0.84143764  0.18397818  1
  In  In18  1  0.16261107  0.50212702  0.32082232  1
  In  In19  1  0.01479386  -0.01241139  -0.02430592  1
  In  In20  1  0.34495906  0.17487323  0.52137026  1
  In  In21  1  0.65095322  0.02864733  0.66879099  1
  In  In22  1  0.88373493  0.62400374  0.83935900  1
  In  In23  1  0.35103581  0.00654668  -0.00650598  1
  In  In24  1  0.00162943  0.64857396  -0.00942975  1
  In  In25  1  0.50460974  0.34075933  0.83323000  1
  In  In26  1  0.16799104  0.49781027  0.67347514  1
  In  In27  1  0.17880477  0.00152081  0.15589372  1
  In  In28  1  0.84232845  0.00845738  0.83992785  1
  In  In29  1  0.65917494  0.48999658  0.85226960  1
  In  In30  1  0.50302341  -0.00918967  0.19119351  1
  In  In31  1  0.34719592  0.49208812  0.82585708  1
  In  In32  1  0.17096238  0.19665921  -0.05332278  1
  In  In33  1  0.79138776  0.65509818  0.51297178  1
  In  In34  1  0.82461407  0.48750032  0.32727462  1
  In  In35  1  0.50403074  0.83142175  0.34607359  1
  In  In36  1  0.17228835  0.66571252  0.82649539  1
  In  In37  1  0.18238031  0.81893780  -0.02750664  1
  In  In38  1  0.81616381  0.21315228  0.00129717  1
  In  In39  1  0.84374495  0.01010747  0.13468903  1
  In  In40  1  0.17862256  0.17310328  0.66473989  1
  In  In41  1  0.83303796  0.47074182  -0.00844660  1
  In  In42  1  0.00137809  0.17639804  0.51362362  1
  In  In43  1  0.50368618  0.50587586  0.33610413  1
  In  In44  1  0.34057327  0.33181753  -0.01732648  1
  In  In45  1  0.15459054  0.15535420  0.33983965  1
  In  In46  1  0.48570847  0.83705594  0.00175920  1
  In  In47  1  0.47223518  0.67563971  0.83146631  1
  In  In48  1  0.83138030  0.83253273  0.67039843  1
  In  In49  1  -0.02239546  0.35830545  0.66828923  1
  In  In50  1  0.64303284  0.67107660  0.68547056  1
  In  In51  1  -0.00457801  0.35263395  0.32486692  1
  In  In52  1  0.84911562  0.81448586  -0.01302978  1
  In  In53  1  -0.00232979  0.82974948  0.52786595  1
  In  In54  1  0.65150789  0.34751628  0.67063401  1
  In  In55  1  0.82578986  0.32428767  0.49426991  1
  In  In56  1  0.82821819  0.66229060  0.18632890  1
  In  In57  1  0.01505514  0.64973308  0.31393299  1
  In  In58  1  0.32841698  0.32570995  0.33180409  1
  In  In59  1  0.49230593  0.64115911  0.14922869  1
  In  In60  1  0.00616089  0.51006805  0.48082378  1
  In  In61  1  0.65271535  0.17302326  0.85116187  1
  In  In62  1  0.14944302  0.36550088  0.11566472  1
  In  In63  1  0.01392889  0.01178271  0.33965022  1
  In  In64  1  0.82800909  0.79506505  0.33774135  1
  In  In65  1  0.68668224  0.85293443  0.83441021  1
  In  In66  1  0.38013504  0.00032369  0.35919151  1
  In  In67  1  0.18449384  0.62897810  0.11100275  1
  In  In68  1  0.64521742  0.20179610  0.16155985  1
  In  In69  1  0.34957697  0.81054662  0.50007092  1
  In  In70  1  0.50433239  0.32787945  0.51279497  1
  In  In71  1  0.66299426  -0.01874675  0.34549925  1
  Te  Te72  1  0.08410873  0.08502875  0.07306312  1
  Te  Te73  1  0.09422261  0.07239017  0.45268774  1
  Te  Te74  1  0.09355226  0.08668757  0.76220917  1
  Te  Te75  1  0.07117574  0.44937984  0.02062633  1
  Te  Te76  1  0.09923426  0.40655227  0.42163699  1
  Te  Te77  1  0.07427857  0.42280892  0.76422579  1
  Te  Te78  1  0.09024639  0.74326594  0.06941758  1
  Te  Te79  1  0.07877662  0.76141209  0.40845355  1
  Te  Te80  1  0.08773791  0.74909385  0.73879947  1
  Te  Te81  1  0.43446057  0.08608421  0.09212301  1
  Te  Te82  1  0.44664068  0.10459867  0.43661277  1
  Te  Te83  1  0.40308063  0.07760040  0.72046734  1
  Te  Te84  1  0.37504985  0.43010457  0.08988398  1
  Te  Te85  1  0.40238749  0.42055045  0.42411219  1
  Te  Te86  1  0.41619268  0.39993475  0.72977147  1
  Te  Te87  1  0.41336088  0.75268786  0.09658958  1
  Te  Te88  1  0.43635931  0.71567942  0.41690381  1
  Te  Te89  1  0.42651331  0.75420614  0.70917823  1
  Te  Te90  1  0.74241157  0.10683540  0.08381126  1
  Te  Te91  1  0.76044922  0.07784204  0.42860970  1
  Te  Te92  1  0.75188350  0.09649706  0.75911710  1
  Te  Te93  1  0.76694198  0.38020257  0.08742707  1
  Te  Te94  1  0.73525124  0.39975629  0.40607651  1
  Te  Te95  1  0.74784626  0.40435831  0.77032617  1
  Te  Te96  1  0.74532229  0.75621943  0.09077714  1
  Te  Te97  1  0.71881351  0.76696306  0.43927971  1
  Te  Te98  1  0.76000707  0.73897454  0.76640920  1
  Te  Te99  1  0.08715240  0.25221644  0.24511057  1
  Te  Te100  1  0.08374127  0.27080926  0.59336076  1
  Te  Te101  1  0.04454158  0.27012606  0.93314430  1
  Te  Te102  1  0.08116767  0.56369280  0.20902047  1
  Te  Te103  1  0.07054049  0.58919489  0.59138113  1
  Te  Te104  1  0.10203087  0.56647670  0.91617903  1
  Te  Te105  1  0.08497547  0.91906207  0.24272759  1
  Te  Te106  1  0.10807430  0.91135759  0.58428146  1
  Te  Te107  1  0.09963577  0.90723772  0.88795166  1
  Te  Te108  1  0.43217869  0.23408394  0.27156216  1
  Te  Te109  1  0.39980775  0.28256137  0.60919030  1
  Te  Te110  1  0.42894947  0.23100815  0.91636396  1
  Te  Te111  1  0.39694404  0.56607109  0.24085875  1
  Te  Te112  1  0.43128310  0.62550347  0.60829510  1
  Te  Te113  1  0.40288730  0.58644102  0.93057491  1
  Te  Te114  1  0.40320344  0.89413093  0.25160282  1
  Te  Te115  1  0.42997605  0.87229741  0.60658828  1
  Te  Te116  1  0.39826431  0.89757999  0.88869478  1
  Te  Te117  1  0.75277591  0.28876256  0.22350123  1
  Te  Te118  1  0.75244457  0.24891929  0.60108444  1
  Te  Te119  1  0.74178761  0.28449468  0.89533205  1
  Te  Te120  1  0.72464997  0.56993215  0.24614748  1
  Te  Te121  1  0.73522858  0.57496886  0.62050511  1
  Te  Te122  1  0.75644569  0.59482722  0.92521919  1
  Te  Te123  1  0.76968124  0.92043150  0.24535491  1
  Te  Te124  1  0.73180998  0.91651028  0.59514220  1
  Te  Te125  1  0.76008163  0.93007695  0.94150120  1
  Te  Te126  1  0.23890703  0.23889376  0.07929902  1
  Te  Te127  1  0.24359398  0.24206675  0.42544087  1
  Te  Te128  1  0.22513498  0.26518454  0.77406994  1
  Te  Te129  1  0.28349008  0.54697705  0.03869069  1
  Te  Te130  1  0.25375797  0.58528683  0.40973059  1
  Te  Te131  1  0.27018840  0.58874719  0.73705627  1
  Te  Te132  1  0.26321050  0.91082832  0.07210816  1
  Te  Te133  1  0.26861494  0.92148046  0.42519366  1
  Te  Te134  1  0.27861274  0.92499101  0.79287069  1
  Te  Te135  1  0.56724670  0.27942263  0.06553678  1
  Te  Te136  1  0.60262015  0.28277301  0.40928073  1
  Te  Te137  1  0.57150194  0.23963129  0.74158415  1
  Te  Te138  1  0.57650481  0.54167411  0.07839397  1
  Te  Te139  1  0.58749451  0.55401289  0.45005857  1
  Te  Te140  1  0.56280656  0.57059015  0.76812712  1
  Te  Te141  1  0.58472454  0.92416975  0.08026246  1
  Te  Te142  1  0.56561717  0.92573023  0.43930933  1
  Te  Te143  1  0.58348442  0.91739558  0.74916124  1
  Te  Te144  1  0.90115570  0.28235221  0.10425819  1
  Te  Te145  1  0.92090648  0.24031693  0.40097121  1
  Te  Te146  1  0.89539079  0.26674309  0.74868218  1
  Te  Te147  1  0.89858110  0.58149290  0.08081981  1
  Te  Te148  1  0.90319902  0.60269009  0.40704600  1
  Te  Te149  1  0.94630269  0.51278402  0.76856289  1
  Te  Te150  1  0.93520128  0.90440018  0.07648057  1
  Te  Te151  1  0.91897069  0.91053707  0.41404344  1
  Te  Te152  1  0.92567827  0.92077442  0.74889811  1
  Te  Te153  1  0.26237576  0.07432742  0.26179094  1
  Te  Te154  1  0.26926497  0.07512836  0.60119632  1
  Te  Te155  1  0.25021688  0.07762963  0.90502154  1
  Te  Te156  1  0.24017649  0.40342081  0.23622743  1
  Te  Te157  1  0.24902019  0.42755421  0.57281073  1
  Te  Te158  1  0.24983393  0.39569133  0.88671271  1
  Te  Te159  1  0.22110659  0.73065370  0.22730036  1
  Te  Te160  1  0.24270197  0.74825692  0.58890839  1
  Te  Te161  1  0.27969580  0.73418626  0.90173272  1
  Te  Te162  1  0.59946586  0.08631787  0.25808195  1
  Te  Te163  1  0.56142938  0.09968501  0.57513629  1
  Te  Te164  1  0.58363861  0.06510591  0.92302350  1
  Te  Te165  1  0.57095756  0.40562890  0.25307489  1
  Te  Te166  1  0.57745994  0.43860851  0.58028334  1
  Te  Te167  1  0.56226166  0.42354971  0.94298996  1
  Te  Te168  1  0.58256515  0.72967851  0.25371767  1
  Te  Te169  1  0.54234159  0.73759572  0.59662639  1
  Te  Te170  1  0.58732978  0.75323559  0.91277583  1
  Te  Te171  1  0.91094018  0.08675921  0.25440045  1
  Te  Te172  1  0.91135050  0.09403194  0.60395298  1
  Te  Te173  1  0.91506810  0.10252155  0.93382948  1
  Te  Te174  1  0.93249643  0.44854917  0.23491546  1
  Te  Te175  1  0.89906490  0.43855588  0.56154027  1
  Te  Te176  1  0.95203345  0.40856669  0.92825355  1
  Te  Te177  1  0.93670360  0.75508820  0.23727702  1
  Te  Te178  1  0.90605316  0.72835153  0.58978824  1
  Te  Te179  1  0.94541860  0.75241994  0.88938182  1
