# generated using pymatgen
data_In2Te3
_symmetry_space_group_name_H-M   'P 1'
_cell_length_a   18.84961708
_cell_length_b   18.84953109
_cell_length_c   18.86606571
_cell_angle_alpha   90.19375820
_cell_angle_beta   90.01067005
_cell_angle_gamma   89.91811625
_symmetry_Int_Tables_number   1
_chemical_formula_structural   In2Te3
_chemical_formula_sum   'In72 Te108'
_cell_volume   6703.18941788
_cell_formula_units_Z   36
loop_
 _symmetry_equiv_pos_site_id
 _symmetry_equiv_pos_as_xyz
  1  'x, y, z'
loop_
 _atom_site_type_symbol
 _atom_site_label
 _atom_site_symmetry_multiplicity
 _atom_site_fract_x
 _atom_site_fract_y
 _atom_site_fract_z
 _atom_site_occupancy
  In  In0  1  0.14148404  0.53964736  -0.02920616  1
  In  In1  1  0.82641020  0.14827060  0.01412570  1
  In  In2  1  -0.00798020  0.68975286  0.66303862  1
  In  In3  1  0.30375113  0.50302275  0.14563355  1
  In  In4  1  0.85022352  0.68892086  0.85251770  1
  In  In5  1  0.80322527  0.02248407  0.82975574  1
  In  In6  1  0.64224112  0.65987657  0.67602089  1
  In  In7  1  0.52033370  0.32465516  0.50154328  1
  In  In8  1  0.84757579  0.67988960  0.18891415  1
  In  In9  1  0.16375096  0.68124403  0.48972890  1
  In  In10  1  0.00104197  0.33145398  0.67010105  1
  In  In11  1  0.36170011  0.14955719  0.48388505  1
  In  In12  1  0.52069773  0.84805619  0.66369685  1
  In  In13  1  -0.00051894  0.69430571  0.34377332  1
  In  In14  1  0.65118662  0.83638091  0.15861445  1
  In  In15  1  -0.02619530  0.49757595  0.16450794  1
  In  In16  1  0.33841144  -0.01667486  0.67121573  1
  In  In17  1  0.84044579  0.49960847  0.00675863  1
  In  In18  1  0.83595271  0.15368353  0.64777384  1
  In  In19  1  0.48388060  0.67683442  0.14875920  1
  In  In20  1  0.51426469  -0.00024387  0.15336785  1
  In  In21  1  0.69267577  0.83611470  0.83499718  1
  In  In22  1  0.84063097  0.50238999  0.68355815  1
  In  In23  1  0.33374288  0.17335763  0.84601872  1
  In  In24  1  -0.00684592  0.49908771  0.52019478  1
  In  In25  1  0.67258972  0.16225796  0.50859449  1
  In  In26  1  0.84253658  -0.00673890  0.16136917  1
  In  In27  1  0.83756145  0.69038878  0.50549060  1
  In  In28  1  0.32428786  0.72055157  0.30725966  1
  In  In29  1  0.48980786  0.47486254  -0.00976793  1
  In  In30  1  0.29695061  0.46887299  0.50028351  1
  In  In31  1  0.81320520  0.33882287  0.16908556  1
  In  In32  1  0.66666205  0.65287610  -0.00088726  1
  In  In33  1  0.34703042  0.30909853  0.34199196  1
  In  In34  1  0.49721064  0.83326417  0.01662857  1
  In  In35  1  0.31471227  0.86133639  0.19209161  1
  In  In36  1  0.32787044  0.31064398  0.02529689  1
  In  In37  1  0.71350828  0.67210550  0.32515112  1
  In  In38  1  -0.00989311  -0.00246899  0.00594378  1
  In  In39  1  0.67551059  0.48289239  0.48861376  1
  In  In40  1  0.16393059  0.34577591  0.83556321  1
  In  In41  1  0.52162125  0.28306226  0.16717233  1
  In  In42  1  0.00480888  0.83042796  0.83039127  1
  In  In43  1  0.82571140  0.48849348  0.32056074  1
  In  In44  1  0.51345765  0.67647969  0.51378788  1
  In  In45  1  0.66892307  0.29254641  0.33044705  1
  In  In46  1  0.15064095  0.17260325  0.67244819  1
  In  In47  1  0.32707177  0.84550483  0.48433682  1
  In  In48  1  -0.02787316  0.16739145  0.20246044  1
  In  In49  1  0.34089980  0.49909892  0.83939616  1
  In  In50  1  0.14137256  0.03004439  0.50915309  1
  In  In51  1  0.01723183  0.33331575  -0.00902426  1
  In  In52  1  0.30532902  0.84617414  0.84197010  1
  In  In53  1  0.47848810  0.65798660  0.83007585  1
  In  In54  1  0.83215889  0.31939091  0.82905578  1
  In  In55  1  0.51112574  0.49975938  0.31080405  1
  In  In56  1  0.16184385  0.29659260  0.49525072  1
  In  In57  1  0.35240113  -0.01173093  -0.00145698  1
  In  In58  1  0.49956644  0.49511961  0.66641521  1
  In  In59  1  0.17684727  0.16131897  0.01045803  1
  In  In60  1  0.69667136  0.01852838  0.34323337  1
  In  In61  1  0.15572335  0.89669020  0.31690903  1
  In  In62  1  0.52196110  0.31746127  0.82489070  1
  In  In63  1  0.16537865  0.50658152  0.34609004  1
  In  In64  1  0.15646910  0.81591921  0.00100007  1
  In  In65  1  0.80823711  0.87891231  0.63596436  1
  In  In66  1  0.54074772  0.03783967  0.85818563  1
  In  In67  1  0.31608617  0.65014841  0.67069640  1
  In  In68  1  0.15727572  0.31384607  0.16801931  1
  In  In69  1  0.50088843  0.16973446  0.64574367  1
  In  In70  1  -0.00668115  0.00946675  0.65774890  1
  In  In71  1  0.52624974  0.87033621  0.32375458  1
  Te  Te72  1  0.06068711  0.10438970  0.09034414  1
  Te  Te73  1  0.04200885  0.06758938  0.40191541  1
  Te  Te74  1  0.07886429  0.07835670  0.75734710  1
  Te  Te75  1  0.09225455  0.42633284  0.08756066  1
  Te  Te76  1  0.07980173  0.41337240  0.42874816  1
  Te  Te77  1  0.07422289  0.42792853  0.75325894  1
  Te  Te78  1  0.09366212  0.74831047  0.11494473  1
  Te  Te79  1  0.09503133  0.79033279  0.41439881  1
  Te  Te80  1  0.09651766  0.75093953  0.74685839  1
  Te  Te81  1  0.42675288  0.08875237  0.07530122  1
  Te  Te82  1  0.43086682  0.05801177  0.39348267  1
  Te  Te83  1  0.42495014  0.08523730  0.75775545  1
  Te  Te84  1  0.41693898  0.40190562  0.11167402  1
  Te  Te85  1  0.43012849  0.42341791  0.41678265  1
  Te  Te86  1  0.41384827  0.40147470  0.74849186  1
  Te  Te87  1  0.37986816  0.76632866  0.08489581  1
  Te  Te88  1  0.43498547  0.76389770  0.40854863  1
  Te  Te89  1  0.41743990  0.75405017  0.72996457  1
  Te  Te90  1  0.74263369  0.10594962  0.13354284  1
  Te  Te91  1  0.78689166  0.10153951  0.42972716  1
  Te  Te92  1  0.72381361  0.10695157  0.73692752  1
  Te  Te93  1  0.73810331  0.41173229  0.06633267  1
  Te  Te94  1  0.76249527  0.38497282  0.41277878  1
  Te  Te95  1  0.74727830  0.41519545  0.75425775  1
  Te  Te96  1  0.74900586  0.74519632  0.08598789  1
  Te  Te97  1  0.76718242  0.78659619  0.40978592  1
  Te  Te98  1  0.76127375  0.74268502  0.73330597  1
  Te  Te99  1  0.08402941  0.23989131  0.27474985  1
  Te  Te100  1  0.04273973  0.22047427  0.56203995  1
  Te  Te101  1  0.09074943  0.23166099  0.90570800  1
  Te  Te102  1  0.06461001  0.57994187  0.26147346  1
  Te  Te103  1  0.09034671  0.59279366  0.58841510  1
  Te  Te104  1  0.02759253  0.59506386  0.90048596  1
  Te  Te105  1  0.06113362  0.96086672  0.21676969  1
  Te  Te106  1  0.08290694  0.91801989  0.58368779  1
  Te  Te107  1  0.09010219  0.92528156  0.91675049  1
  Te  Te108  1  0.42447727  0.21712906  0.25674089  1
  Te  Te109  1  0.40321745  0.26492518  0.57742808  1
  Te  Te110  1  0.43165434  0.24902883  0.93335327  1
  Te  Te111  1  0.40102550  0.58439116  0.24313464  1
  Te  Te112  1  0.41118530  0.57661286  0.57309564  1
  Te  Te113  1  0.40338921  0.59291415  0.94397406  1
  Te  Te114  1  0.40953799  0.95618029  0.27474949  1
  Te  Te115  1  0.43130284  0.92471819  0.56616936  1
  Te  Te116  1  0.43742787  0.91309883  0.89434563  1
  Te  Te117  1  0.78188857  0.22517074  0.26010194  1
  Te  Te118  1  0.75907880  0.25990359  0.57754210  1
  Te  Te119  1  0.74602306  0.23622440  0.92230660  1
  Te  Te120  1  0.74606073  0.56701902  0.21931314  1
  Te  Te121  1  0.74850509  0.58597042  0.57948427  1
  Te  Te122  1  0.75761483  0.57951682  0.90272758  1
  Te  Te123  1  0.74948064  0.90643068  0.24839847  1
  Te  Te124  1  0.70315410  0.95676378  0.56681452  1
  Te  Te125  1  0.75382082  0.92797039  0.93303905  1
  Te  Te126  1  0.26440962  0.21303896  0.12428764  1
  Te  Te127  1  0.24620570  0.21017400  0.40085683  1
  Te  Te128  1  0.25408568  0.25745753  0.74881324  1
  Te  Te129  1  0.21580335  0.60347394  0.08292942  1
  Te  Te130  1  0.26715933  0.60312200  0.41000427  1
  Te  Te131  1  0.23672336  0.57171233  0.76524058  1
  Te  Te132  1  0.23842344  0.92989398  0.07972517  1
  Te  Te133  1  0.25106789  0.95948678  0.42464848  1
  Te  Te134  1  0.22746276  0.92129059  0.74341594  1
  Te  Te135  1  0.61429673  0.20956660  0.07838504  1
  Te  Te136  1  0.56491423  0.21505231  0.40830480  1
  Te  Te137  1  0.60413832  0.22695058  0.73805285  1
  Te  Te138  1  0.57137475  0.57108282  0.08392796  1
  Te  Te139  1  0.59588810  0.58616275  0.40952334  1
  Te  Te140  1  0.58332705  0.56133918  0.77564376  1
  Te  Te141  1  0.60781094  0.93379434  0.04965703  1
  Te  Te142  1  0.61102216  0.92870316  0.43170291  1
  Te  Te143  1  0.60156577  0.93324185  0.76096364  1
  Te  Te144  1  0.91954464  0.25985020  0.08072871  1
  Te  Te145  1  0.99405898  0.21014582  0.41636616  1
  Te  Te146  1  0.92561752  0.22791455  0.75051634  1
  Te  Te147  1  0.92570958  0.60903184  0.07472379  1
  Te  Te148  1  0.90963357  0.58382351  0.41526296  1
  Te  Te149  1  0.93885367  0.58688222  0.76803765  1
  Te  Te150  1  0.91742640  0.89140025  0.08044808  1
  Te  Te151  1  0.89732718  0.86304090  0.38153705  1
  Te  Te152  1  0.89560376  0.91796831  0.75509030  1
  Te  Te153  1  0.19575024  0.02108240  0.23595330  1
  Te  Te154  1  0.26103920  0.09479114  0.59673339  1
  Te  Te155  1  0.25029733  0.06804834  0.91394523  1
  Te  Te156  1  0.24987226  0.40709354  0.26201533  1
  Te  Te157  1  0.21398722  0.39637849  0.59438708  1
  Te  Te158  1  0.25304600  0.41351664  0.94184773  1
  Te  Te159  1  0.19562649  0.75830471  0.22799119  1
  Te  Te160  1  0.25145866  0.76131536  0.58571306  1
  Te  Te161  1  0.23589138  0.73457060  0.90430157  1
  Te  Te162  1  0.60802628  0.08034035  0.23791309  1
  Te  Te163  1  0.58669892  0.06207919  0.58348326  1
  Te  Te164  1  0.62126941  0.12853753  0.94368138  1
  Te  Te165  1  0.59898596  0.39756448  0.24276588  1
  Te  Te166  1  0.60407773  0.40647405  0.59933224  1
  Te  Te167  1  0.59646164  0.40076358  0.92260393  1
  Te  Te168  1  0.57930159  0.73642206  0.25284054  1
  Te  Te169  1  0.61781930  0.76890130  0.57193881  1
  Te  Te170  1  0.58119224  0.74665530  0.91074300  1
  Te  Te171  1  0.93097262  0.04128777  0.27766377  1
  Te  Te172  1  0.88970601  0.04718071  0.55494234  1
  Te  Te173  1  0.91824063  0.08880039  0.90780885  1
  Te  Te174  1  0.92930239  0.39305410  0.26371979  1
  Te  Te175  1  0.89591017  0.40049063  0.58120835  1
  Te  Te176  1  0.92383523  0.41692451  0.90752275  1
  Te  Te177  1  0.93335095  0.79304550  0.25096428  1
  Te  Te178  1  0.92515237  0.79307574  0.57331460  1
  Te  Te179  1  0.91984229  0.78211968  0.94354362  1
