# generated using pymatgen
data_In2Te3
_symmetry_space_group_name_H-M   'P 1'
_cell_length_a   18.95639553
_cell_length_b   18.96901943
_cell_length_c   18.98465323
_cell_angle_alpha   89.70110545
_cell_angle_beta   89.89364159
_cell_angle_gamma   89.84726357
_symmetry_Int_Tables_number   1
_chemical_formula_structural   In2Te3
_chemical_formula_sum   'In72 Te108'
_cell_volume   6826.45327863
_cell_formula_units_Z   36
loop_
 _symmetry_equiv_pos_site_id
 _symmetry_equiv_pos_as_xyz
  1  'x, y, z'
loop_
 _atom_site_type_symbol
 _atom_site_label
 _atom_site_symmetry_multiplicity
 _atom_site_fract_x
 _atom_site_fract_y
 _atom_site_fract_z
 _atom_site_occupancy
  In  In0  1  0.18999693  -0.00870005  0.18782677  1
  In  In1  1  0.17420870  0.67941907  0.52872678  1
  In  In2  1  0.86752289  0.21075594  0.32900367  1
  In  In3  1  -0.08559439  -0.06463859  -0.04008779  1
  In  In4  1  0.65072454  0.81230687  0.16439522  1
  In  In5  1  0.81977665  0.17080741  0.65042782  1
  In  In6  1  0.01936887  0.64447723  0.33114903  1
  In  In7  1  0.48664634  0.18930067  0.62574651  1
  In  In8  1  0.34006553  -0.02037377  0.67487640  1
  In  In9  1  -0.03331467  0.49127246  0.83824479  1
  In  In10  1  0.83297097  0.48285853  0.34198891  1
  In  In11  1  0.47016581  0.64203072  0.14958735  1
  In  In12  1  0.33035372  0.80583422  0.84539427  1
  In  In13  1  -0.02942388  0.68325208  0.68895092  1
  In  In14  1  0.18021317  0.14906787  0.66950667  1
  In  In15  1  0.36064195  0.20141360  0.20430245  1
  In  In16  1  0.68762511  0.02429127  0.32852962  1
  In  In17  1  0.73628868  0.76974435  0.55294119  1
  In  In18  1  0.18635153  0.35440824  0.49246270  1
  In  In19  1  0.83905039  0.65388924  0.15561551  1
  In  In20  1  0.81220185  0.17653342  -0.01573808  1
  In  In21  1  -0.00192714  0.17751763  0.48628418  1
  In  In22  1  0.51147597  0.84642246  0.36003850  1
  In  In23  1  0.79970880  0.38350247  0.54699947  1
  In  In24  1  -0.01510924  0.66954455  -0.01570138  1
  In  In25  1  0.00453925  -0.01934187  0.35425596  1
  In  In26  1  0.84782305  -0.16454771  0.78514100  1
  In  In27  1  0.19875677  0.65847845  0.14245314  1
  In  In28  1  0.34288371  0.41127299  0.03526381  1
  In  In29  1  0.19449974  0.15828197  0.04571903  1
  In  In30  1  0.32747489  0.03297943  0.36312469  1
  In  In31  1  0.52920758  0.01500427  0.17616290  1
  In  In32  1  0.70320267  0.17538095  0.17520117  1
  In  In33  1  0.61619932  0.35094832  -0.00689796  1
  In  In34  1  0.83033053  0.35282729  0.15534484  1
  In  In35  1  0.36382789  0.16460042  0.80898557  1
  In  In36  1  0.67503949  0.51604100  0.77930889  1
  In  In37  1  0.64508004  0.20315478  0.46909383  1
  In  In38  1  0.50440561  0.83840429  0.69179411  1
  In  In39  1  0.04274058  0.19294867  0.15898778  1
  In  In40  1  0.11280225  0.83376324  0.67346848  1
  In  In41  1  0.17366719  0.80885615  0.34912815  1
  In  In42  1  0.19914667  0.33879706  0.22074498  1
  In  In43  1  0.85690249  0.02834821  0.14588803  1
  In  In44  1  0.68564861  0.66694028  -0.03334746  1
  In  In45  1  0.51711257  0.15244247  -0.00445546  1
  In  In46  1  0.01488553  0.50986444  0.50314380  1
  In  In47  1  0.00274066  0.32877358  -0.01543545  1
  In  In48  1  0.35344343  -0.00733764  -0.00039875  1
  In  In49  1  -0.00976682  0.34258150  0.64562708  1
  In  In50  1  0.15099934  0.32230786  0.82681686  1
  In  In51  1  0.59612400  0.47270972  0.16030153  1
  In  In52  1  0.51969823  0.65523470  0.50452924  1
  In  In53  1  0.50104979  0.01881566  0.49059287  1
  In  In54  1  0.64139267  0.16661361  0.81522090  1
  In  In55  1  0.16473419  0.49792377  -0.00673892  1
  In  In56  1  0.16586829  0.79705939  -0.02403155  1
  In  In57  1  0.80527761  0.79509734  0.32047022  1
  In  In58  1  0.66867992  -0.00814920  0.68236986  1
  In  In59  1  0.33549218  0.51171532  0.80519042  1
  In  In60  1  0.34695613  0.65291794  0.34316742  1
  In  In61  1  0.62892351  0.62375931  0.31631129  1
  In  In62  1  0.51618963  0.80596373  -0.02247114  1
  In  In63  1  0.36227914  0.85180427  0.15809734  1
  In  In64  1  0.15203987  0.00321478  0.86538359  1
  In  In65  1  0.84032045  0.00588696  0.50098456  1
  In  In66  1  0.50329275  0.51068806  0.65223001  1
  In  In67  1  0.01315412  0.52016400  0.15890522  1
  In  In68  1  0.48531761  0.35033422  0.83171648  1
  In  In69  1  0.33429004  0.49431086  0.50894326  1
  In  In70  1  0.15397169  -0.02421255  0.52051010  1
  In  In71  1  -0.00991139  0.17331194  0.81833201  1
  Te  Te72  1  0.08717558  0.06385159  0.09669142  1
  Te  Te73  1  0.09582799  0.08035799  0.42219578  1
  Te  Te74  1  0.07870576  0.07048153  0.74950736  1
  Te  Te75  1  0.08635585  0.40326886  0.08473446  1
  Te  Te76  1  0.08565130  0.42156313  0.41042166  1
  Te  Te77  1  0.06979795  0.42102903  0.74881853  1
  Te  Te78  1  0.08200756  0.73421887  0.08597580  1
  Te  Te79  1  0.06806058  0.74496870  0.43318607  1
  Te  Te80  1  0.07525995  0.73594566  0.77827944  1
  Te  Te81  1  0.40864881  0.08699546  0.10494146  1
  Te  Te82  1  0.43736428  0.11928570  0.40414088  1
  Te  Te83  1  0.44722286  0.07429421  0.72465247  1
  Te  Te84  1  0.48754405  0.41870977  0.06282248  1
  Te  Te85  1  0.42579780  0.37325404  0.49437545  1
  Te  Te86  1  0.40825247  0.40942351  0.71722079  1
  Te  Te87  1  0.40341049  0.74470013  0.06005412  1
  Te  Te88  1  0.41729013  0.75244603  0.43054403  1
  Te  Te89  1  0.39775709  0.74471192  0.73153409  1
  Te  Te90  1  0.73631639  0.07245046  0.06801944  1
  Te  Te91  1  0.76972791  0.11563992  0.41920294  1
  Te  Te92  1  0.76060172  0.08461507  0.75974226  1
  Te  Te93  1  0.72147782  0.42180665  0.08152776  1
  Te  Te94  1  0.72506779  0.45346619  0.43912234  1
  Te  Te95  1  0.75160184  0.43089270  0.68652512  1
  Te  Te96  1  0.75543435  0.75146910  0.07486453  1
  Te  Te97  1  0.71056115  0.71600320  0.40483942  1
  Te  Te98  1  0.76684437  0.71462363  0.74781497  1
  Te  Te99  1  0.09194018  0.25784659  0.27954706  1
  Te  Te100  1  0.09771664  0.24870653  0.58608632  1
  Te  Te101  1  0.09546641  0.22177106  0.92797972  1
  Te  Te102  1  0.12427552  0.57329882  0.24725744  1
  Te  Te103  1  0.07383121  0.59968904  0.60916282  1
  Te  Te104  1  0.07584442  0.57834845  0.90273643  1
  Te  Te105  1  0.09123105  0.89964749  0.25807529  1
  Te  Te106  1  0.03269696  0.90598227  0.57020670  1
  Te  Te107  1  0.06544345  0.89925202  0.92766967  1
  Te  Te108  1  0.43203257  0.32286297  0.24858494  1
  Te  Te109  1  0.36514861  0.24468538  0.55935957  1
  Te  Te110  1  0.42137757  0.24645007  0.92248575  1
  Te  Te111  1  0.40145043  0.55556190  0.24738316  1
  Te  Te112  1  0.39914726  0.60407516  0.58867456  1
  Te  Te113  1  0.37581422  0.59101284  0.91876976  1
  Te  Te114  1  0.42398939  0.93886408  0.26678276  1
  Te  Te115  1  0.43216753  0.91419604  0.57395875  1
  Te  Te116  1  0.42929465  0.90855724  0.90226459  1
  Te  Te117  1  0.75066596  0.28526317  0.26824811  1
  Te  Te118  1  0.71638026  0.26216253  0.58905326  1
  Te  Te119  1  0.71489131  0.26184746  0.90764775  1
  Te  Te120  1  0.75071022  0.56698997  0.24303499  1
  Te  Te121  1  0.76525814  0.63496809  0.61637814  1
  Te  Te122  1  0.76055615  0.56092962  0.89558955  1
  Te  Te123  1  0.73891213  0.91134474  0.24060388  1
  Te  Te124  1  0.76995237  0.91543085  0.59925359  1
  Te  Te125  1  0.78211965  0.89838928  0.90348620  1
  Te  Te126  1  0.27267479  0.28067373  0.09495078  1
  Te  Te127  1  0.29111422  0.27512314  0.42019789  1
  Te  Te128  1  0.25968125  0.25368152  0.74305396  1
  Te  Te129  1  0.27405290  0.53373821  0.09293924  1
  Te  Te130  1  0.24079106  0.58675733  0.42717329  1
  Te  Te131  1  0.24202526  0.56105359  0.70494853  1
  Te  Te132  1  0.24428687  0.90619148  0.06614704  1
  Te  Te133  1  0.25422146  0.91291539  0.42312967  1
  Te  Te134  1  0.24836010  0.92094020  0.78095031  1
  Te  Te135  1  0.58956227  0.23779160  0.09504564  1
  Te  Te136  1  0.55189470  0.30882954  0.42718341  1
  Te  Te137  1  0.56450946  0.26758243  0.73134272  1
  Te  Te138  1  0.59471807  0.60196686  0.07680571  1
  Te  Te139  1  0.52370508  0.55003353  0.39161419  1
  Te  Te140  1  0.56181328  0.60868953  0.74725310  1
  Te  Te141  1  0.57419409  0.91056043  0.07693319  1
  Te  Te142  1  0.61482625  0.93292564  0.42610239  1
  Te  Te143  1  0.60913674  0.89705468  0.77635094  1
  Te  Te144  1  0.91372862  0.23650390  0.09209471  1
  Te  Te145  1  0.90602162  0.28902515  0.44868326  1
  Te  Te146  1  0.89918555  0.26512602  0.74037984  1
  Te  Te147  1  0.90718198  0.55993913  0.05793942  1
  Te  Te148  1  0.90986519  0.58701787  0.41881170  1
  Te  Te149  1  0.88088008  0.60557596  0.78577007  1
  Te  Te150  1  0.92102228  0.90596237  0.10499911  1
  Te  Te151  1  0.88584323  0.89915362  0.40299648  1
  Te  Te152  1  0.97278869  0.88704067  0.72143357  1
  Te  Te153  1  0.24801376  0.11012511  0.25949533  1
  Te  Te154  1  0.26459291  0.06710912  0.57550457  1
  Te  Te155  1  0.27116053  0.09184197  0.91479013  1
  Te  Te156  1  0.30285413  0.39002637  0.31270839  1
  Te  Te157  1  0.22695966  0.44362855  0.60605008  1
  Te  Te158  1  0.25267803  0.40109670  0.90618805  1
  Te  Te159  1  0.27281459  0.75677489  0.23946408  1
  Te  Te160  1  0.23556964  0.78758545  0.60419355  1
  Te  Te161  1  0.25815947  0.69237076  0.91691624  1
  Te  Te162  1  0.58797538  0.12027750  0.26609805  1
  Te  Te163  1  0.60366348  0.09145123  0.57677135  1
  Te  Te164  1  0.58364661  0.06316914  0.90305477  1
  Te  Te165  1  0.57148986  0.38687829  0.27796528  1
  Te  Te166  1  0.60042999  0.52827683  0.53681279  1
  Te  Te167  1  0.57927525  0.45260203  0.88569977  1
  Te  Te168  1  0.54526292  0.74460737  0.24982477  1
  Te  Te169  1  0.58699723  0.76395972  0.58638543  1
  Te  Te170  1  0.57441110  0.71292290  0.87829102  1
  Te  Te171  1  0.92628899  0.08363911  0.26787335  1
  Te  Te172  1  0.93160660  0.08845534  0.58972800  1
  Te  Te173  1  0.91767713  0.08906985  0.92017931  1
  Te  Te174  1  0.93269562  0.42184629  0.24316353  1
  Te  Te175  1  0.91073973  0.46715242  0.60863382  1
  Te  Te176  1  0.89173006  0.38598989  0.91038651  1
  Te  Te177  1  0.92564350  0.73483194  0.24887313  1
  Te  Te178  1  0.88436420  0.72600428  0.57290982  1
  Te  Te179  1  0.89508053  0.76930793  0.91816765  1
