# generated using pymatgen
data_In2Te3
_symmetry_space_group_name_H-M   'P 1'
_cell_length_a   18.87137764
_cell_length_b   18.88001571
_cell_length_c   18.87310396
_cell_angle_alpha   89.98129871
_cell_angle_beta   90.16157302
_cell_angle_gamma   89.79289796
_symmetry_Int_Tables_number   1
_chemical_formula_structural   In2Te3
_chemical_formula_sum   'In72 Te108'
_cell_volume   6724.26314331
_cell_formula_units_Z   36
loop_
 _symmetry_equiv_pos_site_id
 _symmetry_equiv_pos_as_xyz
  1  'x, y, z'
loop_
 _atom_site_type_symbol
 _atom_site_label
 _atom_site_symmetry_multiplicity
 _atom_site_fract_x
 _atom_site_fract_y
 _atom_site_fract_z
 _atom_site_occupancy
  In  In0  1  0.35329001  0.65362047  0.35997561  1
  In  In1  1  0.50364985  0.49295534  0.33179487  1
  In  In2  1  0.86221430  0.65720591  0.15292501  1
  In  In3  1  0.81019099  0.47467326  0.66275214  1
  In  In4  1  0.15845512  0.00329994  0.79854784  1
  In  In5  1  -0.00012542  -0.00775088  0.35038867  1
  In  In6  1  0.47849696  0.81037216  0.68006716  1
  In  In7  1  0.21197424  0.69157643  0.53150943  1
  In  In8  1  0.00739255  0.68409611  0.33424445  1
  In  In9  1  0.51423980  0.14799218  -0.01552027  1
  In  In10  1  0.65471013  0.49614655  0.80583458  1
  In  In11  1  0.17706315  0.68392239  0.82790187  1
  In  In12  1  0.51135271  0.00885460  0.49919468  1
  In  In13  1  0.31579163  -0.01698581  0.34969858  1
  In  In14  1  0.49672322  -0.01116089  0.83212401  1
  In  In15  1  -0.01720035  0.33051461  0.66150978  1
  In  In16  1  -0.00762385  0.01075260  0.00203857  1
  In  In17  1  0.65227456  0.33392223  0.33466466  1
  In  In18  1  0.51773453  0.49155224  0.65579574  1
  In  In19  1  0.63893527  0.67082947  -0.02289590  1
  In  In20  1  0.35648868  0.81315859  0.14241674  1
  In  In21  1  0.64813196  0.83709070  0.49998995  1
  In  In22  1  0.15044106  0.16178654  0.36773613  1
  In  In23  1  0.83650438  0.66616535  0.52272485  1
  In  In24  1  0.68051084  0.67436854  0.67286649  1
  In  In25  1  0.15160561  0.16331352  0.66214133  1
  In  In26  1  0.67663490  0.35169280  -0.00923751  1
  In  In27  1  0.49156524  0.82007781  0.34364609  1
  In  In28  1  0.83663253  0.65818945  0.83654141  1
  In  In29  1  0.83929369  0.00531787  0.18807789  1
  In  In30  1  -0.01713405  0.48753033  0.52782846  1
  In  In31  1  0.17688305  0.50990234  0.68567176  1
  In  In32  1  0.39252171  0.65034011  -0.03563821  1
  In  In33  1  0.16310511  0.47317678  0.31987973  1
  In  In34  1  0.15477009  0.00429368  0.16952288  1
  In  In35  1  0.68958256  0.19243778  0.49820010  1
  In  In36  1  0.17642456  0.85341833  -0.01623521  1
  In  In37  1  0.66914991  0.16461085  0.17463367  1
  In  In38  1  0.81918969  0.18267013  0.67017928  1
  In  In39  1  0.16333831  0.33626602  0.84032506  1
  In  In40  1  0.34777039  -0.01329905  -0.04619485  1
  In  In41  1  -0.02019850  0.33886239  -0.03074280  1
  In  In42  1  0.67806789  0.01388372  0.67990430  1
  In  In43  1  0.82818992  -0.00097553  0.48655257  1
  In  In44  1  0.81201096  0.49058113  0.34047141  1
  In  In45  1  0.34649510  0.15898257  0.83180044  1
  In  In46  1  0.52260426  -0.00753677  0.15458800  1
  In  In47  1  -0.01174767  0.14412733  0.17128421  1
  In  In48  1  0.49499096  0.33982542  0.17378950  1
  In  In49  1  0.15942636  0.50097519  -0.00729095  1
  In  In50  1  0.81106727  0.17555771  -0.00255575  1
  In  In51  1  0.16680518  0.31756378  0.51589852  1
  In  In52  1  0.80626430  0.33854425  0.16127141  1
  In  In53  1  -0.00186113  0.66778266  -0.00854560  1
  In  In54  1  0.34745823  0.49462326  0.49519279  1
  In  In55  1  0.80052087  0.85622359  -0.03599668  1
  In  In56  1  0.34038528  0.18326461  0.16255813  1
  In  In57  1  -0.01139712  -0.00632557  0.64518713  1
  In  In58  1  0.17800172  0.32174754  0.17662752  1
  In  In59  1  0.34226985  0.35191946  -0.00439636  1
  In  In60  1  0.00889377  0.66983865  0.68008128  1
  In  In61  1  -0.01770867  0.79966874  0.15645562  1
  In  In62  1  0.65750165  0.65349669  0.33969495  1
  In  In63  1  -0.03738215  0.47176700  0.17064912  1
  In  In64  1  0.37619534  0.32985689  0.68270729  1
  In  In65  1  0.67555703  0.83525987  0.14565302  1
  In  In66  1  0.35512380  0.18387605  0.52733671  1
  In  In67  1  0.18363502  0.65472687  0.18577933  1
  In  In68  1  0.33602787  0.50506973  0.16736412  1
  In  In69  1  0.16995743  0.83901557  0.35527268  1
  In  In70  1  0.34728995  -0.01029605  0.69141203  1
  In  In71  1  0.83782902  0.82372568  0.69539163  1
  Te  Te72  1  0.09523714  0.10195490  0.07015425  1
  Te  Te73  1  0.09507138  0.05061266  0.45284499  1
  Te  Te74  1  0.05008624  0.09703170  0.75068938  1
  Te  Te75  1  0.08745046  0.41391070  0.09447042  1
  Te  Te76  1  0.07055977  0.40436366  0.42305664  1
  Te  Te77  1  0.07272086  0.42019296  0.74993088  1
  Te  Te78  1  0.10316473  0.74693849  0.07765376  1
  Te  Te79  1  0.08901808  0.74778592  0.44363963  1
  Te  Te80  1  0.09015459  0.77169506  0.74683999  1
  Te  Te81  1  0.40805291  0.07886795  0.06994815  1
  Te  Te82  1  0.40545678  0.08466109  0.41939898  1
  Te  Te83  1  0.44512109  0.09968937  0.73549610  1
  Te  Te84  1  0.43737251  0.44028275  0.07328735  1
  Te  Te85  1  0.42144073  0.40074473  0.41169545  1
  Te  Te86  1  0.42131042  0.44861484  0.76359838  1
  Te  Te87  1  0.46402070  0.73083059  0.07390288  1
  Te  Te88  1  0.39797896  0.76530005  0.44268525  1
  Te  Te89  1  0.37447986  0.72292254  0.74045896  1
  Te  Te90  1  0.74552131  0.06929253  0.08509485  1
  Te  Te91  1  0.73613610  0.08349633  0.40956804  1
  Te  Te92  1  0.78400701  0.07166229  0.76694320  1
  Te  Te93  1  0.73503508  0.44459014  0.08986100  1
  Te  Te94  1  0.72599409  0.41749819  0.43361593  1
  Te  Te95  1  0.74866362  0.38706922  0.76568005  1
  Te  Te96  1  0.76640690  0.73713196  0.06227667  1
  Te  Te97  1  0.74520669  0.74382979  0.42775727  1
  Te  Te98  1  0.73322493  0.76151740  0.78557574  1
  Te  Te99  1  0.07809859  0.23971488  0.25641832  1
  Te  Te100  1  0.05416853  0.23204144  0.56734256  1
  Te  Te101  1  0.07467833  0.24479524  0.91191062  1
  Te  Te102  1  0.06140392  0.57366251  0.23905064  1
  Te  Te103  1  0.09416972  0.58146638  0.57799415  1
  Te  Te104  1  0.07948847  0.58439097  0.89373251  1
  Te  Te105  1  0.07284486  0.89857324  0.24097292  1
  Te  Te106  1  0.10681479  0.94811193  0.57159242  1
  Te  Te107  1  0.07165989  0.92451541  0.90406590  1
  Te  Te108  1  0.43647864  0.23606122  0.25958776  1
  Te  Te109  1  0.47135115  0.27889438  0.57060295  1
  Te  Te110  1  0.42970628  0.25586398  0.91380366  1
  Te  Te111  1  0.42787973  0.59959428  0.24275247  1
  Te  Te112  1  0.42872651  0.58272557  0.57867373  1
  Te  Te113  1  0.47467507  0.55648695  0.88268530  1
  Te  Te114  1  0.41290429  0.92041900  0.24585177  1
  Te  Te115  1  0.42405633  0.91564139  0.58082223  1
  Te  Te116  1  0.42938776  0.87269947  0.90421149  1
  Te  Te117  1  0.75823490  0.24384896  0.26826401  1
  Te  Te118  1  0.70363352  0.27559638  0.62695706  1
  Te  Te119  1  0.72832857  0.24918498  0.89889705  1
  Te  Te120  1  0.75490762  0.58780873  0.23931702  1
  Te  Te121  1  0.73089075  0.57020759  0.57400299  1
  Te  Te122  1  0.73629907  0.57427641  0.91138902  1
  Te  Te123  1  0.74491740  0.91279335  0.25075158  1
  Te  Te124  1  0.75020613  0.90345124  0.59179331  1
  Te  Te125  1  0.72728469  0.96257550  0.89364080  1
  Te  Te126  1  0.24849054  0.25191448  0.06094893  1
  Te  Te127  1  0.26231520  0.25037956  0.41970529  1
  Te  Te128  1  0.25169941  0.25137405  0.74564511  1
  Te  Te129  1  0.26224189  0.58919732  0.06425624  1
  Te  Te130  1  0.22933519  0.58106239  0.40747067  1
  Te  Te131  1  0.27645060  0.59447558  0.75654528  1
  Te  Te132  1  0.25980349  0.92643465  0.08934742  1
  Te  Te133  1  0.24545988  0.91302748  0.46011731  1
  Te  Te134  1  0.25658975  0.89618498  0.76325185  1
  Te  Te135  1  0.58174203  0.24888172  0.07947174  1
  Te  Te136  1  0.57498156  0.23489727  0.41248958  1
  Te  Te137  1  0.51809867  0.28080458  0.71385570  1
  Te  Te138  1  0.55320169  0.60436684  0.07605774  1
  Te  Te139  1  0.56208797  0.58703538  0.42878647  1
  Te  Te140  1  0.56882974  0.61540885  0.75985747  1
  Te  Te141  1  0.58343635  0.90699587  0.05117777  1
  Te  Te142  1  0.58733325  0.92771465  0.39445989  1
  Te  Te143  1  0.58276620  0.90799180  0.73538110  1
  Te  Te144  1  0.91554150  0.25625498  0.09280843  1
  Te  Te145  1  0.97357689  0.28686906  0.39047438  1
  Te  Te146  1  0.90234744  0.26348020  0.76304117  1
  Te  Te147  1  0.91219844  0.55008449  0.04390670  1
  Te  Te148  1  0.92001247  0.58147305  0.41716507  1
  Te  Te149  1  0.90840648  0.57029977  0.73517753  1
  Te  Te150  1  0.90673947  0.90883816  0.08081929  1
  Te  Te151  1  0.91570344  0.89797033  0.42332122  1
  Te  Te152  1  0.91739586  0.92950364  0.75768788  1
  Te  Te153  1  0.24430513  0.09194627  0.25539419  1
  Te  Te154  1  0.26479977  0.08480830  0.59854569  1
  Te  Te155  1  0.23868568  0.08153613  0.90420153  1
  Te  Te156  1  0.28121657  0.39697018  0.25920858  1
  Te  Te157  1  0.25570842  0.41209928  0.59499298  1
  Te  Te158  1  0.26149666  0.43723208  0.89848114  1
  Te  Te159  1  0.26310398  0.76278219  0.25896945  1
  Te  Te160  1  0.26173306  0.77255778  0.64579325  1
  Te  Te161  1  0.26898593  0.74440564  0.93471477  1
  Te  Te162  1  0.57062786  0.08826535  0.25345217  1
  Te  Te163  1  0.59726147  0.09796659  0.58510825  1
  Te  Te164  1  0.60838475  0.06723490  0.90006994  1
  Te  Te165  1  0.60012016  0.43319892  0.23069405  1
  Te  Te166  1  0.60430187  0.39043521  0.58844977  1
  Te  Te167  1  0.57241173  0.42580016  0.91151654  1
  Te  Te168  1  0.58908004  0.75476620  0.24804509  1
  Te  Te169  1  0.57284581  0.73671950  0.58297225  1
  Te  Te170  1  0.55940963  0.78551003  0.92594065  1
  Te  Te171  1  0.90728966  0.09740761  0.29077428  1
  Te  Te172  1  0.90271660  0.09905520  0.57155387  1
  Te  Te173  1  0.90190267  0.09036494  0.91779883  1
  Te  Te174  1  0.91196100  0.38185191  0.28800297  1
  Te  Te175  1  0.87955289  0.38386868  0.55873855  1
  Te  Te176  1  0.89708320  0.44784584  0.92666759  1
  Te  Te177  1  0.88986734  0.75626073  0.26822167  1
  Te  Te178  1  0.93054788  0.76491886  0.58800516  1
  Te  Te179  1  0.91716965  0.76551809  0.90956137  1
