# generated using pymatgen
data_In2Te3
_symmetry_space_group_name_H-M   'P 1'
_cell_length_a   18.93883649
_cell_length_b   18.94306278
_cell_length_c   18.94966423
_cell_angle_alpha   90.00363387
_cell_angle_beta   89.92529895
_cell_angle_gamma   89.96959865
_symmetry_Int_Tables_number   1
_chemical_formula_structural   In2Te3
_chemical_formula_sum   'In72 Te108'
_cell_volume   6798.36661489
_cell_formula_units_Z   36
loop_
 _symmetry_equiv_pos_site_id
 _symmetry_equiv_pos_as_xyz
  1  'x, y, z'
loop_
 _atom_site_type_symbol
 _atom_site_label
 _atom_site_symmetry_multiplicity
 _atom_site_fract_x
 _atom_site_fract_y
 _atom_site_fract_z
 _atom_site_occupancy
  In  In0  1  0.80749192  0.51136094  0.34967359  1
  In  In1  1  0.16994953  0.83436802  0.35041281  1
  In  In2  1  0.16672584  0.33185098  0.81221155  1
  In  In3  1  0.81932167  0.86068780  0.66760314  1
  In  In4  1  0.00171826  0.50175213  0.50128058  1
  In  In5  1  0.34273111  0.82252742  0.14322264  1
  In  In6  1  0.32405437  0.16216384  0.50770002  1
  In  In7  1  0.67211272  0.51303484  0.84810135  1
  In  In8  1  0.49947648  0.50052072  0.32669443  1
  In  In9  1  0.00556185  0.67956712  0.66469186  1
  In  In10  1  0.67626308  0.82321009  0.83860558  1
  In  In11  1  0.34145348  -0.00781515  0.01066509  1
  In  In12  1  0.52293035  0.01888128  0.85802255  1
  In  In13  1  0.81807224  0.67865709  0.48511170  1
  In  In14  1  -0.02824180  0.01392794  0.32402238  1
  In  In15  1  0.84039341  0.52937504  0.66841681  1
  In  In16  1  0.00509377  0.15848422  0.50623771  1
  In  In17  1  0.81838286  0.32044751  0.17881452  1
  In  In18  1  0.52803272  0.30277556  0.48171970  1
  In  In19  1  0.16031326  0.18557101  0.65302615  1
  In  In20  1  0.81729771  0.32523301  0.83566053  1
  In  In21  1  0.50137043  0.48498408  -0.00566537  1
  In  In22  1  0.33144157  0.50373528  0.51183802  1
  In  In23  1  0.31918552  0.01471921  0.33387355  1
  In  In24  1  0.51101177  0.83343653  0.31465707  1
  In  In25  1  0.35747522  0.68042252  0.02037817  1
  In  In26  1  0.34901545  0.15412334  0.17317048  1
  In  In27  1  0.82372438  0.48978827  0.00157975  1
  In  In28  1  0.35222398  0.34351471  0.66938841  1
  In  In29  1  0.50788688  0.01486941  0.50371181  1
  In  In30  1  0.34050210  0.85404003  0.82283230  1
  In  In31  1  0.51363217  0.33337212  0.15125148  1
  In  In32  1  0.04590203  0.69309527  0.34185880  1
  In  In33  1  0.14660200  0.12428150  0.02986367  1
  In  In34  1  0.67940369  0.02111961  0.34328784  1
  In  In35  1  0.15939439  0.29983473  0.14863396  1
  In  In36  1  0.52476804  -0.00936203  0.14667076  1
  In  In37  1  0.83971805  0.15683747  0.68537953  1
  In  In38  1  -0.02384216  0.15682343  0.84399773  1
  In  In39  1  0.16306848  0.67828976  0.83978027  1
  In  In40  1  -0.00843950  0.67581646  -0.00898419  1
  In  In41  1  0.33146476  0.51236499  0.17482153  1
  In  In42  1  0.82163303  0.83897026  -0.00118701  1
  In  In43  1  0.82599356  0.15272661  0.03639024  1
  In  In44  1  0.66129360  0.16175427  0.17683735  1
  In  In45  1  0.34104072  0.48035227  0.83317662  1
  In  In46  1  0.17412851  0.48692895  0.66274067  1
  In  In47  1  0.82501930  0.32241412  0.48952788  1
  In  In48  1  0.18626924  0.66964005  0.15510990  1
  In  In49  1  0.13797558  0.01173662  0.85578340  1
  In  In50  1  0.36484672  0.65753925  0.35194908  1
  In  In51  1  -0.01008563  0.29810164  0.31482010  1
  In  In52  1  0.14045057  0.48314132  0.33331566  1
  In  In53  1  0.69168347  0.48394327  0.14939451  1
  In  In54  1  0.00872119  -0.02991629  0.64554413  1
  In  In55  1  0.67227656  0.01787331  0.65962160  1
  In  In56  1  0.00035369  0.46301577  0.14732000  1
  In  In57  1  0.51461592  0.67862144  0.49365385  1
  In  In58  1  0.16310258  0.70412121  0.47579962  1
  In  In59  1  -0.01797869  0.84673239  0.18357740  1
  In  In60  1  0.81402703  0.69390680  0.14598054  1
  In  In61  1  0.31787220  0.31320305  0.34434207  1
  In  In62  1  0.81608493  0.85009606  0.31887241  1
  In  In63  1  0.67181388  0.68115154  -0.00367707  1
  In  In64  1  0.37680334  0.17854237  0.85725982  1
  In  In65  1  0.32311345  0.67449389  0.63474413  1
  In  In66  1  0.63859699  0.31224229  0.68825059  1
  In  In67  1  -0.00931455  0.31036175  -0.01286127  1
  In  In68  1  0.66866806  0.66781917  0.66865374  1
  In  In69  1  0.16089341  0.86308934  0.00047616  1
  In  In70  1  0.31069765  0.00850368  0.67993750  1
  In  In71  1  0.49405330  0.83254399  0.66294453  1
  Te  Te72  1  0.02739494  0.05666497  0.09298439  1
  Te  Te73  1  0.07103094  0.05683402  0.42411913  1
  Te  Te74  1  0.07328433  0.08982914  0.73963728  1
  Te  Te75  1  0.09920576  0.40330314  0.05379454  1
  Te  Te76  1  0.06306643  0.38865775  0.41790872  1
  Te  Te77  1  0.07413503  0.42496025  0.74885112  1
  Te  Te78  1  0.08177831  0.76035914  0.09282924  1
  Te  Te79  1  0.04125707  0.80914389  0.44383555  1
  Te  Te80  1  0.08846387  0.76612524  0.75117522  1
  Te  Te81  1  0.44139283  0.09126385  0.06780458  1
  Te  Te82  1  0.42118025  0.09827420  0.40937061  1
  Te  Te83  1  0.42517338  0.07627832  0.75408015  1
  Te  Te84  1  0.40184258  0.41176510  0.08418985  1
  Te  Te85  1  0.41103208  0.41436188  0.41715417  1
  Te  Te86  1  0.44513280  0.43084408  0.74167688  1
  Te  Te87  1  0.46520750  0.75421344  0.09297820  1
  Te  Te88  1  0.41703786  0.77359850  0.42852998  1
  Te  Te89  1  0.40736692  0.74150093  0.74665452  1
  Te  Te90  1  0.73316896  0.05425755  0.10126441  1
  Te  Te91  1  0.69949144  0.10716631  0.46480697  1
  Te  Te92  1  0.75261305  0.07302616  0.77035476  1
  Te  Te93  1  0.74446170  0.37451586  0.05774297  1
  Te  Te94  1  0.72866503  0.40988300  0.41881380  1
  Te  Te95  1  0.74546981  0.42361230  0.74141535  1
  Te  Te96  1  0.70498557  0.79370092  0.10403689  1
  Te  Te97  1  0.72642708  0.75741478  0.39631000  1
  Te  Te98  1  0.77006544  0.74230859  0.75106945  1
  Te  Te99  1  0.10300509  0.22116388  0.25894430  1
  Te  Te100  1  0.06172070  0.26889579  0.58573303  1
  Te  Te101  1  0.09730514  0.22256674  0.92074499  1
  Te  Te102  1  0.08488032  0.57701614  0.22844845  1
  Te  Te103  1  0.10349196  0.59363796  0.56812963  1
  Te  Te104  1  0.08964344  0.58786337  0.92777608  1
  Te  Te105  1  0.08616223  0.92167907  0.26110605  1
  Te  Te106  1  0.09494257  0.87210811  0.57483074  1
  Te  Te107  1  0.05152624  0.90609722  0.91256180  1
  Te  Te108  1  0.42555064  0.25729197  0.25474267  1
  Te  Te109  1  0.42697601  0.24274985  0.58329256  1
  Te  Te110  1  0.46664601  0.29467036  0.87998569  1
  Te  Te111  1  0.43860796  0.60287362  0.23100199  1
  Te  Te112  1  0.43422392  0.58268894  0.58646708  1
  Te  Te113  1  0.41729023  0.58544297  0.91841736  1
  Te  Te114  1  0.41139317  0.92452151  0.23924015  1
  Te  Te115  1  0.40988571  0.93351818  0.58892453  1
  Te  Te116  1  0.43715585  0.90906554  0.92481196  1
  Te  Te117  1  0.73774436  0.24414449  0.27711229  1
  Te  Te118  1  0.75393998  0.25278368  0.60585684  1
  Te  Te119  1  0.75997458  0.21002499  0.90990117  1
  Te  Te120  1  0.74045517  0.59541288  0.24095668  1
  Te  Te121  1  0.73874651  0.57830780  0.56690476  1
  Te  Te122  1  0.77453713  0.60310368  0.91524221  1
  Te  Te123  1  0.74867409  0.95070610  0.23147166  1
  Te  Te124  1  0.74302193  0.93129387  0.56351196  1
  Te  Te125  1  0.73454930  0.92861052  0.92092086  1
  Te  Te126  1  0.26064973  0.22192224  0.06877301  1
  Te  Te127  1  0.22631837  0.23741665  0.42752563  1
  Te  Te128  1  0.27141028  0.23333717  0.74815291  1
  Te  Te129  1  0.25206917  0.57401925  0.05993953  1
  Te  Te130  1  0.24321099  0.57449489  0.40422525  1
  Te  Te131  1  0.25528793  0.58716436  0.74205728  1
  Te  Te132  1  0.24139221  0.93280011  0.10884932  1
  Te  Te133  1  0.26628832  0.91374389  0.42615905  1
  Te  Te134  1  0.21938137  0.91858260  0.76103411  1
  Te  Te135  1  0.58841320  0.23616970  0.07247118  1
  Te  Te136  1  0.63008569  0.22757081  0.40209898  1
  Te  Te137  1  0.57411843  0.22654927  0.79295299  1
  Te  Te138  1  0.59595099  0.57469881  0.07494372  1
  Te  Te139  1  0.58486821  0.57142548  0.42235673  1
  Te  Te140  1  0.58234361  0.59740466  0.76543084  1
  Te  Te141  1  0.57589601  0.87567644  0.07151920  1
  Te  Te142  1  0.58676296  0.92113430  0.41593621  1
  Te  Te143  1  0.58210247  0.91975356  0.74978311  1
  Te  Te144  1  0.93263602  0.24343149  0.11013383  1
  Te  Te145  1  0.89985559  0.21953170  0.40641017  1
  Te  Te146  1  0.92787945  0.26485745  0.75012023  1
  Te  Te147  1  0.90859771  0.57617194  0.09570354  1
  Te  Te148  1  0.92903573  0.59680559  0.40791990  1
  Te  Te149  1  0.94107122  0.58550284  0.75696235  1
  Te  Te150  1  0.91488364  0.92532136  0.07946611  1
  Te  Te151  1  0.87969909  0.94045005  0.41444173  1
  Te  Te152  1  0.91348473  0.93617828  0.75150544  1
  Te  Te153  1  0.23314555  0.09476627  0.24448156  1
  Te  Te154  1  0.22154910  0.07022338  0.57439791  1
  Te  Te155  1  0.26665518  0.07572442  0.90866862  1
  Te  Te156  1  0.23890444  0.40867562  0.24150888  1
  Te  Te157  1  0.24613391  0.39255552  0.56947420  1
  Te  Te158  1  0.25580966  0.39163930  0.91087367  1
  Te  Te159  1  0.26755217  0.74340962  0.25930663  1
  Te  Te160  1  0.23785292  0.78255096  0.57959034  1
  Te  Te161  1  0.26151913  0.76856855  0.93295691  1
  Te  Te162  1  0.56332560  0.08020901  0.26135364  1
  Te  Te163  1  0.58805598  0.11536109  0.58219820  1
  Te  Te164  1  0.61247243  0.12462447  0.90630905  1
  Te  Te165  1  0.59819693  0.41442613  0.24709784  1
  Te  Te166  1  0.57523822  0.39505037  0.58459830  1
  Te  Te167  1  0.59519799  0.40279981  0.91287490  1
  Te  Te168  1  0.61581517  0.73612534  0.28965326  1
  Te  Te169  1  0.60280197  0.77020287  0.57865943  1
  Te  Te170  1  0.57993167  0.72146254  0.88749686  1
  Te  Te171  1  0.93183977  0.09580105  0.20750573  1
  Te  Te172  1  0.90886077  0.06891006  0.58310715  1
  Te  Te173  1  0.92469359  0.07297573  0.95404823  1
  Te  Te174  1  0.90654316  0.42314956  0.26153043  1
  Te  Te175  1  0.90295764  0.42248428  0.58073252  1
  Te  Te176  1  0.91918866  0.41922224  0.90830523  1
  Te  Te177  1  0.91290844  0.73398165  0.25895733  1
  Te  Te178  1  0.90064383  0.75551375  0.58449984  1
  Te  Te179  1  0.92350480  0.77569715  0.90999634  1
