# generated using pymatgen
data_In2Te3
_symmetry_space_group_name_H-M   'P 1'
_cell_length_a   18.78402864
_cell_length_b   18.77548529
_cell_length_c   18.76829987
_cell_angle_alpha   89.99177339
_cell_angle_beta   90.03666645
_cell_angle_gamma   90.09529571
_symmetry_Int_Tables_number   1
_chemical_formula_structural   In2Te3
_chemical_formula_sum   'In72 Te108'
_cell_volume   6619.17940937
_cell_formula_units_Z   36
loop_
 _symmetry_equiv_pos_site_id
 _symmetry_equiv_pos_as_xyz
  1  'x, y, z'
loop_
 _atom_site_type_symbol
 _atom_site_label
 _atom_site_symmetry_multiplicity
 _atom_site_fract_x
 _atom_site_fract_y
 _atom_site_fract_z
 _atom_site_occupancy
  In  In0  1  -0.02632474  0.48619303  0.48439277  1
  In  In1  1  0.54258746  0.31536601  0.81273119  1
  In  In2  1  0.82702455  0.15560536  0.36335818  1
  In  In3  1  0.15244173  0.00046752  0.84436976  1
  In  In4  1  0.49812451  0.68052492  0.15106769  1
  In  In5  1  0.70004312  0.49839907  0.18425159  1
  In  In6  1  0.31804815  -0.03484032  -0.00449332  1
  In  In7  1  0.33446688  0.00819312  0.67246500  1
  In  In8  1  0.14710042  0.18428441  0.66003377  1
  In  In9  1  0.35288003  0.83041664  0.85112065  1
  In  In10  1  0.48896908  0.67289790  0.49431157  1
  In  In11  1  0.54098327  0.02106510  0.49624924  1
  In  In12  1  -0.01719958  0.66415895  0.64325774  1
  In  In13  1  0.68141658  0.17845880  0.19451992  1
  In  In14  1  0.14877426  0.17990111  0.02192365  1
  In  In15  1  0.68498378  0.65350269  0.32452686  1
  In  In16  1  -0.00213512  0.00069121  0.01424138  1
  In  In17  1  0.67836003  0.65147730  -0.03278925  1
  In  In18  1  0.84447128  0.81361949  -0.00000711  1
  In  In19  1  0.00527963  0.83082913  0.50231099  1
  In  In20  1  0.34074422  0.31904310  0.34128461  1
  In  In21  1  0.31895561  0.49704709  0.48833399  1
  In  In22  1  0.68999327  0.84279673  0.18851412  1
  In  In23  1  0.82821118  0.83465364  0.33369457  1
  In  In24  1  0.48816902  0.00052256  0.17226644  1
  In  In25  1  0.32002765  0.65437707  0.02043478  1
  In  In26  1  0.15205205  0.35156441  0.16557911  1
  In  In27  1  0.53606807  0.33069678  0.50046605  1
  In  In28  1  0.31774383  0.51545180  0.15331335  1
  In  In29  1  0.45406771  0.83747591  0.00611621  1
  In  In30  1  0.16272202  0.81169182  0.66275629  1
  In  In31  1  0.30011223  0.32311118  -0.02323336  1
  In  In32  1  0.13045137  0.52116053  0.31634010  1
  In  In33  1  0.49923460  0.49721907  -0.00600331  1
  In  In34  1  0.85091463  0.64374270  0.16423755  1
  In  In35  1  0.83574195  -0.01366192  0.18328940  1
  In  In36  1  -0.00778634  0.32809110  0.66816386  1
  In  In37  1  0.16325256  0.35018187  0.84759231  1
  In  In38  1  0.34447784  0.15609879  0.82093320  1
  In  In39  1  0.14265920  0.81705774  0.03404166  1
  In  In40  1  -0.00689848  0.49520241  0.83112265  1
  In  In41  1  0.70597762  0.16882209  0.79797304  1
  In  In42  1  0.50159610  0.15547276  0.00410461  1
  In  In43  1  0.84095083  0.00439183  0.81605762  1
  In  In44  1  0.84510182  0.17370931  0.66482019  1
  In  In45  1  0.66785060  0.82940684  0.81209924  1
  In  In46  1  0.34767587  0.34386797  0.64693416  1
  In  In47  1  0.50704057  0.68361923  0.81413612  1
  In  In48  1  0.82640515  0.66588911  0.83683326  1
  In  In49  1  0.33254442  0.82876051  0.48256901  1
  In  In50  1  0.50281718  0.34470194  0.19586006  1
  In  In51  1  0.83360340  0.19032248  0.00542454  1
  In  In52  1  -0.00423114  0.34070308  0.00542631  1
  In  In53  1  0.53083579  0.50259105  0.31484639  1
  In  In54  1  0.49679761  0.82945585  0.66659156  1
  In  In55  1  0.33057516  0.00872726  0.33364639  1
  In  In56  1  0.16656568  0.02298608  0.48971098  1
  In  In57  1  0.00688407  -0.00763926  0.32894647  1
  In  In58  1  0.69265382  0.35579824  0.02524794  1
  In  In59  1  0.50848680  0.18345842  0.35795388  1
  In  In60  1  -0.03351230  0.00227652  0.66651606  1
  In  In61  1  0.16058537  0.79956974  0.30136712  1
  In  In62  1  0.15900614  0.65014120  0.82623913  1
  In  In63  1  0.70104623  0.62481105  0.63557442  1
  In  In64  1  0.17266037  0.18032164  0.33738550  1
  In  In65  1  0.65148957  0.00441449  -0.00592178  1
  In  In66  1  0.71871423  0.48023497  0.80041865  1
  In  In67  1  0.66915769  0.86082087  0.50806156  1
  In  In68  1  0.14674563  0.66659649  0.48354358  1
  In  In69  1  0.30614051  0.48807683  0.82987993  1
  In  In70  1  0.51686303  0.48489526  0.65320824  1
  In  In71  1  -0.02891836  0.34271763  0.33697009  1
  Te  Te72  1  0.08040019  0.08136732  0.10678809  1
  Te  Te73  1  0.06265398  0.10532771  0.41850907  1
  Te  Te74  1  0.07076915  0.08620930  0.75043382  1
  Te  Te75  1  0.05680426  0.44557736  0.09766470  1
  Te  Te76  1  0.08793554  0.41213531  0.41257335  1
  Te  Te77  1  0.09284387  0.42596880  0.73752764  1
  Te  Te78  1  0.08083127  0.71473387  0.12576030  1
  Te  Te79  1  0.05019540  0.73748818  0.39041191  1
  Te  Te80  1  0.06208474  0.74480116  0.75203683  1
  Te  Te81  1  0.39529368  0.07603019  0.07785469  1
  Te  Te82  1  0.41370626  0.08926857  0.43186851  1
  Te  Te83  1  0.44085190  0.09607638  0.72803933  1
  Te  Te84  1  0.41389997  0.41001409  0.08618909  1
  Te  Te85  1  0.43643949  0.42148905  0.41442539  1
  Te  Te86  1  0.42799804  0.41876965  0.76667992  1
  Te  Te87  1  0.37008998  0.76826408  0.11848949  1
  Te  Te88  1  0.41142383  0.74378229  0.39068941  1
  Te  Te89  1  0.39109333  0.73946193  0.73351349  1
  Te  Te90  1  0.74712466  0.07920884  0.08825686  1
  Te  Te91  1  0.74690659  0.05359327  0.44312448  1
  Te  Te92  1  0.73774546  0.04639797  0.71327231  1
  Te  Te93  1  0.80240068  0.41097286  0.11287959  1
  Te  Te94  1  0.72002882  0.46608352  0.45753153  1
  Te  Te95  1  0.77282435  0.38298308  0.69959590  1
  Te  Te96  1  0.74049403  0.73402480  0.08875611  1
  Te  Te97  1  0.74321192  0.75170110  0.42969851  1
  Te  Te98  1  0.75446441  0.74371388  0.72421406  1
  Te  Te99  1  0.06998532  0.25881022  0.25263696  1
  Te  Te100  1  0.06456479  0.25412323  0.56079747  1
  Te  Te101  1  0.07371315  0.24318123  0.90693290  1
  Te  Te102  1  0.04011166  0.60179722  0.22915322  1
  Te  Te103  1  0.07722058  0.56737498  0.57390102  1
  Te  Te104  1  0.06226695  0.59254260  0.92288565  1
  Te  Te105  1  0.09306083  0.91550190  0.23497663  1
  Te  Te106  1  0.09434429  0.92908038  0.59226928  1
  Te  Te107  1  0.06992020  0.90061804  0.92243757  1
  Te  Te108  1  0.41530005  0.22932452  0.24272345  1
  Te  Te109  1  0.43489704  0.24861760  0.57571693  1
  Te  Te110  1  0.42622271  0.26085562  0.91593180  1
  Te  Te111  1  0.42297187  0.58330512  0.24406822  1
  Te  Te112  1  0.41414084  0.57459233  0.58673371  1
  Te  Te113  1  0.41638622  0.59699273  0.91262271  1
  Te  Te114  1  0.41380629  0.90940619  0.26165137  1
  Te  Te115  1  0.41588730  0.92161979  0.57251981  1
  Te  Te116  1  0.43803542  0.94754999  0.89890408  1
  Te  Te117  1  0.77711785  0.26221442  0.26820559  1
  Te  Te118  1  0.74703085  0.26593137  0.59924185  1
  Te  Te119  1  0.74500886  0.26894456  0.91020825  1
  Te  Te120  1  0.80377079  0.55493040  0.29322718  1
  Te  Te121  1  0.80055183  0.57195214  0.52957691  1
  Te  Te122  1  0.77926075  0.54688972  0.92870783  1
  Te  Te123  1  0.73074852  0.94995749  0.28924419  1
  Te  Te124  1  0.75917835  0.96391568  0.56572475  1
  Te  Te125  1  0.75259780  0.91146818  0.92299146  1
  Te  Te126  1  0.25476728  0.25436088  0.10449138  1
  Te  Te127  1  0.25020857  0.25719114  0.43865087  1
  Te  Te128  1  0.25371864  0.25992757  0.75471288  1
  Te  Te129  1  0.20424497  0.60719507  0.10961329  1
  Te  Te130  1  0.24521464  0.59184972  0.39318784  1
  Te  Te131  1  0.24538583  0.57798764  0.73150176  1
  Te  Te132  1  0.22227537  0.92402779  0.10060437  1
  Te  Te133  1  0.21888886  0.90286879  0.41048984  1
  Te  Te134  1  0.24633644  0.91281753  0.75786694  1
  Te  Te135  1  0.58922935  0.25555977  0.08591790  1
  Te  Te136  1  0.62755265  0.23702043  0.42869466  1
  Te  Te137  1  0.60761538  0.23818459  0.69871013  1
  Te  Te138  1  0.59238978  0.57106696  0.09187313  1
  Te  Te139  1  0.59569258  0.57762615  0.43205958  1
  Te  Te140  1  0.60203583  0.57939551  0.75651518  1
  Te  Te141  1  0.58205352  0.90565502  0.08960325  1
  Te  Te142  1  0.56101924  0.89961837  0.41567776  1
  Te  Te143  1  0.58067938  0.92504682  0.74248046  1
  Te  Te144  1  0.93431251  0.24194290  0.09843104  1
  Te  Te145  1  0.88677749  0.27129402  0.43691697  1
  Te  Te146  1  0.92567350  0.24185650  0.76958334  1
  Te  Te147  1  0.95075537  0.56390744  0.08892147  1
  Te  Te148  1  0.90754369  0.60058171  0.41794409  1
  Te  Te149  1  0.90053312  0.57525606  0.73769326  1
  Te  Te150  1  0.92603683  0.89448034  0.10116695  1
  Te  Te151  1  0.91143610  0.92555295  0.42681022  1
  Te  Te152  1  0.91673440  0.89435987  0.75491482  1
  Te  Te153  1  0.23582012  0.08080519  0.24783491  1
  Te  Te154  1  0.25497340  0.10429336  0.58368153  1
  Te  Te155  1  0.24676096  0.09354404  0.92272214  1
  Te  Te156  1  0.25606431  0.42109259  0.25948995  1
  Te  Te157  1  0.23765591  0.41180235  0.57698266  1
  Te  Te158  1  0.22113189  0.44983639  0.95097575  1
  Te  Te159  1  0.25857972  0.72006464  0.22349707  1
  Te  Te160  1  0.25398025  0.73168021  0.57293443  1
  Te  Te161  1  0.24220868  0.75263208  0.92434204  1
  Te  Te162  1  0.58075737  0.08583320  0.26056844  1
  Te  Te163  1  0.58333505  0.13355031  0.58181558  1
  Te  Te164  1  0.59789437  0.10603683  0.89522580  1
  Te  Te165  1  0.62642907  0.39222764  0.27119862  1
  Te  Te166  1  0.63316088  0.42344617  0.57972483  1
  Te  Te167  1  0.60261133  0.42291880  0.90983981  1
  Te  Te168  1  0.58669961  0.75094015  0.25645113  1
  Te  Te169  1  0.59141992  0.73608584  0.59107794  1
  Te  Te170  1  0.57437178  0.76072421  0.92961378  1
  Te  Te171  1  0.91670662  0.09219552  0.25326242  1
  Te  Te172  1  0.92220261  0.09754814  0.56298260  1
  Te  Te173  1  0.91258667  0.08764434  0.92129089  1
  Te  Te174  1  0.89722359  0.42897723  0.24061434  1
  Te  Te175  1  0.89396413  0.42000224  0.59616030  1
  Te  Te176  1  0.90442163  0.40159550  0.90537112  1
  Te  Te177  1  0.91136907  0.75963003  0.23649734  1
  Te  Te178  1  0.89652549  0.76528374  0.57771966  1
  Te  Te179  1  0.93209841  0.71804484  0.92947284  1
