# generated using pymatgen
data_In2Te3
_symmetry_space_group_name_H-M   'P 1'
_cell_length_a   18.95772068
_cell_length_b   18.96429804
_cell_length_c   18.98164060
_cell_angle_alpha   90.11298084
_cell_angle_beta   89.88831275
_cell_angle_gamma   89.86926399
_symmetry_Int_Tables_number   1
_chemical_formula_structural   In2Te3
_chemical_formula_sum   'In72 Te108'
_cell_volume   6824.23280999
_cell_formula_units_Z   36
loop_
 _symmetry_equiv_pos_site_id
 _symmetry_equiv_pos_as_xyz
  1  'x, y, z'
loop_
 _atom_site_type_symbol
 _atom_site_label
 _atom_site_symmetry_multiplicity
 _atom_site_fract_x
 _atom_site_fract_y
 _atom_site_fract_z
 _atom_site_occupancy
  In  In0  1  0.61462192  0.32005772  -0.03528389  1
  In  In1  1  0.45251234  0.30933576  0.81760542  1
  In  In2  1  0.84086384  0.02946340  0.14504219  1
  In  In3  1  0.66853397  0.32268299  0.63828285  1
  In  In4  1  0.63322095  0.46803459  0.14242791  1
  In  In5  1  0.50690768  0.83406689  0.01520456  1
  In  In6  1  0.17175758  0.01226761  0.51550832  1
  In  In7  1  0.32118826  0.64203976  0.35120042  1
  In  In8  1  0.48706009  0.48452320  0.69300072  1
  In  In9  1  0.00099591  0.66787542  0.00742058  1
  In  In10  1  0.47550297  0.81563882  0.33085041  1
  In  In11  1  0.84232693  0.65703536  0.85618155  1
  In  In12  1  0.16288577  0.66906024  0.17114374  1
  In  In13  1  0.83878685  0.46849474  0.65419854  1
  In  In14  1  0.50202032  0.65927450  0.51143338  1
  In  In15  1  0.83121400  0.02036618  0.80923527  1
  In  In16  1  0.66470097  0.32828115  0.33237939  1
  In  In17  1  0.02627942  0.35068482  -0.02856174  1
  In  In18  1  0.17278365  0.85147048  0.36384201  1
  In  In19  1  0.31382816  0.50215524  0.83030491  1
  In  In20  1  0.84740423  0.66477514  0.20691136  1
  In  In21  1  0.34893996  0.82317531  0.16535647  1
  In  In22  1  0.18122680  0.83341940  0.67609349  1
  In  In23  1  0.82505063  0.33398254  0.17838712  1
  In  In24  1  0.66037604  0.66078096  0.02250817  1
  In  In25  1  0.32154588  0.66993859  0.68267446  1
  In  In26  1  0.00521405  0.02341687  0.65792252  1
  In  In27  1  0.04631478  0.66609980  0.35700490  1
  In  In28  1  0.03215438  0.50501577  0.51568508  1
  In  In29  1  0.64422985  0.66364936  0.33370131  1
  In  In30  1  0.16948368  0.50708664  -0.00359884  1
  In  In31  1  0.65642011  0.03725635  0.65508437  1
  In  In32  1  0.02959060  -0.00709202  -0.00543256  1
  In  In33  1  0.31572035  0.16425193  0.50953409  1
  In  In34  1  0.01929636  0.15213000  0.15257743  1
  In  In35  1  0.80164506  0.49396764  0.34187051  1
  In  In36  1  0.18108635  0.33144434  0.16626595  1
  In  In37  1  0.47949155  0.67681127  0.83137372  1
  In  In38  1  0.49521116  0.87545289  0.61357629  1
  In  In39  1  0.01845782  0.68105267  0.68214057  1
  In  In40  1  0.86507471  0.16822963  0.35753288  1
  In  In41  1  0.58253510  0.04269488  -0.03560032  1
  In  In42  1  0.71304045  0.85889979  0.46152567  1
  In  In43  1  -0.00019625  0.17580883  0.81868100  1
  In  In44  1  0.67826273  0.00504698  0.31554987  1
  In  In45  1  0.48214581  0.15588832  0.64718813  1
  In  In46  1  0.18461259  0.83022712  -0.02108183  1
  In  In47  1  -0.01383813  0.32056685  0.35358350  1
  In  In48  1  0.47008924  0.34770620  0.46326480  1
  In  In49  1  0.33725372  0.84391533  0.82154972  1
  In  In50  1  0.82591369  0.51339969  0.01910125  1
  In  In51  1  0.82175989  0.86038393  -0.01584527  1
  In  In52  1  0.82055484  0.32923712  0.82808772  1
  In  In53  1  0.86551671  0.83102894  0.36525847  1
  In  In54  1  0.32667779  0.16290910  0.18472950  1
  In  In55  1  0.85558023  0.63919933  0.53218438  1
  In  In56  1  0.18974462  -0.00210194  0.19276588  1
  In  In57  1  0.31752531  0.49551699  0.19152243  1
  In  In58  1  0.16782211  0.32164132  0.50723347  1
  In  In59  1  0.64726214  0.84519520  0.79761836  1
  In  In60  1  0.45732193  0.32703143  0.19139071  1
  In  In61  1  0.86739428  0.85101756  0.66377636  1
  In  In62  1  0.82810981  0.18726128  -0.00565397  1
  In  In63  1  0.50558775  -0.02304730  0.17336490  1
  In  In64  1  0.67169670  0.47170241  0.47378127  1
  In  In65  1  0.84978767  0.01433423  0.50537854  1
  In  In66  1  0.64198220  0.15686119  0.16512763  1
  In  In67  1  0.69129542  0.81294382  0.18985411  1
  In  In68  1  0.34887281  0.01663272  -0.01843758  1
  In  In69  1  0.01800445  0.47440831  0.80064478  1
  In  In70  1  0.19505621  0.28182063  0.83241285  1
  In  In71  1  0.66375436  0.68531522  0.66722516  1
  Te  Te72  1  0.12627685  0.07716897  0.07751065  1
  Te  Te73  1  0.05011208  0.06633917  0.44796160  1
  Te  Te74  1  0.09962812  0.09251277  0.74911985  1
  Te  Te75  1  0.08159840  0.42516629  0.08763640  1
  Te  Te76  1  0.08980125  0.41573203  0.40800858  1
  Te  Te77  1  0.12797117  0.38728827  0.74299172  1
  Te  Te78  1  0.08953212  0.76632059  0.07977448  1
  Te  Te79  1  0.12856347  0.73964872  0.45296865  1
  Te  Te80  1  0.09436671  0.76429615  0.77340454  1
  Te  Te81  1  0.42860316  0.07898552  0.09391971  1
  Te  Te82  1  0.41365580  0.05442342  0.47647543  1
  Te  Te83  1  0.39446697  0.10314877  0.75764161  1
  Te  Te84  1  0.38384392  0.40651073  0.09259813  1
  Te  Te85  1  0.35323164  0.42820252  0.41142990  1
  Te  Te86  1  0.36720754  0.40066129  0.72879538  1
  Te  Te87  1  0.41416524  0.73573497  0.06792810  1
  Te  Te88  1  0.40029650  0.74565384  0.44031384  1
  Te  Te89  1  0.43835542  0.77061838  0.71677861  1
  Te  Te90  1  0.72789340  0.08588019  0.06032639  1
  Te  Te91  1  0.75012569  0.09037004  0.42025894  1
  Te  Te92  1  0.75553241  0.11890921  0.72850033  1
  Te  Te93  1  0.74026948  0.39165692  0.06507070  1
  Te  Te94  1  0.78508941  0.37056754  0.43592459  1
  Te  Te95  1  0.73009247  0.41879147  0.74616999  1
  Te  Te96  1  0.78036549  0.74227773  0.08270101  1
  Te  Te97  1  0.76140069  0.72188804  0.41118130  1
  Te  Te98  1  0.77092784  0.75534875  0.75016275  1
  Te  Te99  1  0.07572633  0.25373046  0.24699841  1
  Te  Te100  1  0.07843806  0.30142705  0.62615885  1
  Te  Te101  1  0.09342586  0.22408144  0.93263440  1
  Te  Te102  1  0.09989533  0.57214560  0.26002959  1
  Te  Te103  1  0.10753125  0.57815762  0.62068227  1
  Te  Te104  1  0.06768808  0.57593080  0.90656611  1
  Te  Te105  1  0.09090933  0.91511804  0.25995365  1
  Te  Te106  1  0.08279839  0.91350824  0.58969129  1
  Te  Te107  1  0.12383838  0.93714728  0.89862770  1
  Te  Te108  1  0.41118033  0.22722223  0.28723389  1
  Te  Te109  1  0.40660262  0.26741801  0.57387014  1
  Te  Te110  1  0.40368571  0.22658723  0.93260341  1
  Te  Te111  1  0.41480127  0.58659337  0.25453597  1
  Te  Te112  1  0.41140884  0.57703504  0.59950337  1
  Te  Te113  1  0.41928760  0.56938756  0.90943078  1
  Te  Te114  1  0.39694091  0.92844501  0.26701363  1
  Te  Te115  1  0.37109541  0.95481566  0.58295182  1
  Te  Te116  1  0.44144673  0.91996736  0.90942792  1
  Te  Te117  1  0.75530490  0.22000180  0.24911669  1
  Te  Te118  1  0.75701603  0.26306029  0.54104197  1
  Te  Te119  1  0.72218102  0.23597574  0.89701496  1
  Te  Te120  1  0.72726316  0.57262859  0.23177133  1
  Te  Te121  1  0.72921375  0.57248799  0.58215712  1
  Te  Te122  1  0.73264738  0.57202944  0.91547579  1
  Te  Te123  1  0.78503211  0.91427671  0.25385588  1
  Te  Te124  1  0.74995802  0.92072761  0.59654432  1
  Te  Te125  1  0.73076789  0.93713257  0.88836497  1
  Te  Te126  1  0.27465422  0.25512453  0.08108493  1
  Te  Te127  1  0.21910556  0.22000802  0.41046594  1
  Te  Te128  1  0.27617059  0.20277046  0.73204549  1
  Te  Te129  1  0.25777744  0.59280103  0.08147140  1
  Te  Te130  1  0.24813861  0.54901642  0.44006721  1
  Te  Te131  1  0.22065531  0.58067025  0.74447244  1
  Te  Te132  1  0.27304442  0.92007907  0.07585883  1
  Te  Te133  1  0.27306362  0.93036694  0.44057061  1
  Te  Te134  1  0.27937274  0.93738782  0.72269439  1
  Te  Te135  1  0.56031082  0.25880427  0.09108930  1
  Te  Te136  1  0.57901276  0.25525246  0.42458062  1
  Te  Te137  1  0.56916894  0.25560366  0.72662704  1
  Te  Te138  1  0.55932117  0.56398896  0.06210240  1
  Te  Te139  1  0.56299858  0.56372614  0.41061172  1
  Te  Te140  1  0.58119513  0.59355027  0.75146173  1
  Te  Te141  1  0.61588665  0.90669778  0.09398350  1
  Te  Te142  1  0.58984944  0.90417816  0.38827480  1
  Te  Te143  1  0.55949297  0.94871661  0.73237356  1
  Te  Te144  1  0.92357951  0.25833243  0.08805102  1
  Te  Te145  1  0.97703037  0.20476558  0.45002208  1
  Te  Te146  1  0.92240787  0.27166542  0.73893060  1
  Te  Te147  1  0.92796803  0.57994314  0.10811422  1
  Te  Te148  1  0.91799501  0.56792122  0.41718455  1
  Te  Te149  1  0.90762750  0.57774257  0.74398297  1
  Te  Te150  1  0.92361557  0.92085455  0.08057445  1
  Te  Te151  1  0.95125002  0.93574683  0.42918605  1
  Te  Te152  1  0.94214776  0.92710971  0.76726114  1
  Te  Te153  1  0.23337973  0.10436395  0.28646168  1
  Te  Te154  1  0.21205052  0.12142604  0.61331074  1
  Te  Te155  1  0.29408131  0.12257116  0.88947888  1
  Te  Te156  1  0.26123991  0.38613571  0.27904853  1
  Te  Te157  1  0.26146426  0.43353171  0.54218957  1
  Te  Te158  1  0.24341176  0.40047572  0.91964758  1
  Te  Te159  1  0.25234648  0.75531547  0.26102936  1
  Te  Te160  1  0.24782020  0.74375291  0.57768143  1
  Te  Te161  1  0.26705206  0.74047974  0.89664838  1
  Te  Te162  1  0.55927234  0.08748287  0.27016736  1
  Te  Te163  1  0.56611672  0.08193890  0.54633989  1
  Te  Te164  1  0.51510254  0.13889052  0.87558363  1
  Te  Te165  1  0.56274264  0.41533237  0.26382817  1
  Te  Te166  1  0.56519881  0.42367688  0.57252888  1
  Te  Te167  1  0.53115512  0.41366157  0.89146320  1
  Te  Te168  1  0.56385007  0.73988226  0.23123613  1
  Te  Te169  1  0.59932008  0.76938029  0.55890991  1
  Te  Te170  1  0.60087819  0.75452870  0.91153299  1
  Te  Te171  1  0.93338954  0.07707339  0.25390278  1
  Te  Te172  1  0.88624115  0.10296881  0.61807232  1
  Te  Te173  1  0.91587737  0.08429396  0.92529606  1
  Te  Te174  1  0.91186313  0.42236694  0.26017624  1
  Te  Te175  1  0.94887355  0.39934878  0.58325151  1
  Te  Te176  1  0.90611865  0.42450978  0.91634640  1
  Te  Te177  1  0.95177078  0.75438785  0.26594259  1
  Te  Te178  1  0.93996792  0.75643049  0.56863764  1
  Te  Te179  1  0.92406452  0.76739508  0.91790175  1
