# generated using pymatgen
data_In2Te3
_symmetry_space_group_name_H-M   'P 1'
_cell_length_a   18.93100844
_cell_length_b   18.93576566
_cell_length_c   18.93120579
_cell_angle_alpha   89.94511931
_cell_angle_beta   89.91230129
_cell_angle_gamma   90.04706045
_symmetry_Int_Tables_number   1
_chemical_formula_structural   In2Te3
_chemical_formula_sum   'In72 Te108'
_cell_volume   6786.31541402
_cell_formula_units_Z   36
loop_
 _symmetry_equiv_pos_site_id
 _symmetry_equiv_pos_as_xyz
  1  'x, y, z'
loop_
 _atom_site_type_symbol
 _atom_site_label
 _atom_site_symmetry_multiplicity
 _atom_site_fract_x
 _atom_site_fract_y
 _atom_site_fract_z
 _atom_site_occupancy
  In  In0  1  0.82083032  0.82306030  0.64684288  1
  In  In1  1  0.68144652  0.15879715  0.16806879  1
  In  In2  1  0.12239910  0.66713289  0.47255582  1
  In  In3  1  0.50687465  0.31992306  0.81314707  1
  In  In4  1  0.18500107  0.17973193  0.00287830  1
  In  In5  1  0.84434627  0.29353294  0.16645650  1
  In  In6  1  0.33543791  0.68304373  0.68291560  1
  In  In7  1  0.69297178  0.66025640  0.34233481  1
  In  In8  1  0.18197549  -0.00488119  0.51410443  1
  In  In9  1  0.36552129  0.01849971  0.66297512  1
  In  In10  1  0.67156842  0.32215374  -0.00672896  1
  In  In11  1  0.15709174  0.34041057  0.17987484  1
  In  In12  1  0.48399207  0.87220614  -0.10971361  1
  In  In13  1  0.84628171  0.65672644  0.20337128  1
  In  In14  1  0.13289684  0.62980255  0.21066157  1
  In  In15  1  0.84975156  0.64089518  0.51022217  1
  In  In16  1  0.82418103  0.50801092  0.00677899  1
  In  In17  1  0.33774090  0.16798504  0.82916652  1
  In  In18  1  0.66404368  0.82671322  0.48453308  1
  In  In19  1  0.50699728  0.66471427  0.13905694  1
  In  In20  1  0.01764277  0.84529213  0.18378948  1
  In  In21  1  0.33563164  0.50683013  0.15831245  1
  In  In22  1  0.49467552  -0.00500476  0.15764644  1
  In  In23  1  0.03117313  0.16538844  0.85668545  1
  In  In24  1  0.50518081  0.46979093  0.29806258  1
  In  In25  1  0.50974185  0.83346684  0.32906193  1
  In  In26  1  0.64428723  0.48457116  0.47055385  1
  In  In27  1  0.66715089  0.67441886  0.63783488  1
  In  In28  1  0.00357457  0.84122414  0.86159395  1
  In  In29  1  0.33119246  0.33411325  0.33458925  1
  In  In30  1  0.65485900  0.49465489  0.80692479  1
  In  In31  1  -0.02211534  0.68024375  0.02492595  1
  In  In32  1  0.83401543  0.65913126  0.78786327  1
  In  In33  1  0.63287437  0.01819035  -0.01210914  1
  In  In34  1  0.49938674  0.13699919  0.34602616  1
  In  In35  1  0.82097807  0.17993777  0.66349026  1
  In  In36  1  0.81784160  0.01018102  0.81977437  1
  In  In37  1  0.81536051  0.32743742  0.83601166  1
  In  In38  1  0.19698515  0.85718353  0.00171577  1
  In  In39  1  0.68315435  0.85943167  0.16773691  1
  In  In40  1  0.49683359  0.49390241  0.64360189  1
  In  In41  1  0.84982466  0.16648714  0.00352641  1
  In  In42  1  0.47242001  0.67866058  0.51853385  1
  In  In43  1  0.00180388  0.33969868  0.66484796  1
  In  In44  1  0.00532957  0.00520286  0.34121424  1
  In  In45  1  0.85603893  0.01082975  0.19443145  1
  In  In46  1  0.00754226  0.18622537  0.51933656  1
  In  In47  1  0.18870376  0.47937765  0.01228500  1
  In  In48  1  0.62669911  -0.01255863  0.66528713  1
  In  In49  1  0.00287064  0.64011606  0.69852902  1
  In  In50  1  0.01899613  0.00496836  0.69314728  1
  In  In51  1  0.43772085  0.49508703  -0.01378274  1
  In  In52  1  0.03737694  0.00245168  0.01954294  1
  In  In53  1  0.65738840  0.67812056  -0.00049779  1
  In  In54  1  -0.01523070  0.49260162  0.82990828  1
  In  In55  1  0.31043567  0.83577205  0.18646334  1
  In  In56  1  0.30800424  0.15983597  0.18535775  1
  In  In57  1  0.48150919  0.31845852  0.48238066  1
  In  In58  1  0.16759209  0.66459361  0.85355763  1
  In  In59  1  0.30505537  0.65264194  0.34032041  1
  In  In60  1  0.50283913  0.16614380  -0.01339644  1
  In  In61  1  0.32448637  0.17387944  0.49837149  1
  In  In62  1  0.01849537  0.33436824  0.36043456  1
  In  In63  1  0.84807845  0.00847942  0.47611821  1
  In  In64  1  0.32403794  0.84655280  0.52998152  1
  In  In65  1  0.32401331  0.31847805  0.67135268  1
  In  In66  1  0.34606621  0.66616570  -0.00247479  1
  In  In67  1  0.83355529  0.47751127  0.32738927  1
  In  In68  1  0.19606593  0.84994406  0.67603480  1
  In  In69  1  0.68369140  0.16135002  0.50337758  1
  In  In70  1  0.80945749  0.85124478  -0.00534673  1
  In  In71  1  0.17568753  0.48628928  0.65105599  1
  Te  Te72  1  0.07945137  0.12126317  0.09382940  1
  Te  Te73  1  0.08935010  0.08861044  0.43787634  1
  Te  Te74  1  0.11381164  0.09555785  0.75632570  1
  Te  Te75  1  0.07841598  0.42995404  0.09145648  1
  Te  Te76  1  0.10617601  0.44590406  0.40586531  1
  Te  Te77  1  0.09589081  0.41647699  0.76232808  1
  Te  Te78  1  0.09014178  0.76886423  0.07269296  1
  Te  Te79  1  0.04036962  0.76385713  0.39892701  1
  Te  Te80  1  0.08650205  0.75958565  0.76146560  1
  Te  Te81  1  0.41191772  0.09720508  0.08636661  1
  Te  Te82  1  0.39517149  0.06541353  0.42424884  1
  Te  Te83  1  0.44961389  0.10082721  0.75582448  1
  Te  Te84  1  0.44794634  0.41708595  0.11800385  1
  Te  Te85  1  0.41552671  0.43737455  0.41352146  1
  Te  Te86  1  0.41370280  0.41941099  0.74620418  1
  Te  Te87  1  0.40965500  0.76946278  0.08943750  1
  Te  Te88  1  0.39684309  0.75512919  0.41085430  1
  Te  Te89  1  0.40910190  0.79994597  0.73644275  1
  Te  Te90  1  0.75640178  0.06169341  0.07599792  1
  Te  Te91  1  0.76734819  0.10053202  0.39514956  1
  Te  Te92  1  0.72212302  0.08786010  0.73295877  1
  Te  Te93  1  0.76003924  0.39740544  0.09010880  1
  Te  Te94  1  0.72772541  0.39654366  0.38939405  1
  Te  Te95  1  0.72776297  0.38724374  0.72904551  1
  Te  Te96  1  0.76583295  0.73862213  0.09472002  1
  Te  Te97  1  0.78049406  0.75070854  0.42479729  1
  Te  Te98  1  0.72659746  0.76160658  0.74886638  1
  Te  Te99  1  0.11363091  0.24416595  0.28618459  1
  Te  Te100  1  0.10739286  0.27855311  0.57909647  1
  Te  Te101  1  0.10554359  0.27375998  0.92037627  1
  Te  Te102  1  0.05178114  0.54828237  0.30397236  1
  Te  Te103  1  0.06403534  0.56341975  0.58144475  1
  Te  Te104  1  0.05544546  0.59105985  0.92439308  1
  Te  Te105  1  0.10885203  0.94425495  0.24848425  1
  Te  Te106  1  0.08205212  0.90891446  0.59482496  1
  Te  Te107  1  0.11216818  0.93739039  0.90243269  1
  Te  Te108  1  0.41767436  0.23416642  0.26028892  1
  Te  Te109  1  0.42565441  0.23405405  0.59463032  1
  Te  Te110  1  0.41313665  0.26704367  0.92154587  1
  Te  Te111  1  0.42434167  0.59946325  0.25172686  1
  Te  Te112  1  0.38406721  0.57456424  0.58083239  1
  Te  Te113  1  0.43880126  0.61425799  0.89556649  1
  Te  Te114  1  0.40906565  0.92524535  0.26207042  1
  Te  Te115  1  0.42837545  0.95070666  0.54500625  1
  Te  Te116  1  0.37169458  0.96180915  0.91363942  1
  Te  Te117  1  0.76470275  0.22421082  0.27070546  1
  Te  Te118  1  0.77984241  0.26666375  0.55133852  1
  Te  Te119  1  0.74110218  0.21663591  0.90972219  1
  Te  Te120  1  0.73388570  0.55987868  0.23852697  1
  Te  Te121  1  0.73678821  0.55954736  0.57031139  1
  Te  Te122  1  0.74629879  0.58298999  0.89838843  1
  Te  Te123  1  0.78172671  0.90549588  0.26391561  1
  Te  Te124  1  0.74567730  0.93289830  0.57445687  1
  Te  Te125  1  0.72010997  0.92339128  0.89761565  1
  Te  Te126  1  0.26437955  0.27374612  0.09450865  1
  Te  Te127  1  0.23594547  0.23543430  0.39442782  1
  Te  Te128  1  0.23621414  0.26004817  0.77465991  1
  Te  Te129  1  0.23466622  0.60848129  0.09280517  1
  Te  Te130  1  0.22261181  0.56484993  0.42759332  1
  Te  Te131  1  0.24476920  0.58237421  0.75346789  1
  Te  Te132  1  0.25053717  0.94818318  0.10684025  1
  Te  Te133  1  0.23695981  0.89484085  0.42302734  1
  Te  Te134  1  0.29692572  0.92199591  0.76033238  1
  Te  Te135  1  0.58256857  0.24392185  0.09035544  1
  Te  Te136  1  0.58741541  0.24282670  0.40700417  1
  Te  Te137  1  0.62375951  0.27481908  0.73937804  1
  Te  Te138  1  0.58880972  0.56555463  0.06708477  1
  Te  Te139  1  0.57455860  0.61141411  0.42379824  1
  Te  Te140  1  0.57201264  0.59510194  0.72786110  1
  Te  Te141  1  0.57601773  0.90144561  0.06898710  1
  Te  Te142  1  0.60211262  0.92488627  0.39597324  1
  Te  Te143  1  0.53484895  0.89673822  0.75121797  1
  Te  Te144  1  0.95355567  0.23356582  0.08337211  1
  Te  Te145  1  0.91270791  0.27329594  0.44646635  1
  Te  Te146  1  0.92287100  0.23879043  0.76237950  1
  Te  Te147  1  0.92329173  0.56586400  0.10836392  1
  Te  Te148  1  0.92480546  0.57065430  0.40166633  1
  Te  Te149  1  0.88465925  0.53037379  0.71896703  1
  Te  Te150  1  0.92212796  0.91046192  0.07796335  1
  Te  Te151  1  0.94181972  0.90282550  0.43028230  1
  Te  Te152  1  0.90689080  0.90331764  0.75177570  1
  Te  Te153  1  0.22573964  0.04954712  0.23807459  1
  Te  Te154  1  0.24761875  0.09625267  0.60558764  1
  Te  Te155  1  0.26735779  0.07758850  0.92915911  1
  Te  Te156  1  0.24811384  0.43608065  0.25807994  1
  Te  Te157  1  0.24102908  0.38311199  0.56571807  1
  Te  Te158  1  0.30588952  0.44870080  0.93295309  1
  Te  Te159  1  0.21330681  0.74777977  0.26593802  1
  Te  Te160  1  0.22437649  0.73229522  0.58023178  1
  Te  Te161  1  0.26886007  0.76236802  0.90694156  1
  Te  Te162  1  0.59370106  0.06399463  0.24890163  1
  Te  Te163  1  0.57481418  0.08726175  0.57064873  1
  Te  Te164  1  0.56142497  0.08525589  0.87612961  1
  Te  Te165  1  0.57204564  0.37827126  0.21034750  1
  Te  Te166  1  0.58086282  0.39116693  0.57346092  1
  Te  Te167  1  0.58210249  0.41775132  0.91680409  1
  Te  Te168  1  0.60038877  0.74551140  0.24107082  1
  Te  Te169  1  0.56452110  0.77614073  0.58711329  1
  Te  Te170  1  0.55711802  0.73977428  0.91096211  1
  Te  Te171  1  0.94119193  0.10960306  0.25803970  1
  Te  Te172  1  0.92090818  0.07668798  0.59939635  1
  Te  Te173  1  0.92477424  0.05963408  0.91597909  1
  Te  Te174  1  0.92845184  0.38974984  0.24794292  1
  Te  Te175  1  0.93417210  0.44880062  0.59461734  1
  Te  Te176  1  0.90704902  0.40511828  0.92852302  1
  Te  Te177  1  0.94952736  0.74348276  0.27198052  1
  Te  Te178  1  0.93207237  0.73471267  0.59742781  1
  Te  Te179  1  0.89198325  0.74550106  0.90898962  1
