# generated using pymatgen
data_In2Te3
_symmetry_space_group_name_H-M   'P 1'
_cell_length_a   19.04845344
_cell_length_b   19.02056220
_cell_length_c   19.03329510
_cell_angle_alpha   90.00461798
_cell_angle_beta   89.63353363
_cell_angle_gamma   90.25804257
_symmetry_Int_Tables_number   1
_chemical_formula_structural   In2Te3
_chemical_formula_sum   'In72 Te108'
_cell_volume   6895.78579814
_cell_formula_units_Z   36
loop_
 _symmetry_equiv_pos_site_id
 _symmetry_equiv_pos_as_xyz
  1  'x, y, z'
loop_
 _atom_site_type_symbol
 _atom_site_label
 _atom_site_symmetry_multiplicity
 _atom_site_fract_x
 _atom_site_fract_y
 _atom_site_fract_z
 _atom_site_occupancy
  In  In0  1  0.66150013  -0.01675814  0.68140980  1
  In  In1  1  0.38168894  0.68275775  0.33572154  1
  In  In2  1  0.14211725  0.46374136  0.01870927  1
  In  In3  1  0.17630424  0.49101254  0.63086231  1
  In  In4  1  0.47200398  0.81730113  -0.01483051  1
  In  In5  1  0.03238787  0.69446968  -0.01519777  1
  In  In6  1  0.66036106  0.30663757  0.32966680  1
  In  In7  1  0.86302707  0.84322503  -0.00166009  1
  In  In8  1  0.67912686  0.49558752  0.13880581  1
  In  In9  1  0.82856133  0.33770203  0.51534150  1
  In  In10  1  0.48388059  0.19690512  0.66144284  1
  In  In11  1  0.49122153  0.82590620  0.66719636  1
  In  In12  1  0.15864672  0.34319559  0.82458455  1
  In  In13  1  0.02748184  0.16092551  0.16198900  1
  In  In14  1  0.46226554  -0.00376939  0.85500870  1
  In  In15  1  0.84505272  0.16738771  0.66878051  1
  In  In16  1  0.84681573  -0.02462207  0.19579260  1
  In  In17  1  0.17088077  0.83908511  0.66245774  1
  In  In18  1  0.01815628  0.50983741  0.83240546  1
  In  In19  1  0.17174633  0.02373811  0.80760529  1
  In  In20  1  0.79257087  0.80589473  0.61670606  1
  In  In21  1  0.49926908  0.00086382  0.50364591  1
  In  In22  1  0.67112393  0.01115539  0.00311144  1
  In  In23  1  0.01840438  0.67194247  0.67635003  1
  In  In24  1  0.52620098  0.51913775  0.35020561  1
  In  In25  1  0.37685897  0.64466409  0.66885629  1
  In  In26  1  0.63947987  0.82830021  0.15870781  1
  In  In27  1  0.16761326  0.65444963  0.45846076  1
  In  In28  1  0.00042541  0.32637108  0.33727955  1
  In  In29  1  0.66482925  0.69002401  -0.02649798  1
  In  In30  1  0.19800850  0.14466285  0.34286895  1
  In  In31  1  0.64272986  0.19005000  0.81927339  1
  In  In32  1  0.12604474  0.17852255  0.64922028  1
  In  In33  1  0.18600210  0.20542172  -0.01037109  1
  In  In34  1  0.00100085  0.83311986  0.17255900  1
  In  In35  1  0.32747278  0.32166530  0.35458793  1
  In  In36  1  0.84659293  0.17220068  0.02768556  1
  In  In37  1  0.34524025  0.21065609  0.82674432  1
  In  In38  1  0.46467711  0.16714422  0.01052330  1
  In  In39  1  0.83964348  0.46538580  0.32093234  1
  In  In40  1  0.18380243  0.00236999  0.52086968  1
  In  In41  1  0.50247090  0.14497897  0.34552904  1
  In  In42  1  -0.02265176  0.82862451  0.50969537  1
  In  In43  1  0.77396291  0.63860378  0.77697237  1
  In  In44  1  0.63919663  0.52555994  0.76689444  1
  In  In45  1  -0.01179250  0.47132287  0.47691010  1
  In  In46  1  0.35870010  0.83652195  0.17134293  1
  In  In47  1  0.65215067  0.71694654  0.37292606  1
  In  In48  1  0.18123353  0.84145457  0.31179865  1
  In  In49  1  0.86615570  0.50305167  0.00337989  1
  In  In50  1  0.68964751  0.15837461  0.50837653  1
  In  In51  1  0.66630366  0.18168872  0.19481968  1
  In  In52  1  0.66253267  0.35879192  -0.01966717  1
  In  In53  1  0.01235973  -0.01011282  0.35654529  1
  In  In54  1  0.84997288  -0.01809099  0.82095946  1
  In  In55  1  0.79956106  0.00157056  0.51114728  1
  In  In56  1  0.84049848  0.32351502  0.82637403  1
  In  In57  1  0.33755338  0.82383704  0.50643125  1
  In  In58  1  -0.00937444  0.65153710  0.33919181  1
  In  In59  1  0.31911649  0.16598222  0.16760115  1
  In  In60  1  0.33503072  0.48116810  0.17347238  1
  In  In61  1  0.14717279  0.48117172  0.33497111  1
  In  In62  1  0.35088448  0.48884286  0.50267210  1
  In  In63  1  0.84528174  0.66350886  0.16617260  1
  In  In64  1  0.59593426  -0.04463790  0.30398341  1
  In  In65  1  0.33538418  0.47342212  0.80798566  1
  In  In66  1  0.49232612  0.33722511  0.15065298  1
  In  In67  1  0.03256252  0.05034760  -0.03168168  1
  In  In68  1  0.82881268  0.16426518  0.35863635  1
  In  In69  1  0.30401773  0.66519438  0.02018657  1
  In  In70  1  0.00252808  0.85283248  0.80098253  1
  In  In71  1  0.49120105  0.54812801  -0.02875726  1
  Te  Te72  1  0.12634650  0.08556160  0.07718284  1
  Te  Te73  1  0.08991607  0.08741764  0.43661835  1
  Te  Te74  1  0.05848246  0.08350648  0.74017087  1
  Te  Te75  1  0.05030117  0.39742718  0.11132051  1
  Te  Te76  1  0.10867406  0.37584953  0.44451212  1
  Te  Te77  1  0.07791835  0.42253667  0.72418028  1
  Te  Te78  1  0.10547196  0.76284359  0.09468203  1
  Te  Te79  1  0.08012197  0.77095797  0.40960747  1
  Te  Te80  1  0.10856491  0.74750599  0.76889907  1
  Te  Te81  1  0.38820908  0.06735939  0.08162147  1
  Te  Te82  1  0.40189767  0.08900096  0.43798159  1
  Te  Te83  1  0.41478362  0.09650994  0.75255317  1
  Te  Te84  1  0.42784117  0.43822754  0.06155492  1
  Te  Te85  1  0.44234944  0.40876780  0.40929659  1
  Te  Te86  1  0.43532558  0.39477932  0.73211712  1
  Te  Te87  1  0.42276818  0.72406294  0.09328630  1
  Te  Te88  1  0.43328203  0.71926772  0.46591299  1
  Te  Te89  1  0.36871969  0.77660151  0.73600775  1
  Te  Te90  1  0.75739806  0.07332197  0.11197848  1
  Te  Te91  1  0.71887934  0.06651476  0.39145516  1
  Te  Te92  1  0.74284578  0.08268077  0.76167925  1
  Te  Te93  1  0.77613026  0.40103630  0.07311755  1
  Te  Te94  1  0.73658105  0.40535142  0.41578685  1
  Te  Te95  1  0.75292995  0.41979037  0.75796274  1
  Te  Te96  1  0.76508619  0.76319226  0.08415234  1
  Te  Te97  1  0.74324108  0.76743595  0.47459478  1
  Te  Te98  1  0.71573383  0.77081436  0.74245939  1
  Te  Te99  1  0.10131167  0.23745628  0.26783395  1
  Te  Te100  1  0.06930197  0.27230286  0.55351147  1
  Te  Te101  1  0.07625861  0.25611188  0.90944041  1
  Te  Te102  1  0.08887926  0.58732287  0.25404678  1
  Te  Te103  1  0.07637937  0.58203860  0.55753557  1
  Te  Te104  1  0.11295559  0.58298079  0.92255752  1
  Te  Te105  1  0.09091032  0.93722558  0.23899130  1
  Te  Te106  1  0.07016002  0.91910532  0.58612132  1
  Te  Te107  1  0.08585187  0.92793793  0.90337291  1
  Te  Te108  1  0.43012139  0.25084170  0.25741572  1
  Te  Te109  1  0.40873080  0.31114141  0.60519362  1
  Te  Te110  1  0.43771299  0.27534679  0.91981794  1
  Te  Te111  1  0.43382978  0.57330494  0.24537969  1
  Te  Te112  1  0.45468696  0.54032073  0.59586466  1
  Te  Te113  1  0.36840945  0.59519643  0.90188972  1
  Te  Te114  1  0.45702899  0.89778770  0.26567993  1
  Te  Te115  1  0.40351757  0.92766980  0.59547956  1
  Te  Te116  1  0.36866872  0.90778433  0.92872180  1
  Te  Te117  1  0.78411987  0.25955793  0.25009692  1
  Te  Te118  1  0.73901625  0.25736986  0.60955228  1
  Te  Te119  1  0.74694233  0.23908292  0.92451554  1
  Te  Te120  1  0.75690213  0.56977154  0.24457488  1
  Te  Te121  1  0.71719122  0.60243406  0.63737936  1
  Te  Te122  1  0.77266160  0.59547219  0.92679326  1
  Te  Te123  1  0.73312069  0.89883964  0.25797331  1
  Te  Te124  1  0.68544708  0.91014424  0.55273584  1
  Te  Te125  1  0.75351085  0.91574449  0.91928138  1
  Te  Te126  1  0.26360613  0.27584528  0.09063615  1
  Te  Te127  1  0.28138541  0.21428260  0.44437669  1
  Te  Te128  1  0.23707733  0.25414683  0.73341539  1
  Te  Te129  1  0.23010780  0.56074811  0.10200973  1
  Te  Te130  1  0.26765887  0.56038165  0.39677795  1
  Te  Te131  1  0.25279247  0.57312428  0.72937046  1
  Te  Te132  1  0.23944861  0.86533360  0.08731555  1
  Te  Te133  1  0.25879855  0.91604545  0.41689953  1
  Te  Te134  1  0.25712959  0.91681366  0.75097059  1
  Te  Te135  1  0.59889083  0.25355823  0.07895037  1
  Te  Te136  1  0.58026279  0.23783547  0.43803455  1
  Te  Te137  1  0.56597631  0.29097929  0.74583419  1
  Te  Te138  1  0.59355353  0.59898675  0.07307721  1
  Te  Te139  1  0.61756365  0.58901525  0.43728733  1
  Te  Te140  1  0.51377243  0.60999610  0.73380679  1
  Te  Te141  1  0.56842788  0.91563803  0.06004246  1
  Te  Te142  1  0.52102201  0.88426342  0.41132064  1
  Te  Te143  1  0.56179064  0.91667899  0.77237137  1
  Te  Te144  1  0.95426470  0.25903484  0.07892634  1
  Te  Te145  1  0.92452805  0.24366562  0.44329657  1
  Te  Te146  1  0.93663370  0.25509895  0.74031563  1
  Te  Te147  1  0.95092350  0.60157120  0.07990235  1
  Te  Te148  1  0.88913741  0.57220530  0.41619246  1
  Te  Te149  1  0.91833547  0.58594018  0.75108160  1
  Te  Te150  1  0.94016255  0.94492853  0.07844740  1
  Te  Te151  1  0.89620904  0.91912140  0.42118784  1
  Te  Te152  1  0.88729427  0.88920920  0.71030368  1
  Te  Te153  1  0.27764575  0.05745063  0.25693498  1
  Te  Te154  1  0.24544445  0.10220958  0.60705627  1
  Te  Te155  1  0.25878223  0.10762603  0.89994529  1
  Te  Te156  1  0.24121911  0.39300123  0.25383331  1
  Te  Te157  1  0.26931850  0.38829168  0.57837218  1
  Te  Te158  1  0.25086756  0.41432903  0.91961487  1
  Te  Te159  1  0.26871823  0.73453347  0.25310050  1
  Te  Te160  1  0.23219631  0.73346452  0.56876897  1
  Te  Te161  1  0.25056038  0.78901286  0.95839365  1
  Te  Te162  1  0.55900439  0.07840492  0.22162887  1
  Te  Te163  1  0.58258344  0.09201843  0.60312856  1
  Te  Te164  1  0.57481627  0.09074007  0.91605898  1
  Te  Te165  1  0.59448729  0.41244308  0.23627609  1
  Te  Te166  1  0.66277774  0.46271640  0.63367804  1
  Te  Te167  1  0.58626350  0.45659265  0.89737740  1
  Te  Te168  1  0.57854430  0.72999456  0.24901703  1
  Te  Te169  1  0.59212179  0.71458530  0.65044229  1
  Te  Te170  1  0.55752780  0.74118674  0.89223415  1
  Te  Te171  1  0.92626312  0.08800131  0.26282573  1
  Te  Te172  1  0.90682366  0.07839392  0.57082713  1
  Te  Te173  1  0.90367039  0.09492376  0.90957214  1
  Te  Te174  1  0.95571585  0.42657773  0.23369675  1
  Te  Te175  1  0.89896582  0.44255986  0.58819793  1
  Te  Te176  1  0.93693854  0.40851370  0.91057043  1
  Te  Te177  1  0.90900233  0.75720102  0.26632451  1
  Te  Te178  1  0.91207511  0.71246516  0.57811753  1
  Te  Te179  1  0.92753407  0.75580468  0.89509119  1
