# generated using pymatgen
data_In2Te3
_symmetry_space_group_name_H-M   'P 1'
_cell_length_a   18.81303903
_cell_length_b   18.81495410
_cell_length_c   18.80995996
_cell_angle_alpha   89.97145210
_cell_angle_beta   89.92990071
_cell_angle_gamma   89.94988872
_symmetry_Int_Tables_number   1
_chemical_formula_structural   In2Te3
_chemical_formula_sum   'In72 Te108'
_cell_volume   6658.08669458
_cell_formula_units_Z   36
loop_
 _symmetry_equiv_pos_site_id
 _symmetry_equiv_pos_as_xyz
  1  'x, y, z'
loop_
 _atom_site_type_symbol
 _atom_site_label
 _atom_site_symmetry_multiplicity
 _atom_site_fract_x
 _atom_site_fract_y
 _atom_site_fract_z
 _atom_site_occupancy
  In  In0  1  0.33545712  0.17378236  0.83945365  1
  In  In1  1  0.64233373  0.34058394  0.01692470  1
  In  In2  1  0.02264998  -0.00493382  0.02559080  1
  In  In3  1  0.34494728  0.84796052  0.18561739  1
  In  In4  1  0.49814327  0.30765515  0.17544134  1
  In  In5  1  0.35073804  0.66738588  0.65147168  1
  In  In6  1  0.66794817  0.32497880  0.65669313  1
  In  In7  1  0.82305566  0.17281871  0.01284352  1
  In  In8  1  0.33529660  0.16841817  0.16884059  1
  In  In9  1  0.33191469  0.02458460  0.66759798  1
  In  In10  1  0.51519280  0.51630244  0.37103434  1
  In  In11  1  0.65534436  0.16702378  0.81564887  1
  In  In12  1  0.50073247  0.31139679  0.83850329  1
  In  In13  1  0.64042619  0.84585652  0.79955664  1
  In  In14  1  0.82442765  0.67217758  0.49939564  1
  In  In15  1  0.33976311  -0.00738661  -0.00089874  1
  In  In16  1  0.83604436  0.32689363  0.18305826  1
  In  In17  1  0.83239749  0.34458446  0.81395985  1
  In  In18  1  0.17716343  0.34352066  0.84295574  1
  In  In19  1  0.34261222  0.31937088  0.65136640  1
  In  In20  1  0.18335495  0.01648438  0.17899905  1
  In  In21  1  0.18057952  0.32121756  0.18089285  1
  In  In22  1  0.33510895  0.82596938  0.81434892  1
  In  In23  1  -0.00343109  0.53528148  0.82863979  1
  In  In24  1  0.17458287  0.66041358  0.49231350  1
  In  In25  1  0.64131802  0.68894603  0.63594370  1
  In  In26  1  0.83099891  0.63928277  0.18679412  1
  In  In27  1  0.66678566  0.33144893  0.35091439  1
  In  In28  1  -0.00418620  0.47655382  0.50014461  1
  In  In29  1  0.69236761  0.49838836  0.18132123  1
  In  In30  1  0.01572822  0.52060745  0.16767421  1
  In  In31  1  0.32945664  0.49198166  0.83920652  1
  In  In32  1  0.47701824  0.65227754  0.82699957  1
  In  In33  1  0.16314009  0.67251002  0.84308787  1
  In  In34  1  0.34851015  0.66244778  0.34157858  1
  In  In35  1  0.00980017  0.82651876  0.14014443  1
  In  In36  1  0.49137153  -0.00486097  0.18970730  1
  In  In37  1  0.02128047  0.66072932  0.00084606  1
  In  In38  1  0.00042601  0.86144288  0.82521759  1
  In  In39  1  0.67875200  0.67066287  -0.00844014  1
  In  In40  1  0.85270174  0.83204028  -0.00251804  1
  In  In41  1  0.30926304  0.51008588  0.15124171  1
  In  In42  1  0.82710144  0.18602130  0.66476392  1
  In  In43  1  0.50764883  0.52100098  0.65290827  1
  In  In44  1  0.47646784  0.83642209  0.00058137  1
  In  In45  1  0.01493458  0.14558261  0.83386159  1
  In  In46  1  0.80999935  0.50387467  0.32433825  1
  In  In47  1  0.48608725  0.32626908  0.50091504  1
  In  In48  1  0.81544884  0.01198906  0.82821660  1
  In  In49  1  0.51846174  0.68416154  0.17121577  1
  In  In50  1  0.00237570  -0.00116766  0.65996276  1
  In  In51  1  0.66110747  0.01573324  -0.00814733  1
  In  In52  1  0.82113259  0.83800901  0.34521812  1
  In  In53  1  0.81361374  0.65501714  0.82266662  1
  In  In54  1  0.67153504  0.84117400  0.19764516  1
  In  In55  1  0.01071180  0.17567485  0.48795896  1
  In  In56  1  0.79880615  -0.01065956  0.50658268  1
  In  In57  1  0.51376168  -0.01021800  0.48630600  1
  In  In58  1  0.33614483  0.82609000  0.48694878  1
  In  In59  1  0.49389627  0.49085236  -0.00852043  1
  In  In60  1  0.16985133  0.00733989  0.51269378  1
  In  In61  1  0.83028356  0.16213163  0.34597647  1
  In  In62  1  -0.01529002  0.68081086  0.66574692  1
  In  In63  1  0.15579279  -0.00647039  0.83857001  1
  In  In64  1  0.02347963  0.66512685  0.32303538  1
  In  In65  1  0.17868281  0.47023436  0.65191698  1
  In  In66  1  0.00974249  0.34122393  0.62517516  1
  In  In67  1  0.16034369  0.83106781  0.34650825  1
  In  In68  1  -0.00425639  0.33107204  -0.00675008  1
  In  In69  1  -0.01737816  0.00946773  0.34464295  1
  In  In70  1  0.02881975  0.31400875  0.33732226  1
  In  In71  1  0.50019470  0.15731837  0.33178924  1
  Te  Te72  1  0.09991586  0.10119685  0.09090235  1
  Te  Te73  1  0.10003059  0.08873529  0.40064029  1
  Te  Te74  1  0.10579029  0.08900263  0.72670544  1
  Te  Te75  1  0.08304676  0.40819980  0.09023548  1
  Te  Te76  1  0.10604131  0.42153246  0.41056270  1
  Te  Te77  1  0.07230248  0.41776417  0.75384778  1
  Te  Te78  1  0.11334952  0.72341319  0.10216383  1
  Te  Te79  1  0.06579312  0.75504453  0.43882839  1
  Te  Te80  1  0.08631576  0.76267653  0.74583809  1
  Te  Te81  1  0.43035627  0.08241182  0.08149153  1
  Te  Te82  1  0.41380905  0.08837759  0.43340604  1
  Te  Te83  1  0.42790243  0.09022889  0.75945233  1
  Te  Te84  1  0.41744260  0.41129427  0.09474843  1
  Te  Te85  1  0.41827074  0.41000068  0.39855034  1
  Te  Te86  1  0.42429006  0.42075267  0.74292451  1
  Te  Te87  1  0.40151557  0.73967310  0.09014064  1
  Te  Te88  1  0.44147170  0.72306551  0.44521134  1
  Te  Te89  1  0.44324893  0.76206492  0.72666521  1
  Te  Te90  1  0.74913498  0.07456295  0.09260205  1
  Te  Te91  1  0.72712607  0.07882707  0.41385002  1
  Te  Te92  1  0.73250424  0.07782141  0.71870022  1
  Te  Te93  1  0.76365975  0.41084060  0.07671383  1
  Te  Te94  1  0.74799417  0.42479244  0.43164398  1
  Te  Te95  1  0.73651660  0.42634674  0.73988819  1
  Te  Te96  1  0.75767870  0.75235984  0.09542715  1
  Te  Te97  1  0.72271458  0.76763886  0.43530326  1
  Te  Te98  1  0.74510057  0.75625195  0.73258402  1
  Te  Te99  1  0.09541349  0.21774110  0.24824235  1
  Te  Te100  1  0.11562665  0.24817398  0.57263741  1
  Te  Te101  1  0.09506406  0.23911870  0.92239923  1
  Te  Te102  1  0.11877192  0.57046327  0.26260154  1
  Te  Te103  1  0.08049896  0.57643799  0.59137148  1
  Te  Te104  1  0.11036762  0.55689470  0.92821186  1
  Te  Te105  1  0.07388333  0.91315149  0.24913881  1
  Te  Te106  1  0.08496489  0.90725913  0.57988100  1
  Te  Te107  1  0.09578747  0.89239809  0.93976041  1
  Te  Te108  1  0.39731251  0.25840420  0.27837863  1
  Te  Te109  1  0.40459251  0.21420931  0.56266199  1
  Te  Te110  1  0.40315662  0.26377320  0.93746887  1
  Te  Te111  1  0.43449009  0.57882932  0.24444738  1
  Te  Te112  1  0.41660789  0.57978863  0.55109512  1
  Te  Te113  1  0.39242607  0.59236870  0.93812407  1
  Te  Te114  1  0.43409092  0.90148591  0.29295259  1
  Te  Te115  1  0.40688933  0.92199605  0.58079805  1
  Te  Te116  1  0.42471286  0.92632725  0.88949109  1
  Te  Te117  1  0.73144180  0.24056311  0.24718891  1
  Te  Te118  1  0.74426106  0.24278738  0.55885590  1
  Te  Te119  1  0.74708521  0.25080140  0.90642997  1
  Te  Te120  1  0.70575583  0.62124192  0.28001810  1
  Te  Te121  1  0.72673950  0.58490845  0.57062850  1
  Te  Te122  1  0.75445035  0.56560510  0.92306173  1
  Te  Te123  1  0.74942653  0.94407002  0.26956898  1
  Te  Te124  1  0.69704061  0.92035394  0.59383363  1
  Te  Te125  1  0.74679381  0.90042307  0.90940742  1
  Te  Te126  1  0.25892878  0.25221021  0.07409584  1
  Te  Te127  1  0.19330620  0.30077591  0.44874258  1
  Te  Te128  1  0.24211239  0.24908825  0.74250825  1
  Te  Te129  1  0.20718372  0.59589122  0.08987731  1
  Te  Te130  1  0.25849764  0.56923818  0.41451844  1
  Te  Te131  1  0.25094912  0.58234308  0.73994423  1
  Te  Te132  1  0.24629625  0.91072257  0.08766584  1
  Te  Te133  1  0.25577421  0.92998865  0.40885056  1
  Te  Te134  1  0.24160804  0.91891375  0.73783721  1
  Te  Te135  1  0.58642777  0.22651214  0.08848338  1
  Te  Te136  1  0.58750960  0.23273176  0.43429327  1
  Te  Te137  1  0.55932897  0.23706672  0.71977847  1
  Te  Te138  1  0.59124737  0.57705615  0.08059452  1
  Te  Te139  1  0.63125272  0.59392856  0.41537422  1
  Te  Te140  1  0.59480935  0.59220070  0.75476665  1
  Te  Te141  1  0.58207831  0.90811826  0.08349709  1
  Te  Te142  1  0.61393910  0.88151235  0.44919023  1
  Te  Te143  1  0.57842283  0.93634289  0.69868125  1
  Te  Te144  1  0.92939932  0.24035864  0.09749500  1
  Te  Te145  1  0.91007543  0.26932421  0.42174813  1
  Te  Te146  1  0.93818594  0.24783600  0.74921611  1
  Te  Te147  1  0.91089915  0.57978947  0.07154617  1
  Te  Te148  1  0.92156765  0.58452857  0.40694396  1
  Te  Te149  1  0.89450101  0.57106163  0.72192661  1
  Te  Te150  1  0.90399279  0.93111070  0.10120159  1
  Te  Te151  1  0.91478580  0.91256301  0.44016806  1
  Te  Te152  1  0.89318710  0.91927562  0.73417155  1
  Te  Te153  1  0.28196944  0.07425477  0.27089590  1
  Te  Te154  1  0.26859357  0.10976244  0.56023544  1
  Te  Te155  1  0.24253767  0.08310965  0.92456221  1
  Te  Te156  1  0.25838939  0.42190725  0.25795050  1
  Te  Te157  1  0.27232776  0.40997908  0.55296300  1
  Te  Te158  1  0.26734340  0.40567434  0.94193736  1
  Te  Te159  1  0.25349470  0.74880546  0.25878554  1
  Te  Te160  1  0.24407255  0.75650837  0.58825530  1
  Te  Te161  1  0.25945590  0.75406718  0.91809064  1
  Te  Te162  1  0.59619445  0.06040759  0.27053876  1
  Te  Te163  1  0.59326893  0.05595317  0.59538611  1
  Te  Te164  1  0.56916416  0.08035685  0.89813739  1
  Te  Te165  1  0.58296025  0.41689134  0.25062374  1
  Te  Te166  1  0.58473134  0.42131434  0.56871759  1
  Te  Te167  1  0.59100536  0.42017717  0.89711449  1
  Te  Te168  1  0.55284669  0.78790691  0.27328189  1
  Te  Te169  1  0.55364787  0.76989031  0.54577742  1
  Te  Te170  1  0.57461771  0.75040844  0.91218618  1
  Te  Te171  1  0.91899383  0.09794572  0.24674584  1
  Te  Te172  1  0.91290385  0.08910232  0.57118097  1
  Te  Te173  1  0.92021679  0.06760024  0.92469585  1
  Te  Te174  1  0.92660543  0.42468050  0.25705161  1
  Te  Te175  1  0.88897991  0.41158102  0.57964240  1
  Te  Te176  1  0.91630391  0.42971409  0.90909235  1
  Te  Te177  1  0.91630970  0.75412629  0.24727882  1
  Te  Te178  1  0.89846747  0.76761111  0.58487816  1
  Te  Te179  1  0.92633933  0.73942663  0.89969989  1
