# generated using pymatgen
data_In2Te3
_symmetry_space_group_name_H-M   'P 1'
_cell_length_a   18.94163220
_cell_length_b   18.97525145
_cell_length_c   18.98869804
_cell_angle_alpha   89.70215596
_cell_angle_beta   90.11019688
_cell_angle_gamma   90.01257155
_symmetry_Int_Tables_number   1
_chemical_formula_structural   In2Te3
_chemical_formula_sum   'In72 Te108'
_cell_volume   6824.85528059
_cell_formula_units_Z   36
loop_
 _symmetry_equiv_pos_site_id
 _symmetry_equiv_pos_as_xyz
  1  'x, y, z'
loop_
 _atom_site_type_symbol
 _atom_site_label
 _atom_site_symmetry_multiplicity
 _atom_site_fract_x
 _atom_site_fract_y
 _atom_site_fract_z
 _atom_site_occupancy
  In  In0  1  0.13279910  0.17252203  0.01407838  1
  In  In1  1  0.85408950  0.66336462  0.84377749  1
  In  In2  1  0.85287083  0.49720955  -0.00669557  1
  In  In3  1  -0.02340287  0.13471279  0.16385205  1
  In  In4  1  0.34121640  0.84996759  0.50562915  1
  In  In5  1  0.32551325  0.66404190  0.66570973  1
  In  In6  1  0.16293881  -0.01949391  0.16650392  1
  In  In7  1  0.67134251  0.02036503  0.67946718  1
  In  In8  1  0.72376397  0.13236008  0.12212365  1
  In  In9  1  0.50351032  0.37101967  0.50232209  1
  In  In10  1  0.18018090  0.80756093  0.31226769  1
  In  In11  1  0.32600113  0.50010475  0.79889477  1
  In  In12  1  -0.01032457  0.34667722  -0.02566043  1
  In  In13  1  0.33177850  0.32423695  0.35063288  1
  In  In14  1  0.18857704  0.64518418  0.49563127  1
  In  In15  1  0.68274331  -0.02099563  0.34956375  1
  In  In16  1  0.87239501  -0.01611285  0.86190120  1
  In  In17  1  0.01220438  0.51460926  0.50696795  1
  In  In18  1  0.50969244  0.32006590  0.13842450  1
  In  In19  1  0.50338358  0.33116488  0.83394223  1
  In  In20  1  0.14576399  0.16522248  0.65364509  1
  In  In21  1  0.00743887  0.34496978  0.33241529  1
  In  In22  1  0.49450657  0.19947309  0.67833268  1
  In  In23  1  0.17887314  0.51045427  -0.02354748  1
  In  In24  1  0.31948316  0.14975040  0.84217279  1
  In  In25  1  0.67266285  0.68621385  0.02612733  1
  In  In26  1  0.15352010  0.83845668  0.70278292  1
  In  In27  1  0.50988620  0.00940130  0.82616707  1
  In  In28  1  0.79348426  0.82761785  0.64788710  1
  In  In29  1  0.67744931  0.31728640  0.30948886  1
  In  In30  1  0.14962037  0.32348754  0.17176524  1
  In  In31  1  0.15653624  0.35017196  0.52131678  1
  In  In32  1  0.68865760  0.84896375  0.84333666  1
  In  In33  1  0.80944589  0.34938445  0.52697136  1
  In  In34  1  0.01004949  0.67055218  0.34211790  1
  In  In35  1  0.34275674  0.49094379  0.16189989  1
  In  In36  1  0.48957946  0.00910434  0.50945293  1
  In  In37  1  0.50579506  0.14497794  0.32653974  1
  In  In38  1  0.64072326  0.65934924  0.65299408  1
  In  In39  1  0.33550860  -0.00242729  0.30758096  1
  In  In40  1  0.01778834  0.66771337  0.01040918  1
  In  In41  1  -0.02297023  0.19013743  0.81877243  1
  In  In42  1  0.31482903  0.67954760  -0.00242458  1
  In  In43  1  0.30266603  0.17312437  0.52235357  1
  In  In44  1  0.48548677  0.65216879  0.50518688  1
  In  In45  1  0.83011091  0.51393971  0.68837918  1
  In  In46  1  0.84847529  0.51290847  0.32265660  1
  In  In47  1  0.68571696  0.85411453  0.16736505  1
  In  In48  1  0.51991520  -0.01132544  0.18644428  1
  In  In49  1  0.32032845  0.15600395  0.15432829  1
  In  In50  1  0.48587577  0.48560780  0.35134873  1
  In  In51  1  0.48373131  0.68336739  0.16112389  1
  In  In52  1  0.51064907  0.14763047  -0.01414649  1
  In  In53  1  0.32124161  0.81963408  0.83262043  1
  In  In54  1  0.84678419  -0.00900341  0.49990867  1
  In  In55  1  0.17100123  0.35870776  0.76756924  1
  In  In56  1  0.01488898  0.52165610  0.17702370  1
  In  In57  1  0.00965647  -0.01634058  0.71319548  1
  In  In58  1  0.71156986  0.16830836  0.86860407  1
  In  In59  1  -0.00760620  0.83442185  0.16734919  1
  In  In60  1  0.67930531  0.21421242  0.51230320  1
  In  In61  1  0.31505729  -0.03560562  0.00983663  1
  In  In62  1  0.46532438  0.81585587  0.32312256  1
  In  In63  1  -0.02532211  0.16172183  0.51346622  1
  In  In64  1  0.67887888  0.48634303  0.82944474  1
  In  In65  1  0.72337700  0.78331343  0.48531815  1
  In  In66  1  0.63964843  0.49397859  0.50260766  1
  In  In67  1  0.50999565  0.49619932  -0.02000549  1
  In  In68  1  0.69711483  0.48887835  0.15586023  1
  In  In69  1  0.84020704  0.16995640  0.32819758  1
  In  In70  1  0.13313278  -0.00986769  0.50185162  1
  In  In71  1  0.51417776  0.67196614  0.83975084  1
  Te  Te72  1  0.06287377  0.04707039  0.06892241  1
  Te  Te73  1  0.05580108  0.08438984  0.42115697  1
  Te  Te74  1  0.08994596  0.09873523  0.77617936  1
  Te  Te75  1  0.08655302  0.42388493  0.07603607  1
  Te  Te76  1  0.09881176  0.43709192  0.40950471  1
  Te  Te77  1  0.10095356  0.47727471  0.71497031  1
  Te  Te78  1  0.09849493  0.75277521  0.10256298  1
  Te  Te79  1  0.10246646  0.75335298  0.43031073  1
  Te  Te80  1  0.11755873  0.72402174  0.79051711  1
  Te  Te81  1  0.42488281  0.07024728  0.08724696  1
  Te  Te82  1  0.39107103  0.09703824  0.41773704  1
  Te  Te83  1  0.41281135  0.08735272  0.73910451  1
  Te  Te84  1  0.41356940  0.40649371  0.05848305  1
  Te  Te85  1  0.36857764  0.43955721  0.44577818  1
  Te  Te86  1  0.42630894  0.41152971  0.73852637  1
  Te  Te87  1  0.42524290  0.75937154  0.05063731  1
  Te  Te88  1  0.38565121  0.73176023  0.42232445  1
  Te  Te89  1  0.42668787  0.75065243  0.74571240  1
  Te  Te90  1  0.81450482  0.03587011  0.04982932  1
  Te  Te91  1  0.74536029  0.10331107  0.42862674  1
  Te  Te92  1  0.77648489  0.06960798  0.77273049  1
  Te  Te93  1  0.75920259  0.40306219  0.05799450  1
  Te  Te94  1  0.73778885  0.41887188  0.40413860  1
  Te  Te95  1  0.77791464  0.39361929  0.76684002  1
  Te  Te96  1  0.77520040  0.76008716  0.09726599  1
  Te  Te97  1  0.79215525  0.78645115  0.35428297  1
  Te  Te98  1  0.72938947  0.72949177  0.75381461  1
  Te  Te99  1  0.06327594  0.22977428  0.25245085  1
  Te  Te100  1  0.05073766  0.26636008  0.59364500  1
  Te  Te101  1  0.09295533  0.26597899  0.89900763  1
  Te  Te102  1  0.10678442  0.59013533  0.26626935  1
  Te  Te103  1  0.08851949  0.60515799  0.59658251  1
  Te  Te104  1  0.05877175  0.56513938  0.90895447  1
  Te  Te105  1  0.07807985  0.91140783  0.27092060  1
  Te  Te106  1  0.05968867  0.89884188  0.59513288  1
  Te  Te107  1  0.01216434  0.93216470  0.85579796  1
  Te  Te108  1  0.41613779  0.24512130  0.24279654  1
  Te  Te109  1  0.40965439  0.26697666  0.57205350  1
  Te  Te110  1  0.41257386  0.24174675  0.91906837  1
  Te  Te111  1  0.41622186  0.58283397  0.25547249  1
  Te  Te112  1  0.42076487  0.56820842  0.60642405  1
  Te  Te113  1  0.40565482  0.58294063  0.91091075  1
  Te  Te114  1  0.39081523  0.89404519  0.21207836  1
  Te  Te115  1  0.42087916  0.92290830  0.60468354  1
  Te  Te116  1  0.41521843  0.92058672  0.90740068  1
  Te  Te117  1  0.77214461  0.24765555  0.21687575  1
  Te  Te118  1  0.78526652  0.23091478  0.61505077  1
  Te  Te119  1  0.81682943  0.24384359  0.94444425  1
  Te  Te120  1  0.74137033  0.58511198  0.25387814  1
  Te  Te121  1  0.74166367  0.57748333  0.57783627  1
  Te  Te122  1  0.73737339  0.58739007  0.92578288  1
  Te  Te123  1  0.77903947  0.94526078  0.24294631  1
  Te  Te124  1  0.71495864  0.93266805  0.56258032  1
  Te  Te125  1  0.77607542  0.90627796  0.94823600  1
  Te  Te126  1  0.24513803  0.25876868  0.07282981  1
  Te  Te127  1  0.21919530  0.25009576  0.42212089  1
  Te  Te128  1  0.25579051  0.23716344  0.73337635  1
  Te  Te129  1  0.24397851  0.58433705  0.09233394  1
  Te  Te130  1  0.28405486  0.56831789  0.41972238  1
  Te  Te131  1  0.23127729  0.61523065  0.77317093  1
  Te  Te132  1  0.21466879  0.87639602  0.07442436  1
  Te  Te133  1  0.24907917  0.92486182  0.40897384  1
  Te  Te134  1  0.23857136  0.92879421  0.78003472  1
  Te  Te135  1  0.60659730  0.22594640  0.07363711  1
  Te  Te136  1  0.56728417  0.25895253  0.40777402  1
  Te  Te137  1  0.60567985  0.23427782  0.77385991  1
  Te  Te138  1  0.57627042  0.57505812  0.09049223  1
  Te  Te139  1  0.58078167  0.59326645  0.40301474  1
  Te  Te140  1  0.57382545  0.56397862  0.75182653  1
  Te  Te141  1  0.59341124  0.92751812  0.07860203  1
  Te  Te142  1  0.54612480  0.92862876  0.39444379  1
  Te  Te143  1  0.58908312  0.90974979  0.74370219  1
  Te  Te144  1  0.93090225  0.25051301  0.07343221  1
  Te  Te145  1  0.90279716  0.27781148  0.42084895  1
  Te  Te146  1  0.87863440  0.27402784  0.74836960  1
  Te  Te147  1  0.91069973  0.59289032  0.09411106  1
  Te  Te148  1  0.90748971  0.59595148  0.43203315  1
  Te  Te149  1  0.91723780  0.62871349  0.71769376  1
  Te  Te150  1  0.93278209  0.93842622  0.07881164  1
  Te  Te151  1  0.89846953  0.87932034  0.41915973  1
  Te  Te152  1  0.89582650  0.87943150  0.74353508  1
  Te  Te153  1  0.22806329  0.09113383  0.25298799  1
  Te  Te154  1  0.23466766  0.05774850  0.59339730  1
  Te  Te155  1  0.23697469  0.07808960  0.94737228  1
  Te  Te156  1  0.25124241  0.40631200  0.25014118  1
  Te  Te157  1  0.21622417  0.43420634  0.62970211  1
  Te  Te158  1  0.25100263  0.40814021  0.89290188  1
  Te  Te159  1  0.30391756  0.76726590  0.24709583  1
  Te  Te160  1  0.24420381  0.77207053  0.59393905  1
  Te  Te161  1  0.21143577  0.75014135  0.91283825  1
  Te  Te162  1  0.61933577  0.08922396  0.24487635  1
  Te  Te163  1  0.58031840  0.10973717  0.58217280  1
  Te  Te164  1  0.61555762  0.05968477  0.92205360  1
  Te  Te165  1  0.57178192  0.41040525  0.24392301  1
  Te  Te166  1  0.60847516  0.39043620  0.60305853  1
  Te  Te167  1  0.60647407  0.39302497  0.92694343  1
  Te  Te168  1  0.58223749  0.76227537  0.24452303  1
  Te  Te169  1  0.58411617  0.75808436  0.55321830  1
  Te  Te170  1  0.58918266  0.76822328  0.92869583  1
  Te  Te171  1  0.90552495  0.05268042  0.26607435  1
  Te  Te172  1  0.91845431  0.06237941  0.61074538  1
  Te  Te173  1  0.91074739  0.12488880  0.93994737  1
  Te  Te174  1  0.91837733  0.41537376  0.23190753  1
  Te  Te175  1  0.91780537  0.43109352  0.59319599  1
  Te  Te176  1  0.93993544  0.45238057  0.88135152  1
  Te  Te177  1  0.91134940  0.74035564  0.25341098  1
  Te  Te178  1  0.86938024  0.76665090  0.53685048  1
  Te  Te179  1  0.92029609  0.75179826  0.93722357  1
