# generated using pymatgen
data_In2Te3
_symmetry_space_group_name_H-M   'P 1'
_cell_length_a   18.92706678
_cell_length_b   18.95478332
_cell_length_c   18.94690192
_cell_angle_alpha   90.16682792
_cell_angle_beta   90.00165489
_cell_angle_gamma   90.06766110
_symmetry_Int_Tables_number   1
_chemical_formula_structural   In2Te3
_chemical_formula_sum   'In72 Te108'
_cell_volume   6797.32760109
_cell_formula_units_Z   36
loop_
 _symmetry_equiv_pos_site_id
 _symmetry_equiv_pos_as_xyz
  1  'x, y, z'
loop_
 _atom_site_type_symbol
 _atom_site_label
 _atom_site_symmetry_multiplicity
 _atom_site_fract_x
 _atom_site_fract_y
 _atom_site_fract_z
 _atom_site_occupancy
  In  In0  1  0.29704865  0.16300706  0.21537308  1
  In  In1  1  0.31814683  0.34498061  -0.00629548  1
  In  In2  1  0.15325619  0.19629507  0.65429240  1
  In  In3  1  0.67850203  0.34876726  0.64960020  1
  In  In4  1  0.31265468  0.82788963  0.19896402  1
  In  In5  1  0.52496278  0.81363524  0.34756908  1
  In  In6  1  0.84246800  0.66820634  0.83913484  1
  In  In7  1  0.17149698  0.81407367  0.63077524  1
  In  In8  1  0.82807155  0.00832426  0.85025783  1
  In  In9  1  0.16393610  -0.02956562  0.82917889  1
  In  In10  1  0.66157447  0.36235153  -0.02805303  1
  In  In11  1  0.85762662  0.00834658  0.49566414  1
  In  In12  1  0.35171903  -0.03069715  0.01674679  1
  In  In13  1  0.16726394  0.67416253  0.83710654  1
  In  In14  1  0.67830866  0.34171860  0.33974146  1
  In  In15  1  0.66700036  0.15314291  0.18864137  1
  In  In16  1  0.26378319  0.10560257  0.42135309  1
  In  In17  1  -0.00814845  -0.00717969  0.67587262  1
  In  In18  1  0.46257525  0.84995545  0.66608904  1
  In  In19  1  0.14851182  0.16235987  -0.01153053  1
  In  In20  1  -0.02518420  0.16635655  0.82068528  1
  In  In21  1  0.84482936  0.16509254  0.35085176  1
  In  In22  1  0.49718062  0.32234151  0.50636727  1
  In  In23  1  0.15375339  0.33827955  0.18229452  1
  In  In24  1  -0.00333648  0.34807697  0.00943214  1
  In  In25  1  0.49933466  -0.00399338  0.18078317  1
  In  In26  1  0.32825216  0.33665671  0.64308653  1
  In  In27  1  0.84576887  0.50979112  0.01890900  1
  In  In28  1  0.31990948  0.52868460  0.82078631  1
  In  In29  1  0.85269382  0.64864214  0.48769091  1
  In  In30  1  0.50200213  0.64271681  0.49339299  1
  In  In31  1  0.48813748  -0.02683801  0.85647888  1
  In  In32  1  0.16769187  0.34531544  0.79709355  1
  In  In33  1  0.19061569  0.51222944  0.33600010  1
  In  In34  1  0.83827637  0.49221940  0.65765058  1
  In  In35  1  0.63812023  0.66993246  0.69415442  1
  In  In36  1  0.66526157  0.01375571  0.00630289  1
  In  In37  1  0.73822751  0.85121349  0.19923204  1
  In  In38  1  0.32907492  0.51562922  0.16345734  1
  In  In39  1  0.85835778  0.81598576  0.68209977  1
  In  In40  1  0.83204180  0.19137845  0.02533637  1
  In  In41  1  0.48406984  0.14491337  0.32652433  1
  In  In42  1  0.35392702  0.16027517  0.86531254  1
  In  In43  1  0.84050017  0.17977197  0.62726408  1
  In  In44  1  0.03537470  0.65684834  0.63334232  1
  In  In45  1  -0.02367529  0.81053729  0.21183658  1
  In  In46  1  0.66700659  0.19243739  0.79993404  1
  In  In47  1  0.47325285  0.82534553  0.00353867  1
  In  In48  1  0.66692981  0.67191796  0.00403120  1
  In  In49  1  0.69187108  0.51963728  0.48060337  1
  In  In50  1  -0.00252211  0.33330339  0.62360220  1
  In  In51  1  0.01441335  0.51161345  0.83805794  1
  In  In52  1  0.84365354  0.83085703  -0.00146924  1
  In  In53  1  0.30453783  0.50732114  0.49032538  1
  In  In54  1  0.31859631  0.01473799  0.64337219  1
  In  In55  1  0.65210464  -0.00152132  0.66029433  1
  In  In56  1  0.50781313  0.16186347  0.65830659  1
  In  In57  1  0.50240126  0.48759975  0.34339134  1
  In  In58  1  0.51088321  0.67867588  0.16603770  1
  In  In59  1  0.49986994  0.31644321  0.15380388  1
  In  In60  1  0.30159536  0.64242394  0.36103830  1
  In  In61  1  0.68977492  0.82338489  0.50834387  1
  In  In62  1  0.02644645  -0.02523200  0.01092999  1
  In  In63  1  -0.00021486  0.35101013  0.33602786  1
  In  In64  1  0.06703318  0.88587619  0.41793725  1
  In  In65  1  0.01651206  0.14609723  0.21164194  1
  In  In66  1  0.48595044  0.15513745  -0.00527935  1
  In  In67  1  0.70071659  0.52213028  0.16669962  1
  In  In68  1  -0.00854066  0.50902323  0.17008320  1
  In  In69  1  0.16786945  0.67125936  0.17055074  1
  In  In70  1  0.47609807  0.67489932  0.82259784  1
  In  In71  1  0.49405643  0.50452582  0.67723153  1
  Te  Te72  1  0.09897668  0.07399236  0.10137968  1
  Te  Te73  1  0.09159762  0.03630330  0.37546582  1
  Te  Te74  1  0.09064979  0.08717117  0.75964373  1
  Te  Te75  1  0.09943815  0.43257605  0.07963584  1
  Te  Te76  1  0.08780236  0.44252561  0.42085130  1
  Te  Te77  1  0.06919384  0.42827833  0.72003148  1
  Te  Te78  1  0.07936481  0.77300536  0.11276244  1
  Te  Te79  1  0.10474055  0.73790412  0.41022818  1
  Te  Te80  1  0.07958268  0.75736303  0.73773171  1
  Te  Te81  1  0.40613190  0.09267917  0.10805223  1
  Te  Te82  1  0.40973414  0.07092206  0.42802304  1
  Te  Te83  1  0.42346643  0.07062329  0.75758077  1
  Te  Te84  1  0.41788156  0.42029749  0.08056517  1
  Te  Te85  1  0.40154662  0.40900769  0.42385000  1
  Te  Te86  1  0.39959119  0.41312776  0.75143280  1
  Te  Te87  1  0.39102244  0.74120128  0.09834075  1
  Te  Te88  1  0.41112492  0.73855941  0.41820726  1
  Te  Te89  1  0.38925809  0.73743962  0.72342558  1
  Te  Te90  1  0.76702593  0.07550241  0.09877052  1
  Te  Te91  1  0.75117367  0.09349340  0.44127658  1
  Te  Te92  1  0.76445896  0.08903138  0.73794052  1
  Te  Te93  1  0.75431239  0.40510878  0.08415999  1
  Te  Te94  1  0.77886408  0.41969833  0.41605654  1
  Te  Te95  1  0.75744985  0.41561028  0.75256999  1
  Te  Te96  1  0.76666299  0.74140415  0.09489157  1
  Te  Te97  1  0.76357478  0.74057213  0.41125698  1
  Te  Te98  1  0.74381164  0.75666070  0.76381197  1
  Te  Te99  1  0.11178979  0.23934187  0.29124076  1
  Te  Te100  1  0.10417368  0.27069033  0.53476517  1
  Te  Te101  1  0.07538636  0.26322070  0.89883219  1
  Te  Te102  1  0.08238231  0.58838634  0.26438281  1
  Te  Te103  1  0.05487563  0.55743906  0.52450477  1
  Te  Te104  1  0.07415004  0.60602775  0.93176203  1
  Te  Te105  1  0.05504192  0.92640522  0.26915203  1
  Te  Te106  1  0.06563892  0.90899243  0.57715008  1
  Te  Te107  1  0.11515777  0.87703280  0.93571345  1
  Te  Te108  1  0.40753272  0.25851741  0.25993803  1
  Te  Te109  1  0.39844358  0.22517623  0.56994311  1
  Te  Te110  1  0.43536828  0.27663241  0.91913577  1
  Te  Te111  1  0.41912785  0.59267928  0.26153454  1
  Te  Te112  1  0.40012054  0.58089740  0.58653821  1
  Te  Te113  1  0.40785079  0.59185111  0.92030452  1
  Te  Te114  1  0.42367244  0.90254509  0.27145017  1
  Te  Te115  1  0.41758790  0.94280462  0.56114195  1
  Te  Te116  1  0.37537185  0.87629745  0.89622984  1
  Te  Te117  1  0.76193282  0.25215062  0.25036339  1
  Te  Te118  1  0.72915394  0.24539775  0.55840403  1
  Te  Te119  1  0.75683483  0.25232161  0.91132496  1
  Te  Te120  1  0.79568122  0.58248890  0.26192362  1
  Te  Te121  1  0.74097436  0.60681176  0.59860377  1
  Te  Te122  1  0.75222182  0.57839599  0.92058115  1
  Te  Te123  1  0.80909305  0.93030175  0.30144086  1
  Te  Te124  1  0.77540978  0.91813372  0.60433184  1
  Te  Te125  1  0.73664718  0.91083811  0.92065089  1
  Te  Te126  1  0.23982070  0.24604391  0.08019879  1
  Te  Te127  1  0.21248300  0.24490659  0.41658981  1
  Te  Te128  1  0.26381859  0.23107467  0.76139885  1
  Te  Te129  1  0.24100565  0.58809831  0.07359779  1
  Te  Te130  1  0.18997462  0.64012478  0.49591743  1
  Te  Te131  1  0.22542570  0.59178880  0.72916629  1
  Te  Te132  1  0.24830919  0.92380067  0.10836252  1
  Te  Te133  1  0.21382233  0.95606443  0.41649142  1
  Te  Te134  1  0.25214866  0.90621741  0.72650264  1
  Te  Te135  1  0.59801319  0.23018793  0.07540283  1
  Te  Te136  1  0.57535416  0.24854806  0.39978724  1
  Te  Te137  1  0.56436596  0.27974392  0.73508693  1
  Te  Te138  1  0.58292321  0.57333964  0.08407032  1
  Te  Te139  1  0.60089836  0.59594112  0.38629843  1
  Te  Te140  1  0.59779311  0.54914194  0.77893110  1
  Te  Te141  1  0.57476361  0.91465338  0.07782087  1
  Te  Te142  1  0.59892159  0.90812053  0.43153726  1
  Te  Te143  1  0.57676166  0.90421370  0.75227221  1
  Te  Te144  1  0.95102566  0.24012085  0.10510130  1
  Te  Te145  1  0.94261088  0.24784104  0.42498514  1
  Te  Te146  1  0.90735502  0.26678091  0.73311139  1
  Te  Te147  1  0.93800283  0.60867719  0.07554734  1
  Te  Te148  1  0.91240313  0.57884489  0.36938552  1
  Te  Te149  1  0.92710062  0.59440249  0.73216290  1
  Te  Te150  1  0.92319810  0.91119188  0.09880437  1
  Te  Te151  1  0.90906048  0.89325986  0.41544133  1
  Te  Te152  1  0.92554176  0.91169980  0.78510354  1
  Te  Te153  1  0.24810344  0.03996415  0.27839887  1
  Te  Te154  1  0.20452516  0.08115731  0.57337052  1
  Te  Te155  1  0.25272197  0.06379919  0.92639894  1
  Te  Te156  1  0.26694343  0.41023107  0.25436445  1
  Te  Te157  1  0.22911252  0.42657333  0.58735738  1
  Te  Te158  1  0.22984001  0.42947995  0.90556796  1
  Te  Te159  1  0.21929563  0.75832826  0.29883215  1
  Te  Te160  1  0.26277277  0.77179534  0.52300245  1
  Te  Te161  1  0.23347873  0.77614450  0.92083513  1
  Te  Te162  1  0.60179351  0.05174318  0.27772168  1
  Te  Te163  1  0.59144953  0.08820422  0.56340528  1
  Te  Te164  1  0.59089927  0.08998158  0.89344520  1
  Te  Te165  1  0.58661953  0.41671502  0.23720732  1
  Te  Te166  1  0.58026555  0.44022166  0.56011544  1
  Te  Te167  1  0.57647000  0.45456209  0.90248371  1
  Te  Te168  1  0.61474536  0.76287778  0.23552491  1
  Te  Te169  1  0.56824454  0.74745609  0.58354722  1
  Te  Te170  1  0.57231205  0.75042967  0.91550593  1
  Te  Te171  1  0.90214088  0.06225812  0.25785879  1
  Te  Te172  1  0.95554075  0.09767705  0.57202043  1
  Te  Te173  1  0.92766548  0.08330127  0.94001988  1
  Te  Te174  1  0.91584372  0.39599990  0.22496286  1
  Te  Te175  1  0.89575835  0.41122013  0.54826000  1
  Te  Te176  1  0.91361980  0.42304715  0.90959824  1
  Te  Te177  1  0.89096448  0.70860592  0.28403257  1
  Te  Te178  1  0.93346406  0.74996913  0.56806900  1
  Te  Te179  1  0.93570856  0.73963455  0.92791877  1
