# generated using pymatgen
data_In2Te3
_symmetry_space_group_name_H-M   'P 1'
_cell_length_a   18.77669995
_cell_length_b   18.77621645
_cell_length_c   18.78561131
_cell_angle_alpha   89.95278862
_cell_angle_beta   90.07776993
_cell_angle_gamma   90.04002154
_symmetry_Int_Tables_number   1
_chemical_formula_structural   In2Te3
_chemical_formula_sum   'In72 Te108'
_cell_volume   6622.95842408
_cell_formula_units_Z   36
loop_
 _symmetry_equiv_pos_site_id
 _symmetry_equiv_pos_as_xyz
  1  'x, y, z'
loop_
 _atom_site_type_symbol
 _atom_site_label
 _atom_site_symmetry_multiplicity
 _atom_site_fract_x
 _atom_site_fract_y
 _atom_site_fract_z
 _atom_site_occupancy
  In  In0  1  0.00804687  0.34303470  0.00314274  1
  In  In1  1  0.65050470  0.33214243  0.31534364  1
  In  In2  1  0.33201787  0.65529532  0.67601697  1
  In  In3  1  0.67815061  0.16731257  0.50250567  1
  In  In4  1  0.32136827  0.14821863  0.49797118  1
  In  In5  1  0.64477666  0.18416190  0.15239671  1
  In  In6  1  0.67427484  0.81485148  0.84346923  1
  In  In7  1  0.49736246  0.81899390  0.65501209  1
  In  In8  1  0.66045188  0.67291444  0.32763403  1
  In  In9  1  0.48390485  0.50990468  0.01330768  1
  In  In10  1  0.49483032  -0.00819056  0.84562679  1
  In  In11  1  0.66871181  0.14555355  0.84804347  1
  In  In12  1  0.30592526  -0.00188583  0.65477833  1
  In  In13  1  0.33254720  0.18744574  0.83798353  1
  In  In14  1  0.01297753  0.49355121  0.16697371  1
  In  In15  1  0.50731433  0.34981982  0.49464208  1
  In  In16  1  0.68580771  0.00174961  0.66055789  1
  In  In17  1  0.84954273  0.80853482  0.65493320  1
  In  In18  1  0.49366052  0.82423880  0.32876226  1
  In  In19  1  0.17040768  0.33724989  0.15755099  1
  In  In20  1  0.33269683  0.66684854  0.01230654  1
  In  In21  1  0.16861289  0.15020031  0.35124164  1
  In  In22  1  0.82181858  0.16651601  0.01059726  1
  In  In23  1  0.00313292  0.15740409  0.50679410  1
  In  In24  1  0.00574549  -0.02984555  0.00338878  1
  In  In25  1  0.83308729  0.66496123  0.17609991  1
  In  In26  1  0.01132532  0.51265413  0.81983397  1
  In  In27  1  0.15728643  0.84073340  0.66023765  1
  In  In28  1  0.50312265  0.49438519  0.31487344  1
  In  In29  1  0.51440402  0.17244250  0.66458191  1
  In  In30  1  0.31827453  0.83698451  0.50107899  1
  In  In31  1  0.67429938  -0.01150013  0.32792313  1
  In  In32  1  0.34459094  0.50060463  0.49843819  1
  In  In33  1  0.17605904  0.66041795  0.82632252  1
  In  In34  1  0.18403243  0.36297136  0.83604474  1
  In  In35  1  0.44147487  0.17736986  0.30365568  1
  In  In36  1  0.02670553  0.81030340  0.82562629  1
  In  In37  1  0.84418282  0.32236166  0.82068318  1
  In  In38  1  0.65939206  0.50427867  0.81909669  1
  In  In39  1  0.83188965  0.01974453  0.82118334  1
  In  In40  1  0.84240953  0.82839791  -0.00664707  1
  In  In41  1  0.64703398  0.01003864  0.01954140  1
  In  In42  1  0.66761323  0.82685913  0.50774875  1
  In  In43  1  0.80272926  0.47584473  0.02439107  1
  In  In44  1  0.00196519  0.35266105  0.32778112  1
  In  In45  1  0.16979274  0.00711640  0.18961104  1
  In  In46  1  0.17556406  0.31314376  0.51888989  1
  In  In47  1  0.83484422  0.50609420  0.34678947  1
  In  In48  1  0.67009743  0.50795857  0.50108189  1
  In  In49  1  -0.01863525  0.15485184  0.16945959  1
  In  In50  1  0.47288379  0.35006644  0.84689218  1
  In  In51  1  0.86285546  0.64627202  0.50482607  1
  In  In52  1  0.49405488  -0.00777876  0.17743826  1
  In  In53  1  0.15387460  0.82095673  -0.00053634  1
  In  In54  1  0.32772118  0.50305406  0.15996753  1
  In  In55  1  0.15338501  0.51613132  0.33674902  1
  In  In56  1  -0.00146000  0.81928883  0.15663567  1
  In  In57  1  0.14778437  0.81145046  0.36782762  1
  In  In58  1  0.84735733  0.68293839  0.82357569  1
  In  In59  1  0.65640385  0.65453972  -0.00296684  1
  In  In60  1  0.82883673  0.15476284  0.33014683  1
  In  In61  1  0.00638049  0.15984061  0.80078626  1
  In  In62  1  0.32997371  0.34885663  0.67902215  1
  In  In63  1  0.32788176  0.67244281  0.33414719  1
  In  In64  1  0.47960134  0.64822129  0.84780792  1
  In  In65  1  0.34837718  0.01568746  0.00787789  1
  In  In66  1  0.67276609  0.34049981  0.65970657  1
  In  In67  1  0.33704832  0.82172199  0.16685728  1
  In  In68  1  0.86084158  0.86194547  0.35829565  1
  In  In69  1  0.19051578  0.18447240  0.00143824  1
  In  In70  1  0.87675524  0.37354905  0.51775997  1
  In  In71  1  0.00030188  -0.00308218  0.65534812  1
  Te  Te72  1  0.08610643  0.08650488  0.07696510  1
  Te  Te73  1  0.05724021  0.06301747  0.40187794  1
  Te  Te74  1  0.10120208  0.06527115  0.74041427  1
  Te  Te75  1  0.11134844  0.43855960  0.05934173  1
  Te  Te76  1  0.09067793  0.41215595  0.43366745  1
  Te  Te77  1  0.08109321  0.40844444  0.73987661  1
  Te  Te78  1  0.07922953  0.72198393  0.07973477  1
  Te  Te79  1  0.06523503  0.71739909  0.45294838  1
  Te  Te80  1  0.07853799  0.72020796  0.71756303  1
  Te  Te81  1  0.42816742  0.09983180  0.09882948  1
  Te  Te82  1  0.42304923  0.08290936  0.41496577  1
  Te  Te83  1  0.41826432  0.08670438  0.74766651  1
  Te  Te84  1  0.41595816  0.39816313  0.09497791  1
  Te  Te85  1  0.40678145  0.40591772  0.39455983  1
  Te  Te86  1  0.43166728  0.43873349  0.73701310  1
  Te  Te87  1  0.43415244  0.74073844  0.09120199  1
  Te  Te88  1  0.41913806  0.74241174  0.43401367  1
  Te  Te89  1  0.40963885  0.75791498  0.76210323  1
  Te  Te90  1  0.75106191  0.07536392  0.10940320  1
  Te  Te91  1  0.76290025  0.06196243  0.43161007  1
  Te  Te92  1  0.76031203  0.11758846  0.72833675  1
  Te  Te93  1  0.70549466  0.39003317  0.09664786  1
  Te  Te94  1  0.74519696  0.40157689  0.41807897  1
  Te  Te95  1  0.76748151  0.42983865  0.74041350  1
  Te  Te96  1  0.74672036  0.74950450  0.08106622  1
  Te  Te97  1  0.76268441  0.73972757  0.42086620  1
  Te  Te98  1  0.73686965  0.73483108  0.73084389  1
  Te  Te99  1  0.08281471  0.24594706  0.25056521  1
  Te  Te100  1  0.06404145  0.25766536  0.60035368  1
  Te  Te101  1  0.08214810  0.24719168  0.91104685  1
  Te  Te102  1  0.07393202  0.60262988  0.24610781  1
  Te  Te103  1  0.03474839  0.57664100  0.53818386  1
  Te  Te104  1  0.08970196  0.58564321  0.92125574  1
  Te  Te105  1  0.08215786  0.90233248  0.25481186  1
  Te  Te106  1  0.07684592  0.91480667  0.55386534  1
  Te  Te107  1  0.10075701  0.92444795  0.89517938  1
  Te  Te108  1  0.42469204  0.28448212  0.20481637  1
  Te  Te109  1  0.41688158  0.25750453  0.58110868  1
  Te  Te110  1  0.41203737  0.25525231  0.94160492  1
  Te  Te111  1  0.42031294  0.59811957  0.23882812  1
  Te  Te112  1  0.42651522  0.59109382  0.58077739  1
  Te  Te113  1  0.37129781  0.54996554  0.90913104  1
  Te  Te114  1  0.39209029  0.92149351  0.26827225  1
  Te  Te115  1  0.41785484  0.92521353  0.57949123  1
  Te  Te116  1  0.41765434  0.90643220  0.93643613  1
  Te  Te117  1  0.75611413  0.25197285  0.23908439  1
  Te  Te118  1  0.77062838  0.26793500  0.57051921  1
  Te  Te119  1  0.74366804  0.26017382  0.91855587  1
  Te  Te120  1  0.73763822  0.56732895  0.24688980  1
  Te  Te121  1  0.76681525  0.57357257  0.59136049  1
  Te  Te122  1  0.76557900  0.58463831  0.91230197  1
  Te  Te123  1  0.75567190  0.88786922  0.25741737  1
  Te  Te124  1  0.77559451  0.91513712  0.57297827  1
  Te  Te125  1  0.74676191  0.93190665  0.91888960  1
  Te  Te126  1  0.27615508  0.24505226  0.10669759  1
  Te  Te127  1  0.26216845  0.25762064  0.40660004  1
  Te  Te128  1  0.23437717  0.24810707  0.74005535  1
  Te  Te129  1  0.23273312  0.59688209  0.09593889  1
  Te  Te130  1  0.24168025  0.59522958  0.43292512  1
  Te  Te131  1  0.23829506  0.55822619  0.73881222  1
  Te  Te132  1  0.24113335  0.91882466  0.08362581  1
  Te  Te133  1  0.23794161  0.92086665  0.41012860  1
  Te  Te134  1  0.25758172  0.89965896  0.75221887  1
  Te  Te135  1  0.60054499  0.28267919  0.05378772  1
  Te  Te136  1  0.57515033  0.23942145  0.41335383  1
  Te  Te137  1  0.59074212  0.25991941  0.76415729  1
  Te  Te138  1  0.58109830  0.58079960  0.09985165  1
  Te  Te139  1  0.56993608  0.58705219  0.41734811  1
  Te  Te140  1  0.57859830  0.60445183  0.74755778  1
  Te  Te141  1  0.57420747  0.90353029  0.08997134  1
  Te  Te142  1  0.57766056  0.91439182  0.42091657  1
  Te  Te143  1  0.59558982  0.91683504  0.75056173  1
  Te  Te144  1  0.91001278  0.26550215  0.09020237  1
  Te  Te145  1  0.91687102  0.25547910  0.41081254  1
  Te  Te146  1  0.93244601  0.25943117  0.71885791  1
  Te  Te147  1  0.90813818  0.57220645  0.08112624  1
  Te  Te148  1  0.95490640  0.57835304  0.40130046  1
  Te  Te149  1  0.92512893  0.59664415  0.72915594  1
  Te  Te150  1  0.89884998  0.92359277  0.09934244  1
  Te  Te151  1  0.96539386  0.93043325  0.43931419  1
  Te  Te152  1  0.91167355  0.90209489  0.76603663  1
  Te  Te153  1  0.26837669  0.09744245  0.25368571  1
  Te  Te154  1  0.21496724  0.08625204  0.57872494  1
  Te  Te155  1  0.24962657  0.07931308  0.90817534  1
  Te  Te156  1  0.24557804  0.42034007  0.26163761  1
  Te  Te157  1  0.23938080  0.43342062  0.58932301  1
  Te  Te158  1  0.28566497  0.41821010  0.92560882  1
  Te  Te159  1  0.23026861  0.74939228  0.24784677  1
  Te  Te160  1  0.23854118  0.73661368  0.58261822  1
  Te  Te161  1  0.25982683  0.75673035  0.91135154  1
  Te  Te162  1  0.58253206  0.09413138  0.26392364  1
  Te  Te163  1  0.58030357  0.07033986  0.57272198  1
  Te  Te164  1  0.55501904  0.10002074  0.93694127  1
  Te  Te165  1  0.57937880  0.41410855  0.21199489  1
  Te  Te166  1  0.57179196  0.43827283  0.59933704  1
  Te  Te167  1  0.58170143  0.42740749  0.92378357  1
  Te  Te168  1  0.58420290  0.75752281  0.23323317  1
  Te  Te169  1  0.58758261  0.72768098  0.58323292  1
  Te  Te170  1  0.56398395  0.75392362  0.92636110  1
  Te  Te171  1  0.91822065  0.05874182  0.26076848  1
  Te  Te172  1  0.90280140  0.08700693  0.59061417  1
  Te  Te173  1  0.92436330  0.08735766  0.92449987  1
  Te  Te174  1  0.89926054  0.41796672  0.23705926  1
  Te  Te175  1  0.95005965  0.46920888  0.60760893  1
  Te  Te176  1  0.91006634  0.42430049  0.91809327  1
  Te  Te177  1  0.92009388  0.74906124  0.26834842  1
  Te  Te178  1  0.95009720  0.76553963  0.55119684  1
  Te  Te179  1  0.94385766  0.73484432  0.93092148  1
