# generated using pymatgen
data_In2Te3
_symmetry_space_group_name_H-M   'P 1'
_cell_length_a   19.00052514
_cell_length_b   18.96303660
_cell_length_c   19.02310691
_cell_angle_alpha   89.96243766
_cell_angle_beta   89.62180100
_cell_angle_gamma   89.97475643
_symmetry_Int_Tables_number   1
_chemical_formula_structural   In2Te3
_chemical_formula_sum   'In72 Te108'
_cell_volume   6854.01956936
_cell_formula_units_Z   36
loop_
 _symmetry_equiv_pos_site_id
 _symmetry_equiv_pos_as_xyz
  1  'x, y, z'
loop_
 _atom_site_type_symbol
 _atom_site_label
 _atom_site_symmetry_multiplicity
 _atom_site_fract_x
 _atom_site_fract_y
 _atom_site_fract_z
 _atom_site_occupancy
  In  In0  1  0.00243664  0.34525374  0.33300291  1
  In  In1  1  0.87815550  0.14760574  -0.00582546  1
  In  In2  1  0.67368024  0.64778857  0.32641363  1
  In  In3  1  0.16053843  0.33319333  0.18938328  1
  In  In4  1  0.00456428  0.67878922  0.66850990  1
  In  In5  1  0.01569605  0.81871932  0.18233491  1
  In  In6  1  0.32297801  0.18749746  0.86013172  1
  In  In7  1  0.47880739  0.18569733  0.67495216  1
  In  In8  1  0.16633693  0.83627640  0.35417480  1
  In  In9  1  0.30275468  0.04467132  0.63044586  1
  In  In10  1  0.50571006  0.65250276  0.85103177  1
  In  In11  1  0.48795484  0.84733419  0.35382684  1
  In  In12  1  0.33874848  0.50449536  0.83856358  1
  In  In13  1  0.13852151  0.06305668  0.81816443  1
  In  In14  1  0.17394515  0.17491066  0.34696453  1
  In  In15  1  0.51923113  0.33224001  0.84294010  1
  In  In16  1  0.68470375  0.31910466  0.00257007  1
  In  In17  1  0.85211783  0.82311654  0.02749397  1
  In  In18  1  0.00672873  0.84426859  0.81977644  1
  In  In19  1  0.85644964  0.50635145  -0.00002088  1
  In  In20  1  0.49574164  0.82530347  0.65370969  1
  In  In21  1  0.51357134  0.01548130  0.82558961  1
  In  In22  1  0.30790559  0.01455592  0.35518559  1
  In  In23  1  0.46390816  0.19619536  0.29608852  1
  In  In24  1  0.67655986  0.86002276  0.84172626  1
  In  In25  1  0.32152202  0.66945059  0.64877947  1
  In  In26  1  0.17458781  0.65113495  0.82328872  1
  In  In27  1  0.84393972  0.47681631  0.65436327  1
  In  In28  1  0.68268650  0.34763315  0.63692212  1
  In  In29  1  0.18018514  0.66695614  0.48773508  1
  In  In30  1  0.71170158  0.16879458  0.84551072  1
  In  In31  1  0.49299309  0.49688185  0.31133409  1
  In  In32  1  -0.01475941  0.49347498  0.16868129  1
  In  In33  1  0.00299552  0.48791899  0.50855050  1
  In  In34  1  0.65879012  0.64771521  0.66680645  1
  In  In35  1  0.67818025  0.18097562  0.19959649  1
  In  In36  1  0.65785716  0.21995244  0.49485329  1
  In  In37  1  0.84124173  0.85620993  0.68163437  1
  In  In38  1  0.66707041  0.49753909  0.16321096  1
  In  In39  1  0.15739403  0.47861700  -0.01474796  1
  In  In40  1  0.70935901  -0.03048899  0.01868022  1
  In  In41  1  0.30221790  0.86980906  0.80226446  1
  In  In42  1  0.48475230  -0.00544942  0.18053664  1
  In  In43  1  0.82450132  0.65575187  0.48415570  1
  In  In44  1  0.50772649  0.65329548  0.15612404  1
  In  In45  1  0.49747551  0.81047810  0.00410918  1
  In  In46  1  0.48261685  0.35920904  0.47359289  1
  In  In47  1  0.01676450  0.18097525  0.48819854  1
  In  In48  1  0.83588843  -0.00740652  0.16560476  1
  In  In49  1  0.52862543  0.14361339  0.02691946  1
  In  In50  1  0.07609275  0.18028566  0.05161388  1
  In  In51  1  0.48208265  0.52184826  0.67119060  1
  In  In52  1  0.31010908  0.35075731  0.64210123  1
  In  In53  1  0.49421048  0.64784016  0.48552150  1
  In  In54  1  0.15214374  0.65371781  0.18106459  1
  In  In55  1  0.32276029  0.34685221  0.06506478  1
  In  In56  1  0.31531806  0.65139457  0.01218166  1
  In  In57  1  0.47512829  0.00967993  0.49372569  1
  In  In58  1  0.14652197  0.32554795  0.81879857  1
  In  In59  1  -0.00494604  -0.00523775  0.31798071  1
  In  In60  1  0.00258384  0.49543196  0.82413999  1
  In  In61  1  0.83354228  0.68329141  0.85559824  1
  In  In62  1  -0.03514967  0.64430644  0.31980793  1
  In  In63  1  0.89270624  0.17652360  0.68146611  1
  In  In64  1  0.69947702  0.04716925  0.64551282  1
  In  In65  1  0.35605342  -0.00940604  -0.00533867  1
  In  In66  1  0.00592821  0.84685179  0.49923838  1
  In  In67  1  0.83096760  0.18555436  0.35511626  1
  In  In68  1  0.82739848  0.00248237  0.47721973  1
  In  In69  1  0.34907007  0.66287342  0.33061116  1
  In  In70  1  0.67691161  0.82622646  0.18036502  1
  In  In71  1  0.17146920  0.84932325  -0.01654989  1
  Te  Te72  1  0.05826615  0.04016106  0.08387823  1
  Te  Te73  1  0.08441782  0.06618553  0.41452370  1
  Te  Te74  1  0.05627389  0.13645641  0.71335071  1
  Te  Te75  1  0.07331932  0.40156568  0.08295040  1
  Te  Te76  1  0.10036886  0.40820503  0.42549951  1
  Te  Te77  1  0.08843562  0.42330227  0.72608263  1
  Te  Te78  1  0.09895918  0.74936463  0.07665503  1
  Te  Te79  1  0.05818214  0.73429403  0.40723144  1
  Te  Te80  1  0.10784529  0.76021621  0.74193219  1
  Te  Te81  1  0.40444181  0.09240121  0.09727499  1
  Te  Te82  1  0.40497344  0.11623115  0.41319352  1
  Te  Te83  1  0.39781852  0.08304199  0.75519993  1
  Te  Te84  1  0.44206127  0.41357147  0.11235859  1
  Te  Te85  1  0.38206818  0.41762871  0.37950869  1
  Te  Te86  1  0.41743602  0.40041074  0.75061107  1
  Te  Te87  1  0.39698289  0.74783173  0.09549087  1
  Te  Te88  1  0.40061454  0.75709730  0.43820842  1
  Te  Te89  1  0.42455600  0.72731958  0.74574902  1
  Te  Te90  1  0.75068585  0.09964786  0.08687673  1
  Te  Te91  1  0.72588465  0.09912126  0.42116500  1
  Te  Te92  1  0.79186274  0.07140174  0.75995093  1
  Te  Te93  1  0.76833994  0.41192224  0.08537417  1
  Te  Te94  1  0.72307533  0.35352118  0.49360470  1
  Te  Te95  1  0.76427529  0.39680532  0.74678245  1
  Te  Te96  1  0.73891920  0.74538876  0.07655562  1
  Te  Te97  1  0.73939129  0.74691244  0.41049084  1
  Te  Te98  1  0.73984216  0.75203141  0.74365365  1
  Te  Te99  1  0.06736804  0.23270641  0.25638418  1
  Te  Te100  1  0.10590132  0.22847361  0.59815140  1
  Te  Te101  1  0.07615949  0.22285307  0.90276348  1
  Te  Te102  1  0.07921903  0.55728470  0.27094815  1
  Te  Te103  1  0.08920449  0.58785877  0.58348804  1
  Te  Te104  1  0.07870988  0.58963642  0.91976479  1
  Te  Te105  1  0.10634815  0.92193866  0.24403188  1
  Te  Te106  1  0.06624242  0.93489408  0.59549964  1
  Te  Te107  1  0.08551469  0.94308564  0.90268322  1
  Te  Te108  1  0.39558510  0.29492719  0.19730278  1
  Te  Te109  1  0.40885286  0.26130687  0.56730966  1
  Te  Te110  1  0.44441697  0.23339703  0.93327925  1
  Te  Te111  1  0.39834790  0.57021879  0.21887658  1
  Te  Te112  1  0.39037158  0.56561760  0.56017602  1
  Te  Te113  1  0.42392957  0.56608024  0.94644052  1
  Te  Te114  1  0.38910186  0.91523733  0.26389452  1
  Te  Te115  1  0.40059516  0.92763958  0.59743454  1
  Te  Te116  1  0.43181896  0.89900765  0.89215894  1
  Te  Te117  1  0.76697086  0.28023725  0.26134653  1
  Te  Te118  1  0.76510725  0.21972897  0.60550101  1
  Te  Te119  1  0.79908401  0.26301525  0.91885198  1
  Te  Te120  1  0.76544516  0.57167762  0.24384616  1
  Te  Te121  1  0.74527418  0.56383622  0.57604371  1
  Te  Te122  1  0.75848476  0.57336308  0.91191949  1
  Te  Te123  1  0.73815647  0.93188315  0.25668832  1
  Te  Te124  1  0.74633623  0.91962028  0.58147505  1
  Te  Te125  1  0.80442540  0.91637187  0.90585183  1
  Te  Te126  1  0.21780818  0.24395384  0.07905287  1
  Te  Te127  1  0.22889982  0.26446557  0.45195010  1
  Te  Te128  1  0.25282091  0.24845638  0.74232138  1
  Te  Te129  1  0.23166029  0.55517970  0.09413816  1
  Te  Te130  1  0.24871500  0.57801931  0.39490549  1
  Te  Te131  1  0.24972506  0.55879185  0.73031922  1
  Te  Te132  1  0.26444166  0.91080611  0.07614227  1
  Te  Te133  1  0.23639351  0.92388388  0.44692358  1
  Te  Te134  1  0.21276125  0.96360232  0.72352686  1
  Te  Te135  1  0.58853947  0.25687452  0.10427848  1
  Te  Te136  1  0.56497118  0.27053342  0.38223569  1
  Te  Te137  1  0.59390143  0.22582048  0.76399520  1
  Te  Te138  1  0.60149015  0.58816265  0.06690033  1
  Te  Te139  1  0.59057487  0.55675482  0.41458394  1
  Te  Te140  1  0.59195110  0.55770011  0.76897352  1
  Te  Te141  1  0.57323950  0.91837589  0.07984114  1
  Te  Te142  1  0.57902772  0.92657540  0.43421130  1
  Te  Te143  1  0.58878404  0.91977841  0.73318875  1
  Te  Te144  1  0.94458985  0.23508143  0.08913159  1
  Te  Te145  1  0.91338078  0.27950130  0.43957129  1
  Te  Te146  1  0.96881243  0.24205453  0.79039171  1
  Te  Te147  1  0.92898558  0.59980398  0.08682125  1
  Te  Te148  1  0.89848530  0.54377048  0.41438665  1
  Te  Te149  1  0.90523290  0.59431499  0.74585031  1
  Te  Te150  1  0.94806621  0.93220719  0.08050175  1
  Te  Te151  1  0.90723933  0.89994406  0.39795059  1
  Te  Te152  1  0.96359897  0.93784430  0.70863467  1
  Te  Te153  1  0.25477158  0.10073365  0.24959768  1
  Te  Te154  1  0.22639803  0.14021380  0.54868266  1
  Te  Te155  1  0.24947870  0.07529482  0.92548094  1
  Te  Te156  1  0.27307068  0.37705717  0.27367336  1
  Te  Te157  1  0.21754916  0.39572700  0.53745004  1
  Te  Te158  1  0.26456297  0.39714526  0.91589438  1
  Te  Te159  1  0.24301587  0.74616840  0.25795301  1
  Te  Te160  1  0.23575381  0.76516591  0.58110585  1
  Te  Te161  1  0.26783894  0.74366270  0.90043673  1
  Te  Te162  1  0.56868476  0.08949220  0.26065014  1
  Te  Te163  1  0.56758291  0.09217440  0.59059662  1
  Te  Te164  1  0.61767104  0.06740502  0.92165921  1
  Te  Te165  1  0.59112581  0.40529704  0.25183654  1
  Te  Te166  1  0.55987139  0.42506455  0.58626404  1
  Te  Te167  1  0.60057749  0.41467914  0.92932002  1
  Te  Te168  1  0.56270908  0.75113260  0.25960854  1
  Te  Te169  1  0.58487251  0.73681621  0.56934805  1
  Te  Te170  1  0.60468448  0.74848542  0.91627051  1
  Te  Te171  1  0.90395008  0.09504118  0.25388621  1
  Te  Te172  1  0.92024133  0.08425306  0.56009113  1
  Te  Te173  1  0.89348146  0.04483930  0.89276186  1
  Te  Te174  1  0.89768994  0.40318202  0.24743284  1
  Te  Te175  1  0.95989949  0.39358947  0.61545878  1
  Te  Te176  1  0.93772597  0.40998409  0.92187811  1
  Te  Te177  1  0.90143258  0.74732119  0.23726190  1
  Te  Te178  1  0.90184735  0.75184595  0.58282723  1
  Te  Te179  1  0.94537474  0.75443260  0.92531149  1
