# generated using pymatgen
data_In2Te3
_symmetry_space_group_name_H-M   'P 1'
_cell_length_a   18.80162484
_cell_length_b   18.81067094
_cell_length_c   18.80059388
_cell_angle_alpha   89.98776683
_cell_angle_beta   90.02008723
_cell_angle_gamma   89.97744820
_symmetry_Int_Tables_number   1
_chemical_formula_structural   In2Te3
_chemical_formula_sum   'In72 Te108'
_cell_volume   6649.22711109
_cell_formula_units_Z   36
loop_
 _symmetry_equiv_pos_site_id
 _symmetry_equiv_pos_as_xyz
  1  'x, y, z'
loop_
 _atom_site_type_symbol
 _atom_site_label
 _atom_site_symmetry_multiplicity
 _atom_site_fract_x
 _atom_site_fract_y
 _atom_site_fract_z
 _atom_site_occupancy
  In  In0  1  0.67842556  0.49073485  0.17980909  1
  In  In1  1  0.33812393  0.83176037  0.83488436  1
  In  In2  1  0.50858601  0.15506429  0.33137711  1
  In  In3  1  0.16472158  0.35231601  0.82700525  1
  In  In4  1  -0.00449810  0.00397903  0.34787798  1
  In  In5  1  0.34218168  0.81651213  0.16622666  1
  In  In6  1  0.67645440  0.68966635  0.32658165  1
  In  In7  1  0.83312259  0.50217323  -0.02325094  1
  In  In8  1  0.84126060  0.83427865  0.34410965  1
  In  In9  1  0.66028975  -0.01187720  -0.00912421  1
  In  In10  1  0.32201456  0.49144270  0.52187732  1
  In  In11  1  0.50588792  0.15785303  0.65251937  1
  In  In12  1  0.15050596  0.50196079  0.64633776  1
  In  In13  1  0.36581865  -0.00086678  0.63676123  1
  In  In14  1  0.32928100  0.00199470  0.00338366  1
  In  In15  1  0.81015727  0.15832215  0.34978459  1
  In  In16  1  0.51669528  0.68171320  0.15892022  1
  In  In17  1  0.32419584  -0.00689498  0.35621932  1
  In  In18  1  0.64493991  0.70602976  -0.03028896  1
  In  In19  1  -0.01115188  0.17304005  0.83581344  1
  In  In20  1  0.15661435  0.16654892  0.67156496  1
  In  In21  1  0.36320836  0.69696354  0.35479111  1
  In  In22  1  0.18474435  0.65998949  0.17834329  1
  In  In23  1  0.67690566  0.71322547  0.64490521  1
  In  In24  1  0.15350288  0.82525400  0.67860204  1
  In  In25  1  0.50045421  0.31730624  0.15320126  1
  In  In26  1  0.00366769  0.66540260  -0.00715127  1
  In  In27  1  0.16503897  0.49233970  0.33730236  1
  In  In28  1  0.15568960  0.67244042  0.50093252  1
  In  In29  1  0.00513400  0.83438612  0.83240854  1
  In  In30  1  0.31098909  0.49795941  0.17195467  1
  In  In31  1  0.51329671  0.00413852  0.16872812  1
  In  In32  1  0.85561023  0.53938912  0.69870166  1
  In  In33  1  0.33926290  0.18745409  0.85130506  1
  In  In34  1  0.53171726  -0.00612268  0.82242086  1
  In  In35  1  0.00321676  0.85108015  0.16388294  1
  In  In36  1  0.67630265  0.83916173  0.17820858  1
  In  In37  1  0.82177347  0.65919555  0.14466430  1
  In  In38  1  0.00798113  0.32045333  0.65986343  1
  In  In39  1  0.32681137  0.16260033  0.17214524  1
  In  In40  1  0.33425730  0.50899069  0.84346095  1
  In  In41  1  0.15962009  0.00740068  0.17563304  1
  In  In42  1  0.85206337  0.32572806  0.19395450  1
  In  In43  1  0.48912944  0.33524118  0.82232503  1
  In  In44  1  0.30680033  0.19795629  0.47310435  1
  In  In45  1  0.84439094  0.16434734  0.01233529  1
  In  In46  1  0.15245595  0.48175290  0.02887111  1
  In  In47  1  0.81159132  -0.00358743  0.83694346  1
  In  In48  1  0.49131499  0.51197681  0.35155555  1
  In  In49  1  0.16117958  0.69033136  0.83547547  1
  In  In50  1  0.83541223  -0.02543512  0.15740392  1
  In  In51  1  0.15716273  -0.01100096  0.49180008  1
  In  In52  1  -0.04255615  0.00853291  0.63728981  1
  In  In53  1  0.15125714  -0.02891848  0.83747559  1
  In  In54  1  0.66515917  0.31108822  0.65152217  1
  In  In55  1  0.48342892  0.32620132  0.47843847  1
  In  In56  1  0.00419659  0.18318675  0.17253373  1
  In  In57  1  0.83218491  0.31722345  0.50335518  1
  In  In58  1  0.34856367  0.67702277  0.67113304  1
  In  In59  1  0.49188181  0.52535706  0.00068391  1
  In  In60  1  0.84259490  0.33780855  0.83716349  1
  In  In61  1  0.01597459  0.66270829  0.33806567  1
  In  In62  1  0.16354532  0.16573185  0.02872155  1
  In  In63  1  0.67116393  0.31989805  0.35158704  1
  In  In64  1  0.50254228  0.51973184  0.67951178  1
  In  In65  1  0.51805247  -0.03574121  0.48467985  1
  In  In66  1  0.66203000  0.31287394  0.00008295  1
  In  In67  1  0.01636815  0.34549717  0.32832074  1
  In  In68  1  0.68020730  0.51040933  0.83112673  1
  In  In69  1  0.68012145  0.49275146  0.49883691  1
  In  In70  1  0.70454388  -0.03744578  0.65883094  1
  In  In71  1  -0.02411339  0.49695355  0.47497723  1
  Te  Te72  1  0.05762459  0.07024521  0.08201563  1
  Te  Te73  1  0.07794516  0.09746550  0.42979157  1
  Te  Te74  1  0.06684815  0.06608585  0.74775643  1
  Te  Te75  1  0.05060846  0.38786928  0.07522775  1
  Te  Te76  1  0.09585496  0.40879363  0.44507179  1
  Te  Te77  1  0.06066114  0.43290203  0.74955154  1
  Te  Te78  1  0.08807580  0.74435213  0.09359078  1
  Te  Te79  1  0.07035884  0.76713793  0.42645088  1
  Te  Te80  1  0.05225552  0.72271615  0.72673225  1
  Te  Te81  1  0.42562920  0.09255126  0.07894881  1
  Te  Te82  1  0.41790574  0.08652098  0.43640475  1
  Te  Te83  1  0.41161343  0.08280724  0.75892863  1
  Te  Te84  1  0.41594844  0.42436990  0.08475100  1
  Te  Te85  1  0.38564935  0.41592608  0.40375801  1
  Te  Te86  1  0.39945080  0.42182764  0.73502980  1
  Te  Te87  1  0.42596872  0.74910593  0.06459607  1
  Te  Te88  1  0.45521552  0.77142072  0.44467750  1
  Te  Te89  1  0.44139983  0.75249121  0.75986485  1
  Te  Te90  1  0.74573925  0.07532634  0.08670591  1
  Te  Te91  1  0.75647819  0.06201415  0.44666397  1
  Te  Te92  1  0.74207852  0.08167301  0.73875736  1
  Te  Te93  1  0.75785999  0.40533333  0.08074772  1
  Te  Te94  1  0.77302458  0.41978217  0.40288091  1
  Te  Te95  1  0.74681202  0.41294740  0.73488192  1
  Te  Te96  1  0.74967252  0.76648540  0.06560832  1
  Te  Te97  1  0.75496919  0.75292523  0.43812432  1
  Te  Te98  1  0.78252878  0.75820696  0.73896709  1
  Te  Te99  1  0.10853818  0.24767218  0.25882051  1
  Te  Te100  1  0.06653638  0.22076270  0.56645904  1
  Te  Te101  1  0.09438960  0.24738165  0.91388123  1
  Te  Te102  1  0.07826405  0.56744270  0.23642470  1
  Te  Te103  1  0.05022878  0.59089138  0.57462180  1
  Te  Te104  1  0.10031554  0.57565031  0.91620282  1
  Te  Te105  1  0.09200449  0.91079982  0.27290574  1
  Te  Te106  1  0.06602263  0.91137843  0.58737129  1
  Te  Te107  1  0.07964310  0.89915891  0.94314121  1
  Te  Te108  1  0.41512215  0.25264729  0.26175028  1
  Te  Te109  1  0.40563531  0.25103943  0.58507018  1
  Te  Te110  1  0.42829667  0.26608197  0.93717939  1
  Te  Te111  1  0.41732827  0.59118748  0.24159458  1
  Te  Te112  1  0.42634855  0.59260627  0.56891451  1
  Te  Te113  1  0.42559916  0.60999209  0.90080030  1
  Te  Te114  1  0.41105420  0.92412839  0.25165294  1
  Te  Te115  1  0.44687464  0.88213800  0.59197116  1
  Te  Te116  1  0.42691534  0.92529909  0.91732861  1
  Te  Te117  1  0.73645179  0.23913899  0.23983293  1
  Te  Te118  1  0.75126835  0.21426829  0.57586698  1
  Te  Te119  1  0.75537151  0.23431911  0.90807880  1
  Te  Te120  1  0.76603191  0.58160374  0.26459828  1
  Te  Te121  1  0.75445361  0.58587916  0.59275331  1
  Te  Te122  1  0.75503556  0.61557962  0.90976722  1
  Te  Te123  1  0.74711522  0.93415567  0.27532641  1
  Te  Te124  1  0.77335183  0.88287392  0.54812671  1
  Te  Te125  1  0.73502253  0.89041075  0.90681314  1
  Te  Te126  1  0.25761826  0.26137185  0.08670494  1
  Te  Te127  1  0.22536533  0.27083908  0.37590435  1
  Te  Te128  1  0.25386748  0.25875818  0.74515982  1
  Te  Te129  1  0.26002392  0.59270787  0.06508059  1
  Te  Te130  1  0.25676485  0.59222620  0.41192350  1
  Te  Te131  1  0.24127803  0.58788272  0.73832532  1
  Te  Te132  1  0.24407191  0.91226403  0.09167094  1
  Te  Te133  1  0.26035325  0.89404867  0.44430555  1
  Te  Te134  1  0.25820274  0.92744171  0.73294134  1
  Te  Te135  1  0.59455071  0.22173161  0.09439953  1
  Te  Te136  1  0.59284635  0.22651452  0.44052112  1
  Te  Te137  1  0.58598353  0.23563220  0.75851032  1
  Te  Te138  1  0.61575505  0.58754206  0.07905613  1
  Te  Te139  1  0.59485742  0.59434465  0.42229342  1
  Te  Te140  1  0.60521923  0.60877333  0.74278779  1
  Te  Te141  1  0.57345793  0.89655072  0.07995848  1
  Te  Te142  1  0.59355433  0.87368812  0.39580632  1
  Te  Te143  1  0.60750959  0.88536915  0.74816963  1
  Te  Te144  1  0.93712336  0.27822988  0.06545651  1
  Te  Te145  1  0.92206016  0.24742613  0.40276394  1
  Te  Te146  1  0.89962213  0.23940313  0.73300548  1
  Te  Te147  1  0.92465910  0.56769364  0.08141960  1
  Te  Te148  1  0.90595477  0.61742371  0.42695078  1
  Te  Te149  1  0.92906353  0.62736786  0.79017206  1
  Te  Te150  1  0.91360991  0.90073300  0.05731199  1
  Te  Te151  1  0.91129995  0.92373430  0.44278757  1
  Te  Te152  1  0.90650913  0.91013437  0.74320159  1
  Te  Te153  1  0.23922822  0.09041678  0.27478457  1
  Te  Te154  1  0.25375572  0.08751159  0.57860818  1
  Te  Te155  1  0.23568746  0.08282350  0.90756427  1
  Te  Te156  1  0.23318635  0.39486809  0.24555574  1
  Te  Te157  1  0.23361385  0.39417122  0.58827747  1
  Te  Te158  1  0.25692418  0.41306291  0.93160776  1
  Te  Te159  1  0.24864228  0.75941958  0.27464642  1
  Te  Te160  1  0.25314550  0.75853598  0.58372779  1
  Te  Te161  1  0.24379478  0.76791282  0.92870071  1
  Te  Te162  1  0.60523437  0.06504174  0.26708266  1
  Te  Te163  1  0.59143303  0.04903554  0.59016916  1
  Te  Te164  1  0.58271795  0.09197405  0.91888121  1
  Te  Te165  1  0.57508758  0.41404670  0.26384095  1
  Te  Te166  1  0.57085543  0.41534112  0.57676934  1
  Te  Te167  1  0.58604260  0.42574782  0.91628963  1
  Te  Te168  1  0.56162689  0.77927496  0.26995548  1
  Te  Te169  1  0.56689138  0.76416209  0.55598675  1
  Te  Te170  1  0.57846956  0.78325487  0.86410544  1
  Te  Te171  1  0.90953973  0.08631754  0.24380952  1
  Te  Te172  1  0.87181207  0.09083392  0.54389255  1
  Te  Te173  1  0.92008196  0.06758483  0.92107838  1
  Te  Te174  1  0.92200006  0.43661988  0.25981554  1
  Te  Te175  1  0.90587199  0.42044732  0.59196561  1
  Te  Te176  1  0.93829937  0.42316346  0.90899975  1
  Te  Te177  1  0.91070769  0.74837552  0.23514100  1
  Te  Te178  1  0.85992234  0.78026750  0.61473852  1
  Te  Te179  1  0.90805692  0.73991148  0.90287839  1
