# generated using pymatgen
data_In2Te3
_symmetry_space_group_name_H-M   'P 1'
_cell_length_a   18.97776880
_cell_length_b   18.98057958
_cell_length_c   18.97717061
_cell_angle_alpha   90.10397314
_cell_angle_beta   90.23233316
_cell_angle_gamma   90.02867863
_symmetry_Int_Tables_number   1
_chemical_formula_structural   In2Te3
_chemical_formula_sum   'In72 Te108'
_cell_volume   6835.68027798
_cell_formula_units_Z   36
loop_
 _symmetry_equiv_pos_site_id
 _symmetry_equiv_pos_as_xyz
  1  'x, y, z'
loop_
 _atom_site_type_symbol
 _atom_site_label
 _atom_site_symmetry_multiplicity
 _atom_site_fract_x
 _atom_site_fract_y
 _atom_site_fract_z
 _atom_site_occupancy
  In  In0  1  0.66997618  0.49705020  0.84841571  1
  In  In1  1  0.02650368  0.33751675  0.01658307  1
  In  In2  1  0.04215255  0.18111332  0.16756607  1
  In  In3  1  0.02863403  0.49005182  0.50084833  1
  In  In4  1  0.32426937  0.63740916  0.32208445  1
  In  In5  1  0.16338905  0.67623468  0.14667258  1
  In  In6  1  0.82394310  0.14121275  0.31625304  1
  In  In7  1  0.83882515  0.34214392  0.16864191  1
  In  In8  1  0.18643091  0.81928407  0.67644039  1
  In  In9  1  0.52656471  0.81570445  0.31935725  1
  In  In10  1  0.00686183  0.66940973  0.32958349  1
  In  In11  1  0.17312103  0.81961464  0.31423731  1
  In  In12  1  0.30029832  0.13516945  0.87471082  1
  In  In13  1  0.18334836  0.47183652  0.67020063  1
  In  In14  1  0.48964933  0.13929068  0.32381132  1
  In  In15  1  0.17864232  0.66878859  0.84754582  1
  In  In16  1  0.49816771  0.16095180  0.00936869  1
  In  In17  1  0.17986483  0.46846564  0.34472554  1
  In  In18  1  0.53243460  0.66861084  0.50322945  1
  In  In19  1  0.49737716  -0.01384343  0.15556157  1
  In  In20  1  0.84817312  0.35051950  0.50615477  1
  In  In21  1  0.48901315  0.33581923  0.83914825  1
  In  In22  1  0.30423555  0.30241651  0.34627994  1
  In  In23  1  0.33962190  0.02601556  0.31708851  1
  In  In24  1  -0.00092007  0.17209386  0.48598028  1
  In  In25  1  0.34629684  0.83933335  0.85747647  1
  In  In26  1  0.46805592  0.64926126  0.87026654  1
  In  In27  1  0.50469762  0.33025127  0.16275594  1
  In  In28  1  0.48060011  0.67853936  0.12553385  1
  In  In29  1  0.34554368  0.49991958  0.13856596  1
  In  In30  1  0.82930526  0.66980667  0.49772032  1
  In  In31  1  0.64718111  0.18224782  0.51541979  1
  In  In32  1  0.66917711  0.51113230  0.16344631  1
  In  In33  1  0.85091425  0.15433416  0.67658130  1
  In  In34  1  0.68807203  -0.00238325  0.67272503  1
  In  In35  1  0.84030674  0.83476188  0.68080996  1
  In  In36  1  0.00343717  0.66030551  -0.01262128  1
  In  In37  1  0.66950488  0.34197709  0.69328217  1
  In  In38  1  0.13100867  0.18547549  0.68145307  1
  In  In39  1  0.18556960  -0.02953320  0.11442213  1
  In  In40  1  0.34057355  0.32672169  0.67643875  1
  In  In41  1  0.69185003  0.34153193  0.33463779  1
  In  In42  1  0.50640121  0.82652797  0.64610913  1
  In  In43  1  -0.14609272  0.87605841  0.45304736  1
  In  In44  1  0.02666692  0.46194291  0.18244313  1
  In  In45  1  0.83788573  0.50866962  0.01158647  1
  In  In46  1  0.28734230  0.18683929  0.14222729  1
  In  In47  1  0.00618231  0.01652363  0.66140992  1
  In  In48  1  0.67055932  -0.01509557  -0.00215980  1
  In  In49  1  0.82706932  0.66676915  0.15032261  1
  In  In50  1  0.16190049  0.01390729  0.49584187  1
  In  In51  1  0.65159424  0.68173764  0.00009187  1
  In  In52  1  0.66690537  -0.01600843  0.32840276  1
  In  In53  1  0.29690232  0.01696470  0.68145004  1
  In  In54  1  0.31614537  0.66819531  0.65330851  1
  In  In55  1  0.14250309  0.67306223  0.49316057  1
  In  In56  1  0.02205903  0.86156533  0.85849130  1
  In  In57  1  -0.04380354  0.64108795  0.67731631  1
  In  In58  1  0.83022943  0.33082128  0.85363790  1
  In  In59  1  0.84426537  0.85472883  -0.01884373  1
  In  In60  1  0.49369669  0.33506548  0.50212143  1
  In  In61  1  -0.02716348  0.86237544  0.15135171  1
  In  In62  1  0.36939628  0.85749074  0.47658369  1
  In  In63  1  0.80805358  0.16160771  0.00103716  1
  In  In64  1  -0.00398424  0.15588168  0.85713546  1
  In  In65  1  0.67156054  0.66117084  0.33039268  1
  In  In66  1  0.52894803  0.48983256  0.68090488  1
  In  In67  1  0.34877321  0.47237414  0.52189438  1
  In  In68  1  0.51005741  0.01571017  0.46837821  1
  In  In69  1  0.49777069  -0.00432801  0.83042393  1
  In  In70  1  0.19831538  0.36194868  0.86108837  1
  In  In71  1  0.71567362  0.65673806  0.68733940  1
  Te  Te72  1  0.08640172  0.07751020  0.06235720  1
  Te  Te73  1  0.08089541  0.08560433  0.39499245  1
  Te  Te74  1  0.09224752  0.07211304  0.77290122  1
  Te  Te75  1  0.13262741  0.41547843  0.08984444  1
  Te  Te76  1  0.06989579  0.38785537  0.39987203  1
  Te  Te77  1  0.09563800  0.41696125  0.77209790  1
  Te  Te78  1  0.06715968  0.76684828  0.07429417  1
  Te  Te79  1  0.06711117  0.78030026  0.41599106  1
  Te  Te80  1  0.08225637  0.75244296  0.76157175  1
  Te  Te81  1  0.40156518  0.09119139  0.10173623  1
  Te  Te82  1  0.39185401  0.10327779  0.43830383  1
  Te  Te83  1  0.39850112  0.09183492  0.76463787  1
  Te  Te84  1  0.40344942  0.38340684  0.06549549  1
  Te  Te85  1  0.40901782  0.40801315  0.40043571  1
  Te  Te86  1  0.40952864  0.43682877  0.75440465  1
  Te  Te87  1  0.39287935  0.76375317  0.04178926  1
  Te  Te88  1  0.42104159  0.73111455  0.40612169  1
  Te  Te89  1  0.40573661  0.75646898  0.73888062  1
  Te  Te90  1  0.76013811  0.05636626  0.09511453  1
  Te  Te91  1  0.72373658  0.09123915  0.42187598  1
  Te  Te92  1  0.75662985  0.08753599  0.76457537  1
  Te  Te93  1  0.74129019  0.41187294  0.07379558  1
  Te  Te94  1  0.75925447  0.43417420  0.42479542  1
  Te  Te95  1  0.77291258  0.44223417  0.74781361  1
  Te  Te96  1  0.75360765  0.77084786  0.07308494  1
  Te  Te97  1  0.76518015  0.76564025  0.39765701  1
  Te  Te98  1  0.75180853  0.76709716  0.77699659  1
  Te  Te99  1  0.09019383  0.28338023  0.26616962  1
  Te  Te100  1  0.05422672  0.26718933  0.58626606  1
  Te  Te101  1  0.09863072  0.25216102  0.91438397  1
  Te  Te102  1  0.11177668  0.58414367  0.26104325  1
  Te  Te103  1  0.08953911  0.59194406  0.60959368  1
  Te  Te104  1  0.08887108  0.57069231  0.91090597  1
  Te  Te105  1  0.09322312  0.91451452  0.22911836  1
  Te  Te106  1  0.09953114  0.91813580  0.59440053  1
  Te  Te107  1  0.09263939  0.94925223  0.95682479  1
  Te  Te108  1  0.40122455  0.23752246  0.24607266  1
  Te  Te109  1  0.43106560  0.24381170  0.59683586  1
  Te  Te110  1  0.39954957  0.23674996  0.92239247  1
  Te  Te111  1  0.43165597  0.57985826  0.23512020  1
  Te  Te112  1  0.42954827  0.58562650  0.59031353  1
  Te  Te113  1  0.36468568  0.57494681  0.94353259  1
  Te  Te114  1  0.42092962  0.90801520  0.26163097  1
  Te  Te115  1  0.40188583  0.93272258  0.60258980  1
  Te  Te116  1  0.40844830  0.94704480  0.93882987  1
  Te  Te117  1  0.74406729  0.24273405  0.23301479  1
  Te  Te118  1  0.75620466  0.25256561  0.59623020  1
  Te  Te119  1  0.72771042  0.24839975  0.91396307  1
  Te  Te120  1  0.77193431  0.57399584  0.25611541  1
  Te  Te121  1  0.75128513  0.57275113  0.57394871  1
  Te  Te122  1  0.75528314  0.59921829  0.92422483  1
  Te  Te123  1  0.77168659  0.90379603  0.26550613  1
  Te  Te124  1  0.76568534  0.91254994  0.57194278  1
  Te  Te125  1  0.74063005  0.90828670  0.89154361  1
  Te  Te126  1  0.19093696  0.27046711  0.06837346  1
  Te  Te127  1  0.18378843  0.21676674  0.36345530  1
  Te  Te128  1  0.24822991  0.24564324  0.76560224  1
  Te  Te129  1  0.25528149  0.59395775  0.06289275  1
  Te  Te130  1  0.25109241  0.57156862  0.44435499  1
  Te  Te131  1  0.25954260  0.57451961  0.75448042  1
  Te  Te132  1  0.29983938  0.88596860  0.06077994  1
  Te  Te133  1  0.24967168  0.92317375  0.40450806  1
  Te  Te134  1  0.23856863  0.91796413  0.77824424  1
  Te  Te135  1  0.59230970  0.24264504  0.08717427  1
  Te  Te136  1  0.57437407  0.24909302  0.39696140  1
  Te  Te137  1  0.56551010  0.25381970  0.74350769  1
  Te  Te138  1  0.57046485  0.57029321  0.06460303  1
  Te  Te139  1  0.58392225  0.57368240  0.40669202  1
  Te  Te140  1  0.57830396  0.60193741  0.76890066  1
  Te  Te141  1  0.59013553  0.89850063  0.08645202  1
  Te  Te142  1  0.58954991  0.89513899  0.43249184  1
  Te  Te143  1  0.58710943  0.90670415  0.74641755  1
  Te  Te144  1  0.92286805  0.24673445  0.08164038  1
  Te  Te145  1  0.89350870  0.24526796  0.40569970  1
  Te  Te146  1  0.92498521  0.25377193  0.76395378  1
  Te  Te147  1  0.94399787  0.57466331  0.10737531  1
  Te  Te148  1  0.93167845  0.58165783  0.42584827  1
  Te  Te149  1  0.87757037  0.55963254  0.76455255  1
  Te  Te150  1  0.89690539  0.96344666  0.07141041  1
  Te  Te151  1  0.88476889  0.96821715  0.34169905  1
  Te  Te152  1  0.92807696  0.93186837  0.75936252  1
  Te  Te153  1  0.23154467  0.07279958  0.22520498  1
  Te  Te154  1  0.22939087  0.11450493  0.58636713  1
  Te  Te155  1  0.21424492  0.05208382  0.96666897  1
  Te  Te156  1  0.27326274  0.41076825  0.24388540  1
  Te  Te157  1  0.24138784  0.37733310  0.56618011  1
  Te  Te158  1  0.30707010  0.43055791  0.93599818  1
  Te  Te159  1  0.27333246  0.74616102  0.22982930  1
  Te  Te160  1  0.25669924  0.76622247  0.54658962  1
  Te  Te161  1  0.24315399  0.76873217  0.93962270  1
  Te  Te162  1  0.59240764  0.07702604  0.23424345  1
  Te  Te163  1  0.57718155  0.07192593  0.59130298  1
  Te  Te164  1  0.58741798  0.08425469  0.91424812  1
  Te  Te165  1  0.58861526  0.42012838  0.25315058  1
  Te  Te166  1  0.60091018  0.41492800  0.57355665  1
  Te  Te167  1  0.56585208  0.42888444  0.92413495  1
  Te  Te168  1  0.59635984  0.73109769  0.21867918  1
  Te  Te169  1  0.62288783  0.74521182  0.59327957  1
  Te  Te170  1  0.55526379  0.75595233  0.91752439  1
  Te  Te171  1  0.94617160  0.09402337  0.24364853  1
  Te  Te172  1  0.90862619  0.07431577  0.56157790  1
  Te  Te173  1  0.90309319  0.07070866  0.93174216  1
  Te  Te174  1  0.91937270  0.41408642  0.26777341  1
  Te  Te175  1  0.94947717  0.40997216  0.59616837  1
  Te  Te176  1  0.92717923  0.41905716  0.93041619  1
  Te  Te177  1  0.91625046  0.75182821  0.24123985  1
  Te  Te178  1  0.92710319  0.75459800  0.58366574  1
  Te  Te179  1  0.92312271  0.75231819  0.89935278  1
