# generated using pymatgen
data_In2Te3
_symmetry_space_group_name_H-M   'P 1'
_cell_length_a   18.79609054
_cell_length_b   18.78781500
_cell_length_c   18.77795072
_cell_angle_alpha   90.00628819
_cell_angle_beta   89.95517003
_cell_angle_gamma   90.03638378
_symmetry_Int_Tables_number   1
_chemical_formula_structural   In2Te3
_chemical_formula_sum   'In72 Te108'
_cell_volume   6631.19463432
_cell_formula_units_Z   36
loop_
 _symmetry_equiv_pos_site_id
 _symmetry_equiv_pos_as_xyz
  1  'x, y, z'
loop_
 _atom_site_type_symbol
 _atom_site_label
 _atom_site_symmetry_multiplicity
 _atom_site_fract_x
 _atom_site_fract_y
 _atom_site_fract_z
 _atom_site_occupancy
  In  In0  1  0.51108860  0.50967080  0.66928582  1
  In  In1  1  0.49273408  0.35386975  0.16748681  1
  In  In2  1  -0.02141274  -0.01577303  0.02026353  1
  In  In3  1  0.32911415  0.01881871  0.32447658  1
  In  In4  1  0.16687574  0.33382960  0.49630242  1
  In  In5  1  0.33163844  0.68665638  0.67454429  1
  In  In6  1  0.67454977  0.83870019  0.86776147  1
  In  In7  1  0.15461780  0.16933175  0.71306229  1
  In  In8  1  0.68475731  0.83589122  0.18059059  1
  In  In9  1  0.84864578  0.82277117  0.66389955  1
  In  In10  1  0.32618673  0.49814336  0.46503314  1
  In  In11  1  0.51415481  0.50586445  0.33102675  1
  In  In12  1  -0.00304171  0.15226396  0.85462458  1
  In  In13  1  0.33392250  0.34271027  0.03138810  1
  In  In14  1  0.84638308  0.15173641  0.65819896  1
  In  In15  1  0.33754924  0.82720843  0.16142474  1
  In  In16  1  0.15391929  0.48806962  0.01251577  1
  In  In17  1  -0.01920914  0.50144020  0.83972144  1
  In  In18  1  0.67128127  0.36096532  0.67399953  1
  In  In19  1  0.68293031  0.50290405  0.48127294  1
  In  In20  1  0.47635918  0.16782962  0.64874869  1
  In  In21  1  0.51565592  0.66175662  0.50124631  1
  In  In22  1  0.52478115  0.01492952  0.16011401  1
  In  In23  1  0.70425576  -0.01078321  0.03731756  1
  In  In24  1  0.66608744  0.65491193  0.00502019  1
  In  In25  1  0.32977775  0.18914540  0.49137646  1
  In  In26  1  0.13611293  0.00910258  0.17482994  1
  In  In27  1  0.68131861  0.18667589  0.83955777  1
  In  In28  1  -0.03654255  0.35164631  0.29653767  1
  In  In29  1  -0.01146389  0.67522501  0.33140115  1
  In  In30  1  0.83344854  0.64770226  0.85224587  1
  In  In31  1  0.14298477  0.84146343  0.32343130  1
  In  In32  1  0.81163257  0.68804844  0.47543382  1
  In  In33  1  0.34243408  0.65735925  0.00318685  1
  In  In34  1  0.16395792  0.29270635  0.83684737  1
  In  In35  1  -0.02157673  0.50525310  0.49385809  1
  In  In36  1  0.82057271  0.33104883  0.84922518  1
  In  In37  1  0.34663997  0.81555638  0.84026125  1
  In  In38  1  0.82741379  0.66586155  0.16621264  1
  In  In39  1  0.33893969  0.63223360  0.33380796  1
  In  In40  1  0.33487246  -0.00238155  0.65265012  1
  In  In41  1  0.14692303  0.84872828  0.67100979  1
  In  In42  1  -0.00815795  0.83447260  0.83196707  1
  In  In43  1  0.51229174  -0.01584689  0.84038764  1
  In  In44  1  0.30267747  0.16903084  0.83611344  1
  In  In45  1  0.51396684  -0.02809921  0.48923862  1
  In  In46  1  0.52782104  0.82206531  0.32330186  1
  In  In47  1  0.66475413  0.16671032  0.47122042  1
  In  In48  1  0.51602284  0.17593290  0.31074168  1
  In  In49  1  0.14340154  0.18208590  0.34546624  1
  In  In50  1  0.17835796  0.68509273  0.83079485  1
  In  In51  1  -0.01227993  0.66909915  0.02084141  1
  In  In52  1  0.65783157  0.66770842  0.66132593  1
  In  In53  1  0.82758723  0.34132409  0.49602165  1
  In  In54  1  0.33542364  0.83468803  0.51231349  1
  In  In55  1  0.68003968  0.16311471  0.18069129  1
  In  In56  1  0.14403090  0.50539925  0.64707539  1
  In  In57  1  0.15985281  0.32570140  0.17703733  1
  In  In58  1  0.52420006  0.35325516  0.85529196  1
  In  In59  1  0.16887941  0.49549088  0.31376007  1
  In  In60  1  0.35263119  0.50182316  0.85263547  1
  In  In61  1  0.14607400  0.01063403  0.84122064  1
  In  In62  1  0.68070888  0.34414930  0.01054683  1
  In  In63  1  0.15762945  0.66320200  0.15831714  1
  In  In64  1  0.00344596  0.33482058  0.65003616  1
  In  In65  1  0.84414981  0.13158466  0.32766945  1
  In  In66  1  0.14588671  -0.00819927  0.51696624  1
  In  In67  1  0.32799205  -0.00050568  -0.00870843  1
  In  In68  1  0.68208286  0.50765615  0.16504603  1
  In  In69  1  0.69447720  -0.01673326  0.64978138  1
  In  In70  1  0.49471782  0.15576181  -0.00488303  1
  In  In71  1  -0.01198371  0.13159769  0.48731189  1
  Te  Te72  1  0.05947142  0.09377520  0.08126088  1
  Te  Te73  1  0.07788089  0.05124857  0.39278340  1
  Te  Te74  1  0.05088669  0.06088276  0.73461278  1
  Te  Te75  1  0.05873795  0.41248226  0.10102653  1
  Te  Te76  1  0.06874715  0.41153251  0.40686317  1
  Te  Te77  1  0.08585559  0.40878852  0.75839922  1
  Te  Te78  1  0.08243674  0.76531838  0.08272133  1
  Te  Te79  1  0.06095631  0.76950781  0.42323488  1
  Te  Te80  1  0.06761428  0.73682701  0.74056141  1
  Te  Te81  1  0.40473256  0.08485343  0.09561490  1
  Te  Te82  1  0.42436982  0.08058535  0.42900654  1
  Te  Te83  1  0.41245431  0.07657557  0.76673876  1
  Te  Te84  1  0.44408574  0.43641932  0.05409913  1
  Te  Te85  1  0.42310384  0.41003887  0.39928175  1
  Te  Te86  1  0.42607845  0.41278455  0.75250563  1
  Te  Te87  1  0.42986657  0.73393688  0.09702053  1
  Te  Te88  1  0.41403932  0.75144885  0.41064049  1
  Te  Te89  1  0.44155622  0.74836795  0.74936983  1
  Te  Te90  1  0.78797336  0.09101031  0.10574017  1
  Te  Te91  1  0.77277451  0.06767254  0.44595758  1
  Te  Te92  1  0.75311959  0.08011800  0.75645699  1
  Te  Te93  1  0.77511944  0.39526389  0.11560031  1
  Te  Te94  1  0.75235199  0.40923561  0.38993818  1
  Te  Te95  1  0.75373755  0.43625742  0.76852881  1
  Te  Te96  1  0.75788082  0.76070029  0.06795075  1
  Te  Te97  1  0.74578960  0.80168669  0.40219689  1
  Te  Te98  1  0.75337388  0.74728945  0.76247791  1
  Te  Te99  1  0.04538008  0.23615008  0.24147050  1
  Te  Te100  1  0.08364555  0.22909263  0.57457499  1
  Te  Te101  1  0.06817413  0.24978769  0.94662793  1
  Te  Te102  1  0.06330987  0.57578746  0.23937457  1
  Te  Te103  1  0.06375542  0.59964554  0.56978455  1
  Te  Te104  1  0.08833152  0.59255795  0.91779330  1
  Te  Te105  1  0.05065142  0.88708401  0.21328643  1
  Te  Te106  1  0.04747921  0.89427545  0.56932473  1
  Te  Te107  1  0.08329498  0.90701541  0.93063642  1
  Te  Te108  1  0.41599746  0.24055853  0.22507388  1
  Te  Te109  1  0.42263165  0.27642183  0.56631361  1
  Te  Te110  1  0.41297279  0.25380051  0.91160281  1
  Te  Te111  1  0.43065531  0.58047752  0.23176526  1
  Te  Te112  1  0.40500797  0.58616779  0.57514483  1
  Te  Te113  1  0.43889312  0.61257938  0.89730860  1
  Te  Te114  1  0.42736046  0.92381589  0.25523490  1
  Te  Te115  1  0.43991170  0.89959693  0.60282349  1
  Te  Te116  1  0.43035762  0.89988334  0.93802957  1
  Te  Te117  1  0.77229350  0.24474560  0.26341141  1
  Te  Te118  1  0.74437837  0.24658310  0.59119820  1
  Te  Te119  1  0.77001620  0.23160248  0.95429285  1
  Te  Te120  1  0.73619009  0.60333410  0.26708119  1
  Te  Te121  1  0.75938729  0.58725869  0.58198753  1
  Te  Te122  1  0.75624876  0.55373887  0.93883241  1
  Te  Te123  1  0.77951749  0.90975223  0.27124399  1
  Te  Te124  1  0.75691927  0.88290843  0.55815099  1
  Te  Te125  1  0.77823992  0.93181443  0.92143702  1
  Te  Te126  1  0.23301882  0.24611514  0.07318240  1
  Te  Te127  1  0.25772532  0.27528038  0.38830001  1
  Te  Te128  1  0.27039185  0.26642596  0.72319133  1
  Te  Te129  1  0.25702503  0.56676915  0.09435716  1
  Te  Te130  1  0.21656275  0.59478910  0.42010494  1
  Te  Te131  1  0.25054165  0.57602304  0.74965958  1
  Te  Te132  1  0.24345910  0.92506551  0.09503127  1
  Te  Te133  1  0.25161730  0.92248490  0.41789360  1
  Te  Te134  1  0.25484426  0.92161311  0.76256955  1
  Te  Te135  1  0.58423701  0.24296173  0.08268583  1
  Te  Te136  1  0.57474114  0.26548155  0.41240129  1
  Te  Te137  1  0.57670337  0.24890492  0.74611195  1
  Te  Te138  1  0.57271051  0.58711017  0.10143251  1
  Te  Te139  1  0.61106642  0.60905267  0.39555463  1
  Te  Te140  1  0.59459001  0.58260665  0.76478044  1
  Te  Te141  1  0.58415455  0.90407075  0.07793004  1
  Te  Te142  1  0.62153013  0.90253744  0.41114035  1
  Te  Te143  1  0.60179144  0.90692855  0.74636423  1
  Te  Te144  1  0.95979328  0.30013351  0.04876810  1
  Te  Te145  1  0.92728985  0.25473329  0.41915810  1
  Te  Te146  1  0.92221173  0.25277264  0.75477944  1
  Te  Te147  1  0.91013119  0.56334593  0.09126716  1
  Te  Te148  1  0.88838406  0.57790440  0.39668532  1
  Te  Te149  1  0.92114213  0.59458468  0.74402697  1
  Te  Te150  1  0.90787109  0.91176093  0.13278040  1
  Te  Te151  1  0.89017935  0.97727006  0.35949638  1
  Te  Te152  1  0.91151656  0.92692373  0.74986243  1
  Te  Te153  1  0.23569399  0.10554147  0.24584624  1
  Te  Te154  1  0.24239555  0.09452309  0.58134701  1
  Te  Te155  1  0.22034782  0.09687018  0.94291744  1
  Te  Te156  1  0.26336355  0.41807349  0.23225737  1
  Te  Te157  1  0.25455131  0.42267633  0.58222342  1
  Te  Te158  1  0.24311734  0.40989017  0.91273276  1
  Te  Te159  1  0.24696087  0.74662040  0.26232078  1
  Te  Te160  1  0.22917409  0.75144602  0.58234499  1
  Te  Te161  1  0.24615582  0.76187988  0.94228013  1
  Te  Te162  1  0.61170442  0.06211454  0.27529076  1
  Te  Te163  1  0.58525234  0.07956960  0.58585954  1
  Te  Te164  1  0.60375269  0.07539181  0.92452987  1
  Te  Te165  1  0.60407997  0.40612458  0.25433358  1
  Te  Te166  1  0.58316678  0.42240020  0.56610980  1
  Te  Te167  1  0.61598655  0.44742910  0.92332208  1
  Te  Te168  1  0.59080917  0.72917289  0.22722513  1
  Te  Te169  1  0.59189884  0.76528214  0.57220017  1
  Te  Te170  1  0.57868272  0.73635711  0.91440464  1
  Te  Te171  1  0.91812195  0.04657328  0.22514227  1
  Te  Te172  1  0.90403512  0.04415793  0.57333689  1
  Te  Te173  1  0.89772352  0.06574882  0.92215080  1
  Te  Te174  1  0.88735107  0.44833586  0.21430577  1
  Te  Te175  1  0.89660103  0.42950008  0.60105531  1
  Te  Te176  1  0.91933525  0.40689447  0.93869274  1
  Te  Te177  1  0.90740411  0.76725509  0.24477449  1
  Te  Te178  1  0.92220504  0.74752964  0.55686105  1
  Te  Te179  1  0.90311988  0.75917244  0.93149544  1
