# generated using pymatgen
data_In2Te3
_symmetry_space_group_name_H-M   'P 1'
_cell_length_a   18.78758267
_cell_length_b   18.79104375
_cell_length_c   18.79830007
_cell_angle_alpha   89.99140595
_cell_angle_beta   89.99361122
_cell_angle_gamma   89.96969171
_symmetry_Int_Tables_number   1
_chemical_formula_structural   In2Te3
_chemical_formula_sum   'In72 Te108'
_cell_volume   6636.51862832
_cell_formula_units_Z   36
loop_
 _symmetry_equiv_pos_site_id
 _symmetry_equiv_pos_as_xyz
  1  'x, y, z'
loop_
 _atom_site_type_symbol
 _atom_site_label
 _atom_site_symmetry_multiplicity
 _atom_site_fract_x
 _atom_site_fract_y
 _atom_site_fract_z
 _atom_site_occupancy
  In  In0  1  0.82337556  0.35201887  0.47111319  1
  In  In1  1  0.83908211  0.51290583  0.66284722  1
  In  In2  1  0.16886785  0.84812499  0.66443727  1
  In  In3  1  0.67074116  -0.01114871  0.32739310  1
  In  In4  1  0.83705093  0.82773067  0.64734845  1
  In  In5  1  0.49186419  0.34198419  0.47145639  1
  In  In6  1  0.63988340  0.81879330  0.85734859  1
  In  In7  1  0.83959775  0.33902766  0.83296634  1
  In  In8  1  0.68382868  0.16244561  0.82397323  1
  In  In9  1  0.16027745  0.65512049  0.86069781  1
  In  In10  1  0.84959033  0.35109108  0.17138690  1
  In  In11  1  0.17662958  0.33635190  0.16064258  1
  In  In12  1  0.48401733  0.83717663  0.67250892  1
  In  In13  1  0.67172698  0.16471477  0.14482817  1
  In  In14  1  0.49537352  0.50157837  0.66495226  1
  In  In15  1  -0.00711520  0.67070494  0.31319436  1
  In  In16  1  0.32819096  0.15800353  0.50875617  1
  In  In17  1  0.65637412  0.48543029  0.86999377  1
  In  In18  1  0.83488814  -0.01243608  0.50500028  1
  In  In19  1  0.02605106  0.15848202  0.14403361  1
  In  In20  1  0.86108620  0.01808297  0.85801727  1
  In  In21  1  0.33488139  0.16450916  0.17574811  1
  In  In22  1  0.83594976  0.53361050  0.04381011  1
  In  In23  1  0.16853644  0.49876559  0.01025694  1
  In  In24  1  0.00140094  -0.00283935  0.35150212  1
  In  In25  1  0.50350653  0.66564023  0.47207605  1
  In  In26  1  0.14810156  0.52230629  0.31739800  1
  In  In27  1  0.03124115  0.35145199  0.69667901  1
  In  In28  1  0.16625027  0.66905651  0.51180901  1
  In  In29  1  0.17215341  0.84274924  0.33253507  1
  In  In30  1  0.15967001  -0.00556318  0.49586886  1
  In  In31  1  -0.01755614  0.51268312  0.48796237  1
  In  In32  1  -0.01335274  0.33908182  0.30448871  1
  In  In33  1  0.33779221  0.53304073  0.87855880  1
  In  In34  1  0.01485245  0.00061287  0.67081559  1
  In  In35  1  0.48805560  0.14361751  0.67568298  1
  In  In36  1  0.64043979  0.34609231  -0.02122719  1
  In  In37  1  0.52532861  0.80972452  0.04203805  1
  In  In38  1  -0.00019497  0.80916550  0.15079910  1
  In  In39  1  0.48263642  -0.00360825  0.83648361  1
  In  In40  1  0.84288904  0.17168591  0.33072063  1
  In  In41  1  -0.00069136  0.33043129  -0.00854665  1
  In  In42  1  0.83502274  0.65372377  0.83427025  1
  In  In43  1  0.50271962  0.80949549  0.29546787  1
  In  In44  1  0.62353009  0.17541078  0.48534850  1
  In  In45  1  0.66345599  -0.03236816  0.00527299  1
  In  In46  1  0.01710164  0.85236807  0.86518757  1
  In  In47  1  0.15552655  0.16111002  0.69362256  1
  In  In48  1  0.35038347  0.47552708  0.49030327  1
  In  In49  1  0.31553405  0.82387623  0.84368464  1
  In  In50  1  0.33870894  0.35323572  0.34560455  1
  In  In51  1  0.17176629  0.32475440  0.50526259  1
  In  In52  1  0.48739601  0.17277244  0.00109896  1
  In  In53  1  0.65823046  0.32403064  0.65610735  1
  In  In54  1  0.32566468  -0.00770247  0.00710756  1
  In  In55  1  0.36832349  0.51106007  0.12643060  1
  In  In56  1  0.50827831  0.18240157  0.33656740  1
  In  In57  1  0.65562855  0.64935084  0.66800878  1
  In  In58  1  0.82247906  -0.02138776  0.16061372  1
  In  In59  1  0.16834753  0.16401583  0.00355744  1
  In  In60  1  -0.01492020  0.67310650  0.67301712  1
  In  In61  1  0.49053121  0.34724820  0.87089398  1
  In  In62  1  0.69062635  0.79339428  0.45649825  1
  In  In63  1  0.68487851  0.51521041  0.46077187  1
  In  In64  1  0.50250258  -0.00314365  0.50853838  1
  In  In65  1  0.30726459  0.66677783  0.68944346  1
  In  In66  1  0.31158257  0.32159511  0.67591609  1
  In  In67  1  0.34310818  0.66585094  0.31503269  1
  In  In68  1  0.84612552  0.16894686  0.67128852  1
  In  In69  1  0.81979910  0.79002902  0.02180358  1
  In  In70  1  0.17122830  0.01633120  0.14963686  1
  In  In71  1  0.33640290  0.82691212  0.16749907  1
  Te  Te72  1  0.05132757  0.05253428  0.02745456  1
  Te  Te73  1  0.08444204  0.09649450  0.41878646  1
  Te  Te74  1  0.08096920  0.06858873  0.78260394  1
  Te  Te75  1  0.06449231  0.41660214  0.09917012  1
  Te  Te76  1  0.08720162  0.41919903  0.41353735  1
  Te  Te77  1  0.10678874  0.45440655  0.76422392  1
  Te  Te78  1  0.06144912  0.70366766  0.06264607  1
  Te  Te79  1  0.08150634  0.74780351  0.41220057  1
  Te  Te80  1  0.08928793  0.75119514  0.75652931  1
  Te  Te81  1  0.42473546  0.06979720  0.09465303  1
  Te  Te82  1  0.41948473  0.08310692  0.41168941  1
  Te  Te83  1  0.38785365  0.08995293  0.76908416  1
  Te  Te84  1  0.43026232  0.39626281  0.05799769  1
  Te  Te85  1  0.45236220  0.45500933  0.37839085  1
  Te  Te86  1  0.40908223  0.41661809  0.75599366  1
  Te  Te87  1  0.40867141  0.72175376  0.08537285  1
  Te  Te88  1  0.40551800  0.76539042  0.41212940  1
  Te  Te89  1  0.41929129  0.73514362  0.76547160  1
  Te  Te90  1  0.76008185  0.07546804  0.05911910  1
  Te  Te91  1  0.74411171  0.09099477  0.41834242  1
  Te  Te92  1  0.76576116  0.06076759  0.74451532  1
  Te  Te93  1  0.74397942  0.41061052  0.07528880  1
  Te  Te94  1  0.76236207  0.43254975  0.36221071  1
  Te  Te95  1  0.73702844  0.42499834  0.74601052  1
  Te  Te96  1  0.71292836  0.73687822  0.11071465  1
  Te  Te97  1  0.78323666  0.70659836  0.38166956  1
  Te  Te98  1  0.74414698  0.74555072  0.75040436  1
  Te  Te99  1  0.09482929  0.24329739  0.25075274  1
  Te  Te100  1  0.07612258  0.24753035  0.59321900  1
  Te  Te101  1  0.10845676  0.26801744  0.91218106  1
  Te  Te102  1  0.07223755  0.59483264  0.21017053  1
  Te  Te103  1  0.07585329  0.57563102  0.59052439  1
  Te  Te104  1  0.06055156  0.57984602  0.94255470  1
  Te  Te105  1  0.07688874  0.92322741  0.23107691  1
  Te  Te106  1  0.06311674  0.89855120  0.56794073  1
  Te  Te107  1  0.11154810  0.91412867  0.95772560  1
  Te  Te108  1  0.42220277  0.27012992  0.24639100  1
  Te  Te109  1  0.42647204  0.26065315  0.58268163  1
  Te  Te110  1  0.40337424  0.23055671  0.89436249  1
  Te  Te111  1  0.44073303  0.58670461  0.23435094  1
  Te  Te112  1  0.40655124  0.59395715  0.58116435  1
  Te  Te113  1  0.41636421  0.62941241  0.95765575  1
  Te  Te114  1  0.41739449  0.91977361  0.24751952  1
  Te  Te115  1  0.40304230  0.93318067  0.59651106  1
  Te  Te116  1  0.43033073  0.89514488  0.93791701  1
  Te  Te117  1  0.75151912  0.25325638  0.24083107  1
  Te  Te118  1  0.75467792  0.24360810  0.57051273  1
  Te  Te119  1  0.75356471  0.25177560  0.92407590  1
  Te  Te120  1  0.72972278  0.58798614  0.18428364  1
  Te  Te121  1  0.75937970  0.59925151  0.56785887  1
  Te  Te122  1  0.74104011  0.59382207  0.93795443  1
  Te  Te123  1  0.75835632  0.88979789  0.25992000  1
  Te  Te124  1  0.72830081  0.89840723  0.56776861  1
  Te  Te125  1  0.76134997  0.89653448  0.91120460  1
  Te  Te126  1  0.27064212  0.25648258  0.07235288  1
  Te  Te127  1  0.25179074  0.24183239  0.40572249  1
  Te  Te128  1  0.21715840  0.26979716  0.77797694  1
  Te  Te129  1  0.25356175  0.59476031  0.08700637  1
  Te  Te130  1  0.25314974  0.58012691  0.41842520  1
  Te  Te131  1  0.23108093  0.55268467  0.75846066  1
  Te  Te132  1  0.22651102  0.89281107  0.07519442  1
  Te  Te133  1  0.26169605  0.92603893  0.41294921  1
  Te  Te134  1  0.24142120  0.92507486  0.76667835  1
  Te  Te135  1  0.56969758  0.26452502  0.09144558  1
  Te  Te136  1  0.60754148  0.29015601  0.38620469  1
  Te  Te137  1  0.57424807  0.25306792  0.76154549  1
  Te  Te138  1  0.58698832  0.58123543  0.12421976  1
  Te  Te139  1  0.59866446  0.60304524  0.37814333  1
  Te  Te140  1  0.57300427  0.57663225  0.77244297  1
  Te  Te141  1  0.58415037  0.92123859  0.11973114  1
  Te  Te142  1  0.57900147  0.90124615  0.41438598  1
  Te  Te143  1  0.58604161  0.91803580  0.75414594  1
  Te  Te144  1  0.91376897  0.24189556  0.08256460  1
  Te  Te145  1  0.93219018  0.25546309  0.42118156  1
  Te  Te146  1  0.93799620  0.24457494  0.76596816  1
  Te  Te147  1  0.93159963  0.63379835  0.10789630  1
  Te  Te148  1  0.89197436  0.59250310  0.39748672  1
  Te  Te149  1  0.93677454  0.56052434  0.76841257  1
  Te  Te150  1  0.91328834  0.90329001  0.06441725  1
  Te  Te151  1  0.90408045  0.90246360  0.40711089  1
  Te  Te152  1  0.91864064  0.90401110  0.75211073  1
  Te  Te153  1  0.24685717  0.07919655  0.25780995  1
  Te  Te154  1  0.24199684  0.07476953  0.59952124  1
  Te  Te155  1  0.25131688  0.07884150  0.91444749  1
  Te  Te156  1  0.25607517  0.43753738  0.24510582  1
  Te  Te157  1  0.24374778  0.42863983  0.58950137  1
  Te  Te158  1  0.26885185  0.41721373  0.93593627  1
  Te  Te159  1  0.23252937  0.73817126  0.23900871  1
  Te  Te160  1  0.26477231  0.76432723  0.57893362  1
  Te  Te161  1  0.25423802  0.73344309  0.94395629  1
  Te  Te162  1  0.58624907  0.08665532  0.24549791  1
  Te  Te163  1  0.60031045  0.07635348  0.59963493  1
  Te  Te164  1  0.59084182  0.08207420  0.91740316  1
  Te  Te165  1  0.63705795  0.46207836  0.19493653  1
  Te  Te166  1  0.59252398  0.43166334  0.56804543  1
  Te  Te167  1  0.53397974  0.46629322  0.96866864  1
  Te  Te168  1  0.61093785  0.73281434  0.23046486  1
  Te  Te169  1  0.57769007  0.74782894  0.58022351  1
  Te  Te170  1  0.57389220  0.71364563  0.93601970  1
  Te  Te171  1  0.91945804  0.08093797  0.23454949  1
  Te  Te172  1  0.92957799  0.08486046  0.57462748  1
  Te  Te173  1  0.94086268  0.11193009  0.93496334  1
  Te  Te174  1  0.90744445  0.45703378  0.25957007  1
  Te  Te175  1  0.91646148  0.40495283  0.58739289  1
  Te  Te176  1  0.89875717  0.43221214  0.93632474  1
  Te  Te177  1  0.89326505  0.76432687  0.24875200  1
  Te  Te178  1  0.91814446  0.74115335  0.56091537  1
  Te  Te179  1  0.92598715  0.74110825  0.91941102  1
