# generated using pymatgen
data_In2Te3
_symmetry_space_group_name_H-M   'P 1'
_cell_length_a   18.79291654
_cell_length_b   18.80219858
_cell_length_c   18.79203312
_cell_angle_alpha   89.93540737
_cell_angle_beta   90.00555939
_cell_angle_gamma   90.01412002
_symmetry_Int_Tables_number   1
_chemical_formula_structural   In2Te3
_chemical_formula_sum   'In72 Te108'
_cell_volume   6640.12565886
_cell_formula_units_Z   36
loop_
 _symmetry_equiv_pos_site_id
 _symmetry_equiv_pos_as_xyz
  1  'x, y, z'
loop_
 _atom_site_type_symbol
 _atom_site_label
 _atom_site_symmetry_multiplicity
 _atom_site_fract_x
 _atom_site_fract_y
 _atom_site_fract_z
 _atom_site_occupancy
  In  In0  1  0.66540029  0.67935920  0.01787295  1
  In  In1  1  0.31873318  0.34296261  0.34662644  1
  In  In2  1  0.50110460  0.66396655  0.49068066  1
  In  In3  1  0.50125441  0.33879335  0.81917404  1
  In  In4  1  0.50954717  0.84510564  0.32929660  1
  In  In5  1  0.66817031  0.66603936  0.66738051  1
  In  In6  1  0.32250480  0.49376405  0.47600877  1
  In  In7  1  0.50671069  0.16595709  0.64563543  1
  In  In8  1  0.53299650  -0.00246311  0.83939764  1
  In  In9  1  0.16240692  0.83024765  0.34419949  1
  In  In10  1  -0.01601565  0.82241194  0.17330415  1
  In  In11  1  0.02962439  -0.00982281  0.64551335  1
  In  In12  1  0.33263501  0.83745291  0.50714432  1
  In  In13  1  0.52216096  0.48387096  0.65291184  1
  In  In14  1  0.85749266  0.50207784  0.00056015  1
  In  In15  1  0.16719697  -0.01029175  0.18459209  1
  In  In16  1  0.67859950  -0.00270145  0.00784204  1
  In  In17  1  0.14705479  0.16902080  0.64699397  1
  In  In18  1  0.35920396  0.35843716  -0.01711219  1
  In  In19  1  0.84177549  0.50482789  0.65908081  1
  In  In20  1  -0.00061324  0.81895801  0.84501313  1
  In  In21  1  0.81989793  -0.01619634  0.83978947  1
  In  In22  1  0.00184403  0.15896923  0.18906143  1
  In  In23  1  0.18716951  0.51490732  0.01368430  1
  In  In24  1  0.34704025  -0.01396743  0.66726230  1
  In  In25  1  0.33128432  0.18445403  0.83862753  1
  In  In26  1  0.36907451  0.50650327  0.83016558  1
  In  In27  1  0.49925173  0.52887052  0.00028017  1
  In  In28  1  -0.01043921  0.18104602  0.49531420  1
  In  In29  1  0.81751213  0.01734940  0.46484983  1
  In  In30  1  -0.00442811  0.65363160  0.65384107  1
  In  In31  1  0.65290716  0.00856348  0.66277476  1
  In  In32  1  0.82423317  0.63576526  0.48500727  1
  In  In33  1  -0.01825985  0.49575484  0.47413411  1
  In  In34  1  0.79802128  0.32132008  0.47014250  1
  In  In35  1  0.50857378  0.83532733  -0.01827972  1
  In  In36  1  0.16468989  0.31799053  0.17544936  1
  In  In37  1  0.35104882  0.16925505  0.17061447  1
  In  In38  1  0.33648780  -0.00417192  0.04026082  1
  In  In39  1  -0.02179930  0.50008822  0.82255201  1
  In  In40  1  0.15080195  0.51860140  0.34354498  1
  In  In41  1  0.66389748  0.84355347  0.49300567  1
  In  In42  1  -0.01926119  0.67179413  0.01886669  1
  In  In43  1  0.16759195  -0.00555875  0.49629432  1
  In  In44  1  0.83484889  0.81538719  0.67004580  1
  In  In45  1  0.34267179  0.52284493  0.14650690  1
  In  In46  1  -0.03642886  0.15793661  0.82707008  1
  In  In47  1  0.83230352  0.17697476  0.67164394  1
  In  In48  1  0.53762395  0.31488272  0.19787166  1
  In  In49  1  0.15618982  0.67519432  0.83828865  1
  In  In50  1  0.15273919  0.32651621  0.80809754  1
  In  In51  1  0.33406631  0.68514295  0.66486576  1
  In  In52  1  0.67965571  0.83532036  0.17100856  1
  In  In53  1  0.15768780  0.17490072  0.33242705  1
  In  In54  1  0.17549833  0.50517494  0.64154392  1
  In  In55  1  0.32362513  0.82905921  0.82148178  1
  In  In56  1  0.83930711  -0.00471101  0.18069646  1
  In  In57  1  0.37467869  0.15069963  0.47629751  1
  In  In58  1  -0.00636508  0.50332470  0.19535967  1
  In  In59  1  -0.00516918  0.33412342  -0.00725070  1
  In  In60  1  0.51919408  0.50239336  0.32245063  1
  In  In61  1  0.82274675  0.15789320  0.00020875  1
  In  In62  1  0.65577723  0.33246899  0.64565360  1
  In  In63  1  0.50389146  0.66486137  0.17674860  1
  In  In64  1  0.66833053  0.50456687  0.82378088  1
  In  In65  1  0.16923230  -0.03042608  0.84264543  1
  In  In66  1  0.51544231  0.02700899  0.19902676  1
  In  In67  1  0.82234989  0.33417293  0.19804948  1
  In  In68  1  0.16139407  0.14749753  0.02884974  1
  In  In69  1  0.32222359  0.82089730  0.17990115  1
  In  In70  1  0.68226147  0.31818915  0.01222360  1
  In  In71  1  0.83942716  0.84411856  0.33201609  1
  Te  Te72  1  0.05991871  0.05600271  0.09174831  1
  Te  Te73  1  0.07208424  0.07837849  0.41303800  1
  Te  Te74  1  0.08884201  0.08286913  0.76215099  1
  Te  Te75  1  0.08033194  0.42054065  0.08510379  1
  Te  Te76  1  0.09118325  0.40889104  0.42177910  1
  Te  Te77  1  0.07051734  0.42709049  0.72679687  1
  Te  Te78  1  0.08336370  0.74251407  0.09614700  1
  Te  Te79  1  0.07812160  0.76851568  0.44762485  1
  Te  Te80  1  0.08072237  0.75361260  0.73186380  1
  Te  Te81  1  0.44575410  0.09457140  0.07779291  1
  Te  Te82  1  0.45771771  0.07069516  0.38398002  1
  Te  Te83  1  0.42132562  0.08809852  0.75640425  1
  Te  Te84  1  0.43806212  0.40815684  0.10371603  1
  Te  Te85  1  0.43863711  0.41186711  0.41669612  1
  Te  Te86  1  0.40512518  0.40639056  0.72362354  1
  Te  Te87  1  0.42397975  0.75577547  0.08446482  1
  Te  Te88  1  0.41392305  0.75323499  0.40490726  1
  Te  Te89  1  0.42978986  0.76214361  0.74511239  1
  Te  Te90  1  0.74145175  0.09146669  0.11050789  1
  Te  Te91  1  0.73116124  0.11954854  0.39813996  1
  Te  Te92  1  0.74322135  0.08731463  0.75847258  1
  Te  Te93  1  0.75973568  0.42269184  0.09016096  1
  Te  Te94  1  0.76404564  0.44630324  0.38104361  1
  Te  Te95  1  0.75064963  0.40952037  0.73915092  1
  Te  Te96  1  0.77351797  0.75327865  0.09136335  1
  Te  Te97  1  0.74762126  0.74853463  0.41181603  1
  Te  Te98  1  0.73987200  0.75345681  0.76354523  1
  Te  Te99  1  0.05839772  0.27632052  0.27356717  1
  Te  Te100  1  0.07995415  0.27341130  0.56808653  1
  Te  Te101  1  0.08886978  0.23782433  0.92040599  1
  Te  Te102  1  0.09238351  0.60502655  0.23786786  1
  Te  Te103  1  0.08333160  0.58573459  0.55090358  1
  Te  Te104  1  0.07061429  0.57022218  0.92126140  1
  Te  Te105  1  0.06244990  0.91815676  0.26592350  1
  Te  Te106  1  0.08356294  0.88101871  0.55482248  1
  Te  Te107  1  0.07672821  0.90604516  0.93633475  1
  Te  Te108  1  0.42185194  0.25276993  0.27553247  1
  Te  Te109  1  0.43396944  0.25848620  0.55714199  1
  Te  Te110  1  0.44175246  0.24385194  0.92577526  1
  Te  Te111  1  0.40675121  0.59071019  0.26754034  1
  Te  Te112  1  0.41335697  0.57716926  0.58332689  1
  Te  Te113  1  0.39663524  0.60818781  0.93163100  1
  Te  Te114  1  0.40808629  0.92704398  0.24751717  1
  Te  Te115  1  0.43749384  0.92039678  0.57245610  1
  Te  Te116  1  0.40612317  0.93191271  0.91764239  1
  Te  Te117  1  0.73533944  0.23640917  0.27303827  1
  Te  Te118  1  0.73022805  0.22298115  0.56993522  1
  Te  Te119  1  0.75557649  0.24760968  0.90469594  1
  Te  Te120  1  0.71338849  0.55745242  0.29494257  1
  Te  Te121  1  0.72671836  0.55972764  0.57549472  1
  Te  Te122  1  0.74896759  0.58101990  0.92678527  1
  Te  Te123  1  0.73003869  0.93535311  0.27226020  1
  Te  Te124  1  0.76421685  0.92309416  0.58244187  1
  Te  Te125  1  0.74130446  0.89295884  0.92467552  1
  Te  Te126  1  0.26455251  0.26044564  0.07098652  1
  Te  Te127  1  0.25168035  0.23739640  0.43406074  1
  Te  Te128  1  0.25702625  0.25193752  0.72517091  1
  Te  Te129  1  0.24822057  0.62361553  0.09092196  1
  Te  Te130  1  0.24928837  0.60521411  0.41360359  1
  Te  Te131  1  0.24780675  0.57952224  0.75848923  1
  Te  Te132  1  0.22962179  0.89722717  0.08070158  1
  Te  Te133  1  0.26685302  0.92959602  0.40302577  1
  Te  Te134  1  0.23177281  0.90178249  0.72191880  1
  Te  Te135  1  0.59593467  0.22970966  0.09278506  1
  Te  Te136  1  0.63313524  0.24448377  0.38972220  1
  Te  Te137  1  0.59198690  0.23973425  0.75015227  1
  Te  Te138  1  0.60019073  0.57001447  0.10517997  1
  Te  Te139  1  0.60522749  0.59764000  0.40600449  1
  Te  Te140  1  0.56235312  0.58928582  0.75495106  1
  Te  Te141  1  0.56892173  0.91570148  0.09868160  1
  Te  Te142  1  0.57288510  0.94220449  0.42555915  1
  Te  Te143  1  0.58940722  0.90258474  0.74386947  1
  Te  Te144  1  0.91484295  0.25248375  0.09433792  1
  Te  Te145  1  0.89831808  0.24037663  0.39434791  1
  Te  Te146  1  0.93354073  0.26558566  0.73280764  1
  Te  Te147  1  0.89414333  0.59076001  0.11912226  1
  Te  Te148  1  0.92607612  0.60073024  0.38030922  1
  Te  Te149  1  0.89277216  0.60851595  0.75879527  1
  Te  Te150  1  0.88391817  0.89081409  0.08448652  1
  Te  Te151  1  0.92243659  0.92168076  0.42739973  1
  Te  Te152  1  0.92903824  0.92352489  0.74149317  1
  Te  Te153  1  0.25853984  0.08599933  0.25987871  1
  Te  Te154  1  0.26077916  0.08338196  0.58265451  1
  Te  Te155  1  0.25403725  0.08110852  0.92406456  1
  Te  Te156  1  0.25249993  0.42745596  0.23678417  1
  Te  Te157  1  0.24994675  0.40262074  0.56726241  1
  Te  Te158  1  0.24040188  0.41476474  0.90305777  1
  Te  Te159  1  0.24094415  0.73088870  0.26476849  1
  Te  Te160  1  0.23739875  0.74064681  0.56890814  1
  Te  Te161  1  0.24329494  0.75795045  0.92280607  1
  Te  Te162  1  0.57930497  0.12137932  0.29760885  1
  Te  Te163  1  0.57746861  0.07357588  0.55251639  1
  Te  Te164  1  0.60618688  0.09364105  0.92143782  1
  Te  Te165  1  0.62939718  0.41792836  0.26159644  1
  Te  Te166  1  0.58855284  0.41340790  0.54160163  1
  Te  Te167  1  0.57987745  0.42216005  0.92305119  1
  Te  Te168  1  0.60211429  0.74180805  0.26367900  1
  Te  Te169  1  0.57715841  0.75735303  0.58430827  1
  Te  Te170  1  0.58880604  0.73889073  0.90614297  1
  Te  Te171  1  0.90972392  0.08497396  0.27625552  1
  Te  Te172  1  0.91577995  0.07608519  0.58826207  1
  Te  Te173  1  0.91892094  0.05978148  0.93271633  1
  Te  Te174  1  0.90040740  0.42703788  0.28709469  1
  Te  Te175  1  0.89706108  0.40339366  0.56198786  1
  Te  Te176  1  0.89486439  0.39523651  0.89639808  1
  Te  Te177  1  0.92034868  0.73115230  0.27534649  1
  Te  Te178  1  0.91012859  0.74068129  0.56112589  1
  Te  Te179  1  0.89838303  0.74019767  0.91710942  1
