# generated using pymatgen
data_In2Te3
_symmetry_space_group_name_H-M   'P 1'
_cell_length_a   18.77860393
_cell_length_b   18.78399881
_cell_length_c   18.78124540
_cell_angle_alpha   90.02321964
_cell_angle_beta   90.06925039
_cell_angle_gamma   89.96674912
_symmetry_Int_Tables_number   1
_chemical_formula_structural   In2Te3
_chemical_formula_sum   'In72 Te108'
_cell_volume   6624.83880335
_cell_formula_units_Z   36
loop_
 _symmetry_equiv_pos_site_id
 _symmetry_equiv_pos_as_xyz
  1  'x, y, z'
loop_
 _atom_site_type_symbol
 _atom_site_label
 _atom_site_symmetry_multiplicity
 _atom_site_fract_x
 _atom_site_fract_y
 _atom_site_fract_z
 _atom_site_occupancy
  In  In0  1  0.67460851  0.13979929  0.85095991  1
  In  In1  1  0.51101798  0.33803572  0.16003415  1
  In  In2  1  0.14181548  0.33485281  0.15917316  1
  In  In3  1  0.82521460  0.81726204  0.32410931  1
  In  In4  1  0.82763930  0.50046039  0.33856122  1
  In  In5  1  0.48786291  0.17330452  0.34129239  1
  In  In6  1  0.14275798  0.63897339  0.53591914  1
  In  In7  1  0.31000713  0.02354379  0.36664564  1
  In  In8  1  0.31302758  0.47407771  0.15927416  1
  In  In9  1  0.84398188  0.34006582  0.17716388  1
  In  In10  1  0.51786239  -0.02295467  0.83760792  1
  In  In11  1  0.14682999  0.65519846  0.16298621  1
  In  In12  1  0.82653588  0.85262383  0.00212062  1
  In  In13  1  0.49218564  -0.00751693  0.16454204  1
  In  In14  1  0.68596130  0.65797470  0.33977361  1
  In  In15  1  0.52694027  0.50696725  0.67163121  1
  In  In16  1  0.00950835  0.34070393  0.66949314  1
  In  In17  1  0.16300788  0.17798217  0.65351182  1
  In  In18  1  0.17074682  0.80602853  -0.00807716  1
  In  In19  1  0.32401774  0.84264256  0.15997314  1
  In  In20  1  0.17294454  0.02054109  0.49696709  1
  In  In21  1  0.82493404  -0.02679427  0.83013751  1
  In  In22  1  0.67659974  0.82747942  0.17044666  1
  In  In23  1  0.35311539  0.00615675  -0.00918625  1
  In  In24  1  0.67168564  0.34538846  0.67633388  1
  In  In25  1  0.86732614  0.32904504  0.48544820  1
  In  In26  1  0.68037793  0.34461669  0.02913950  1
  In  In27  1  0.49658005  0.14591433  0.66900383  1
  In  In28  1  0.34118931  0.16768950  0.81728633  1
  In  In29  1  -0.00234983  0.81859187  0.80482404  1
  In  In30  1  0.48691068  0.33263717  0.83588266  1
  In  In31  1  0.34221833  0.14637129  0.49552643  1
  In  In32  1  0.16454071  0.82538142  0.65612371  1
  In  In33  1  0.65695905  0.15913163  0.51332757  1
  In  In34  1  0.67740349  0.50554791  0.82765682  1
  In  In35  1  0.67048796  0.16079315  0.15547827  1
  In  In36  1  0.01509043  0.17436069  0.84249412  1
  In  In37  1  0.13909904  0.00988955  0.17830007  1
  In  In38  1  -0.00329044  -0.00100322  -0.00117698  1
  In  In39  1  0.49324038  0.52015004  0.35321226  1
  In  In40  1  0.80870652  0.65249844  0.52990388  1
  In  In41  1  0.17593617  -0.01010197  0.80493490  1
  In  In42  1  0.67164533  -0.01270911  0.35760675  1
  In  In43  1  0.31766609  0.31845010  0.65616288  1
  In  In44  1  0.31796195  0.49453450  0.50200946  1
  In  In45  1  0.16042743  0.86487761  0.33214413  1
  In  In46  1  0.67412695  0.50741369  0.16356877  1
  In  In47  1  -0.01515718  0.64250971  0.01685276  1
  In  In48  1  0.83700022  0.14427553  0.67053217  1
  In  In49  1  0.69985215  0.32628446  0.33837129  1
  In  In50  1  -0.00757976  0.67832494  0.32765554  1
  In  In51  1  0.32950326  0.66890696  0.36056918  1
  In  In52  1  0.53050127  0.81516984  -0.03683447  1
  In  In53  1  0.32441577  0.33657683  0.33004218  1
  In  In54  1  0.15288188  0.16280803  0.33341354  1
  In  In55  1  0.31130409  0.50762347  0.83685998  1
  In  In56  1  0.82873403  0.37603556  0.82714956  1
  In  In57  1  0.50275887  0.52030015  0.01430268  1
  In  In58  1  0.52553471  0.67813763  0.52686127  1
  In  In59  1  0.34135956  0.67650437  -0.03054916  1
  In  In60  1  0.00700233  0.50321834  0.82982962  1
  In  In61  1  0.15903933  0.18211549  0.00836923  1
  In  In62  1  0.16137513  0.48539257  -0.00628614  1
  In  In63  1  0.12483092  0.35933250  0.47634323  1
  In  In64  1  -0.00505513  0.83475051  0.49624578  1
  In  In65  1  0.34961826  0.67848143  0.69732173  1
  In  In66  1  0.82177919  0.82590442  0.66999341  1
  In  In67  1  0.83013158  0.17873603  0.01747549  1
  In  In68  1  0.51552988  0.84758155  0.34843293  1
  In  In69  1  0.84258620  0.00608224  0.50292330  1
  In  In70  1  0.50868018  0.64192096  0.14724431  1
  In  In71  1  0.84449692  0.65757079  0.81175544  1
  Te  Te72  1  0.05607383  0.10501140  0.09190649  1
  Te  Te73  1  0.06624005  0.05331962  0.39452538  1
  Te  Te74  1  0.07465611  0.08273331  0.73632640  1
  Te  Te75  1  0.06232636  0.44233413  0.09412190  1
  Te  Te76  1  0.04094873  0.44332303  0.38841620  1
  Te  Te77  1  0.10187539  0.40996775  0.76114026  1
  Te  Te78  1  0.06487921  0.76026712  0.08969591  1
  Te  Te79  1  0.09917287  0.74782110  0.42413140  1
  Te  Te80  1  0.09275076  0.72581845  0.74135366  1
  Te  Te81  1  0.40989587  0.09275374  0.09485672  1
  Te  Te82  1  0.45479784  0.05583815  0.43578697  1
  Te  Te83  1  0.41131904  0.05082637  0.75135826  1
  Te  Te84  1  0.41257808  0.40710106  0.06483276  1
  Te  Te85  1  0.41958497  0.40825324  0.42639827  1
  Te  Te86  1  0.40953263  0.41666798  0.73372362  1
  Te  Te87  1  0.42362875  0.75652251  0.08218756  1
  Te  Te88  1  0.42635466  0.75630883  0.43752680  1
  Te  Te89  1  0.46436661  0.77208176  0.72524207  1
  Te  Te90  1  0.75012196  0.06825232  0.07218770  1
  Te  Te91  1  0.75740834  0.10000487  0.41372992  1
  Te  Te92  1  0.73154841  0.05607850  0.73726611  1
  Te  Te93  1  0.78866331  0.44788619  0.07113912  1
  Te  Te94  1  0.74876912  0.42349304  0.44416834  1
  Te  Te95  1  0.77503471  0.45706230  0.70510325  1
  Te  Te96  1  0.74853241  0.74584142  0.07160682  1
  Te  Te97  1  0.74231338  0.75858322  0.43822380  1
  Te  Te98  1  0.74528564  0.76943381  0.78691490  1
  Te  Te99  1  0.05630693  0.25275698  0.25607147  1
  Te  Te100  1  0.06524703  0.24286459  0.55833237  1
  Te  Te101  1  0.07563139  0.27699774  0.92809479  1
  Te  Te102  1  0.06414506  0.57105977  0.25116076  1
  Te  Te103  1  0.04653668  0.54492839  0.59609787  1
  Te  Te104  1  0.09402381  0.60020116  0.92032081  1
  Te  Te105  1  0.05313629  0.90638688  0.24045275  1
  Te  Te106  1  0.08043656  0.92887475  0.58024463  1
  Te  Te107  1  0.08153664  0.91199688  0.90655757  1
  Te  Te108  1  0.40980248  0.25111453  0.23640494  1
  Te  Te109  1  0.42738730  0.24728099  0.57734420  1
  Te  Te110  1  0.41720172  0.23677272  0.92306831  1
  Te  Te111  1  0.40015400  0.57814536  0.24580046  1
  Te  Te112  1  0.41480522  0.58021960  0.58388060  1
  Te  Te113  1  0.43359020  0.58374707  0.89223315  1
  Te  Te114  1  0.39996959  0.91963854  0.26842310  1
  Te  Te115  1  0.37287626  0.96378050  0.53549020  1
  Te  Te116  1  0.40705575  0.89063001  0.91028432  1
  Te  Te117  1  0.77155554  0.22562430  0.25022361  1
  Te  Te118  1  0.76364812  0.25346564  0.58302445  1
  Te  Te119  1  0.74629570  0.26550500  0.90889152  1
  Te  Te120  1  0.77665272  0.60118889  0.23183333  1
  Te  Te121  1  0.72018599  0.58206011  0.62455600  1
  Te  Te122  1  0.78016232  0.56928113  0.91189463  1
  Te  Te123  1  0.75829762  0.93298241  0.24500268  1
  Te  Te124  1  0.74965892  0.91401609  0.57405358  1
  Te  Te125  1  0.72085207  0.90292111  0.90811612  1
  Te  Te126  1  0.25069079  0.25924818  0.09555534  1
  Te  Te127  1  0.24506032  0.25031129  0.43026435  1
  Te  Te128  1  0.22895923  0.25793899  0.76569908  1
  Te  Te129  1  0.26318701  0.59649120  0.07612499  1
  Te  Te130  1  0.22298412  0.57619284  0.41553679  1
  Te  Te131  1  0.23862528  0.58836950  0.73747643  1
  Te  Te132  1  0.23227286  0.92770680  0.07280787  1
  Te  Te133  1  0.26159076  0.89480368  0.44449635  1
  Te  Te134  1  0.26752173  0.89581687  0.73892259  1
  Te  Te135  1  0.57566637  0.23817356  0.06403745  1
  Te  Te136  1  0.58633676  0.25959634  0.41895919  1
  Te  Te137  1  0.58959666  0.24134463  0.75519998  1
  Te  Te138  1  0.62482444  0.60619609  0.05476345  1
  Te  Te139  1  0.60313674  0.57774906  0.44007221  1
  Te  Te140  1  0.60072608  0.61392190  0.75103480  1
  Te  Te141  1  0.58318583  0.90773842  0.07897710  1
  Te  Te142  1  0.59868964  0.90508521  0.45711427  1
  Te  Te143  1  0.56883928  0.89198171  0.72529642  1
  Te  Te144  1  0.92946057  0.26538723  0.08144086  1
  Te  Te145  1  0.93823019  0.24334161  0.38770959  1
  Te  Te146  1  0.90471754  0.25646190  0.75418249  1
  Te  Te147  1  0.89899343  0.55801641  0.10057033  1
  Te  Te148  1  0.90741258  0.59597556  0.42818882  1
  Te  Te149  1  0.94341329  0.58704274  0.72128873  1
  Te  Te150  1  0.90666321  0.93557815  0.09625552  1
  Te  Te151  1  0.91461014  0.91792222  0.39796819  1
  Te  Te152  1  0.92642213  0.92765675  0.72673319  1
  Te  Te153  1  0.25296939  0.09160131  0.24069252  1
  Te  Te154  1  0.26714468  0.07299902  0.61168154  1
  Te  Te155  1  0.23830132  0.08290636  0.91203249  1
  Te  Te156  1  0.21981400  0.42495255  0.26701665  1
  Te  Te157  1  0.22103759  0.41443518  0.58715342  1
  Te  Te158  1  0.26378664  0.40244519  0.92742837  1
  Te  Te159  1  0.24486213  0.74897795  0.25234586  1
  Te  Te160  1  0.25934959  0.72852535  0.58073890  1
  Te  Te161  1  0.25375002  0.75636916  0.88057172  1
  Te  Te162  1  0.58465483  0.08267277  0.25975041  1
  Te  Te163  1  0.58944645  0.05679246  0.59585302  1
  Te  Te164  1  0.56608938  0.08131994  0.93060023  1
  Te  Te165  1  0.58585446  0.42622107  0.26120173  1
  Te  Te166  1  0.58096049  0.40748218  0.57772447  1
  Te  Te167  1  0.58821341  0.41832335  0.92110522  1
  Te  Te168  1  0.57328044  0.73462319  0.25899256  1
  Te  Te169  1  0.59044575  0.76955633  0.62621810  1
  Te  Te170  1  0.58972785  0.71973165  0.86890617  1
  Te  Te171  1  0.97142989  0.12483194  0.29022424  1
  Te  Te172  1  0.93671584  0.09796261  0.57244096  1
  Te  Te173  1  0.90231191  0.08612517  0.90362707  1
  Te  Te174  1  0.93332060  0.41000445  0.27832271  1
  Te  Te175  1  0.93805967  0.43221300  0.56963056  1
  Te  Te176  1  0.93506567  0.41091089  0.92269765  1
  Te  Te177  1  0.91108484  0.74838438  0.22579749  1
  Te  Te178  1  0.92172909  0.74086924  0.59004297  1
  Te  Te179  1  0.92211327  0.75326671  0.92033756  1
