# generated using pymatgen
data_In2Te3
_symmetry_space_group_name_H-M   'P 1'
_cell_length_a   18.85429470
_cell_length_b   18.86606922
_cell_length_c   18.88379838
_cell_angle_alpha   90.03900237
_cell_angle_beta   89.96093671
_cell_angle_gamma   90.05942136
_symmetry_Int_Tables_number   1
_chemical_formula_structural   In2Te3
_chemical_formula_sum   'In72 Te108'
_cell_volume   6717.08175947
_cell_formula_units_Z   36
loop_
 _symmetry_equiv_pos_site_id
 _symmetry_equiv_pos_as_xyz
  1  'x, y, z'
loop_
 _atom_site_type_symbol
 _atom_site_label
 _atom_site_symmetry_multiplicity
 _atom_site_fract_x
 _atom_site_fract_y
 _atom_site_fract_z
 _atom_site_occupancy
  In  In0  1  0.20135349  0.13030049  0.32835409  1
  In  In1  1  0.30601328  0.80596571  0.84616327  1
  In  In2  1  0.01040775  0.51896847  0.51556433  1
  In  In3  1  0.84757364  0.49545592  0.67908254  1
  In  In4  1  0.00419888  0.49333521  0.15766348  1
  In  In5  1  0.51488604  0.33413611  0.16917246  1
  In  In6  1  0.67616295  0.81970323  0.17989837  1
  In  In7  1  0.00585951  0.18329902  0.16335893  1
  In  In8  1  0.33477748  0.68110051  0.67442740  1
  In  In9  1  0.49846463  0.66752803  0.13793200  1
  In  In10  1  0.51158934  0.49905733  0.66208515  1
  In  In11  1  -0.01828059  0.00665430  0.64635027  1
  In  In12  1  0.68442326  0.33179562  0.01081017  1
  In  In13  1  0.32559094  0.53390139  0.84334210  1
  In  In14  1  0.15207294  0.17574748  0.00694449  1
  In  In15  1  0.19390019  0.14325576  0.64844683  1
  In  In16  1  0.67237095  0.31226005  0.67694321  1
  In  In17  1  0.35168131  0.66302049  0.34560053  1
  In  In18  1  0.49865478  0.32901922  0.83645164  1
  In  In19  1  0.01373774  0.50592319  0.84685993  1
  In  In20  1  0.49652857  0.52805489  -0.00105774  1
  In  In21  1  0.00826867  0.68009828  0.32725836  1
  In  In22  1  0.66936745  0.52698879  0.83192355  1
  In  In23  1  0.48160667  -0.01352601  0.50787200  1
  In  In24  1  0.64573405  0.16567854  0.17505563  1
  In  In25  1  0.85187933  0.14000529  0.66230759  1
  In  In26  1  0.02745741  0.32275360  0.69335296  1
  In  In27  1  0.81673493  -0.01109087  0.16927770  1
  In  In28  1  -0.00336114  0.16952232  0.83497535  1
  In  In29  1  0.32491256  0.49063902  0.17111114  1
  In  In30  1  0.49243344  0.15169978  0.34432781  1
  In  In31  1  0.48124634  0.85571973  0.32628925  1
  In  In32  1  0.33803196  0.34127290  0.33181013  1
  In  In33  1  0.84631340  0.00491981  0.83826041  1
  In  In34  1  0.00481531  0.82332337  0.16680382  1
  In  In35  1  0.83073484  0.50491284  0.01128178  1
  In  In36  1  0.84236731  0.65767451  0.16015551  1
  In  In37  1  -0.00260779  0.34327358  0.00887780  1
  In  In38  1  0.17444015  -0.02020817  0.82913003  1
  In  In39  1  0.79477801  0.71014934  0.47818578  1
  In  In40  1  0.65757210  0.51242913  0.49135379  1
  In  In41  1  0.50773482  0.83877288  -0.01932214  1
  In  In42  1  0.65507162  0.16337420  0.85011299  1
  In  In43  1  -0.02071555  0.79209087  0.86804214  1
  In  In44  1  0.51775470  0.69913658  0.50492642  1
  In  In45  1  0.15577482  0.31578534  0.50470240  1
  In  In46  1  0.01404202  -0.00299684  0.34149597  1
  In  In47  1  0.34194923  0.13520025  0.79755187  1
  In  In48  1  0.17109571  0.65694652  0.15734897  1
  In  In49  1  0.64004417  -0.00549454  0.64531866  1
  In  In50  1  0.80668603  0.14358142  0.34170518  1
  In  In51  1  0.47621441  0.30961036  0.48938619  1
  In  In52  1  0.17704513  0.82810115  0.64735284  1
  In  In53  1  0.32358731  -0.00490534  0.02348370  1
  In  In54  1  0.31943289  0.31546105  -0.00639957  1
  In  In55  1  0.34067113  0.30817247  0.65424220  1
  In  In56  1  0.65145024  0.00161538  -0.00727120  1
  In  In57  1  0.83190657  0.31454002  0.49813283  1
  In  In58  1  0.01658612  0.65861945  0.67303322  1
  In  In59  1  0.33914532  0.48681275  0.48604104  1
  In  In60  1  0.65486102  0.84169008  0.82481320  1
  In  In61  1  0.65999522  0.68202504  0.65729981  1
  In  In62  1  0.00096880  0.83286704  0.50577698  1
  In  In63  1  0.81706572  0.85118022  0.65790242  1
  In  In64  1  0.16015748  0.50714621  0.00001786  1
  In  In65  1  0.85089876  0.51851556  0.31708513  1
  In  In66  1  0.48448497  0.01226232  0.18031472  1
  In  In67  1  0.65583761  0.33964462  0.32494762  1
  In  In68  1  -0.00143562  0.33139599  0.32955967  1
  In  In69  1  0.00676945  0.00236120  0.00261900  1
  In  In70  1  0.19064120  0.85486156  0.36352645  1
  In  In71  1  0.34036507  0.84058352  0.16688584  1
  Te  Te72  1  0.09392495  0.07274137  0.10389460  1
  Te  Te73  1  0.10055341  0.08218300  0.42457336  1
  Te  Te74  1  0.08196948  0.07572524  0.75030835  1
  Te  Te75  1  0.10751866  0.40068580  0.09707309  1
  Te  Te76  1  0.08093527  0.41999748  0.42179062  1
  Te  Te77  1  0.09496313  0.44349293  0.73905352  1
  Te  Te78  1  0.09251346  0.74883255  0.07301724  1
  Te  Te79  1  0.10102599  0.74769832  0.42659107  1
  Te  Te80  1  0.08312032  0.76891343  0.75211426  1
  Te  Te81  1  0.40173843  0.10066140  0.09392544  1
  Te  Te82  1  0.38888546  0.08101449  0.42972669  1
  Te  Te83  1  0.42178556  0.03653846  0.71228274  1
  Te  Te84  1  0.41878906  0.41168514  0.06978044  1
  Te  Te85  1  0.44814204  0.42587603  0.39736808  1
  Te  Te86  1  0.41289507  0.41732149  0.74521184  1
  Te  Te87  1  0.40456941  0.75573212  0.05899474  1
  Te  Te88  1  0.40565652  0.77577212  0.43245698  1
  Te  Te89  1  0.42085035  0.75790534  0.76664560  1
  Te  Te90  1  0.73959080  0.08768133  0.08256396  1
  Te  Te91  1  0.75073093  0.05825953  0.44688021  1
  Te  Te92  1  0.74321955  0.06906416  0.74665803  1
  Te  Te93  1  0.73852137  0.43320418  0.10269223  1
  Te  Te94  1  0.76148882  0.42116183  0.41460199  1
  Te  Te95  1  0.74699081  0.41475950  0.76057067  1
  Te  Te96  1  0.76595100  0.75797376  0.07709935  1
  Te  Te97  1  0.69865824  0.79841912  0.41360551  1
  Te  Te98  1  0.75707850  0.75060360  0.75323272  1
  Te  Te99  1  0.09996870  0.23653803  0.26908993  1
  Te  Te100  1  0.07260277  0.22076872  0.59042777  1
  Te  Te101  1  0.08544796  0.26946707  0.90662301  1
  Te  Te102  1  0.08848086  0.57287468  0.25653150  1
  Te  Te103  1  0.11484348  0.59892949  0.58072359  1
  Te  Te104  1  0.10721203  0.61251364  0.90490569  1
  Te  Te105  1  0.10177064  0.90857472  0.25315439  1
  Te  Te106  1  0.09271382  0.93404514  0.57279884  1
  Te  Te107  1  0.07983123  0.90031503  0.91748762  1
  Te  Te108  1  0.42015416  0.24431729  0.24751197  1
  Te  Te109  1  0.42958446  0.21020061  0.58865451  1
  Te  Te110  1  0.40683970  0.22875110  0.90365324  1
  Te  Te111  1  0.42553937  0.57964183  0.24145690  1
  Te  Te112  1  0.42672823  0.58366453  0.56938837  1
  Te  Te113  1  0.43142384  0.61757268  0.90087372  1
  Te  Te114  1  0.36985000  0.95560858  0.26974681  1
  Te  Te115  1  0.40614875  0.92033509  0.61859394  1
  Te  Te116  1  0.39543664  0.91701161  0.91522200  1
  Te  Te117  1  0.75094328  0.24941842  0.24703878  1
  Te  Te118  1  0.74603318  0.22191750  0.58070255  1
  Te  Te119  1  0.75545581  0.24980068  0.91181482  1
  Te  Te120  1  0.74974979  0.61040943  0.26580948  1
  Te  Te121  1  0.75405113  0.58016059  0.58920909  1
  Te  Te122  1  0.76517029  0.60154933  0.91763647  1
  Te  Te123  1  0.74679476  0.91052141  0.27382987  1
  Te  Te124  1  0.75958636  0.94768506  0.55944311  1
  Te  Te125  1  0.75406891  0.91679658  0.91963888  1
  Te  Te126  1  0.24235112  0.24802182  0.09803090  1
  Te  Te127  1  0.26010880  0.24580964  0.42062058  1
  Te  Te128  1  0.24280543  0.24408105  0.75189192  1
  Te  Te129  1  0.27244106  0.58737930  0.06685686  1
  Te  Te130  1  0.25236097  0.57059041  0.40259180  1
  Te  Te131  1  0.23903055  0.58728606  0.73796209  1
  Te  Te132  1  0.23186746  0.89947809  0.08600463  1
  Te  Te133  1  0.26521634  0.95297103  0.44527758  1
  Te  Te134  1  0.26901281  0.92016019  0.72811802  1
  Te  Te135  1  0.57329705  0.24076982  0.06426657  1
  Te  Te136  1  0.59350970  0.23976862  0.41969122  1
  Te  Te137  1  0.56464331  0.22881154  0.74311233  1
  Te  Te138  1  0.60654889  0.59159835  0.07282964  1
  Te  Te139  1  0.58721725  0.60979411  0.40936192  1
  Te  Te140  1  0.56696798  0.60738163  0.75244522  1
  Te  Te141  1  0.57352881  0.91583772  0.10212763  1
  Te  Te142  1  0.58254171  0.90389617  0.42697565  1
  Te  Te143  1  0.56510575  0.94585928  0.76550306  1
  Te  Te144  1  0.90681083  0.25366098  0.08178319  1
  Te  Te145  1  0.91961782  0.22934451  0.40923349  1
  Te  Te146  1  0.90381288  0.25573357  0.75098055  1
  Te  Te147  1  0.94763864  0.59605395  0.06491081  1
  Te  Te148  1  0.91235238  0.60095057  0.43077281  1
  Te  Te149  1  0.91489411  0.59656230  0.76819414  1
  Te  Te150  1  0.91335762  0.91090320  0.08006829  1
  Te  Te151  1  0.92164558  0.89751435  0.40047681  1
  Te  Te152  1  0.92869591  0.90910861  0.75297940  1
  Te  Te153  1  0.27996195  0.07139119  0.21731777  1
  Te  Te154  1  0.27521623  0.06969130  0.54898994  1
  Te  Te155  1  0.24145878  0.08822199  0.91280837  1
  Te  Te156  1  0.23508915  0.42131925  0.26367361  1
  Te  Te157  1  0.25067585  0.40731742  0.58271588  1
  Te  Te158  1  0.24763475  0.41952201  0.90914280  1
  Te  Te159  1  0.25332565  0.74626839  0.25682400  1
  Te  Te160  1  0.26219531  0.74400252  0.56179585  1
  Te  Te161  1  0.22066330  0.71844481  0.92668184  1
  Te  Te162  1  0.59416206  0.06239920  0.27400146  1
  Te  Te163  1  0.56723631  0.09608194  0.56507765  1
  Te  Te164  1  0.55386363  0.07764919  0.91450738  1
  Te  Te165  1  0.59469020  0.43815285  0.23529997  1
  Te  Te166  1  0.58804090  0.39700581  0.57819404  1
  Te  Te167  1  0.58660755  0.42424485  0.91516401  1
  Te  Te168  1  0.56073477  0.74991443  0.25157543  1
  Te  Te169  1  0.59039206  0.79422971  0.59272042  1
  Te  Te170  1  0.60606212  0.74512293  0.92535985  1
  Te  Te171  1  0.91682592  0.08058079  0.24396516  1
  Te  Te172  1  0.89810334  0.06716936  0.53925685  1
  Te  Te173  1  0.90969530  0.10047181  0.93892279  1
  Te  Te174  1  0.90665880  0.40458414  0.23305461  1
  Te  Te175  1  0.92432909  0.40359846  0.58314357  1
  Te  Te176  1  0.90769876  0.41756460  0.91152476  1
  Te  Te177  1  0.90172339  0.76215707  0.26155603  1
  Te  Te178  1  0.90766492  0.74253826  0.58906702  1
  Te  Te179  1  0.87930058  0.73072749  0.95527541  1
