# generated using pymatgen
data_In2Te3
_symmetry_space_group_name_H-M   'P 1'
_cell_length_a   18.87913335
_cell_length_b   18.88603562
_cell_length_c   18.89327664
_cell_angle_alpha   90.01288106
_cell_angle_beta   89.93559927
_cell_angle_gamma   90.13980382
_symmetry_Int_Tables_number   1
_chemical_formula_structural   In2Te3
_chemical_formula_sum   'In72 Te108'
_cell_volume   6736.41081343
_cell_formula_units_Z   36
loop_
 _symmetry_equiv_pos_site_id
 _symmetry_equiv_pos_as_xyz
  1  'x, y, z'
loop_
 _atom_site_type_symbol
 _atom_site_label
 _atom_site_symmetry_multiplicity
 _atom_site_fract_x
 _atom_site_fract_y
 _atom_site_fract_z
 _atom_site_occupancy
  In  In0  1  0.01137003  0.47134806  0.47926224  1
  In  In1  1  0.17586110  0.00344321  0.84212606  1
  In  In2  1  -0.00902641  -0.00077095  0.65041684  1
  In  In3  1  0.16177205  0.42904232  -0.01142046  1
  In  In4  1  0.49485044  0.66195425  0.50639947  1
  In  In5  1  0.50518721  0.67896412  0.16760603  1
  In  In6  1  0.16312869  0.82546442  0.01002211  1
  In  In7  1  0.15882478  0.04006854  0.48116103  1
  In  In8  1  0.02942918  0.03097490  0.02962083  1
  In  In9  1  -0.00942932  0.68622416  0.67071477  1
  In  In10  1  0.29954692  0.30002580  0.34764373  1
  In  In11  1  0.48913494  0.49519961  0.33354138  1
  In  In12  1  -0.01115291  0.34547526  0.65468550  1
  In  In13  1  0.51169462  0.83321527  0.69167549  1
  In  In14  1  0.14681334  0.68158557  0.50678500  1
  In  In15  1  0.17569268  0.65711727  0.19643303  1
  In  In16  1  0.34117543  -0.01620209  -0.00022235  1
  In  In17  1  0.49079515  0.18309803  0.66095713  1
  In  In18  1  -0.00097381  0.85557746  0.18726034  1
  In  In19  1  -0.01760877  0.66844717  -0.00164205  1
  In  In20  1  0.66161550  0.33415591  0.64202305  1
  In  In21  1  0.67130773  0.16557557  0.48519317  1
  In  In22  1  0.65886044  0.51150417  0.16458568  1
  In  In23  1  0.87565693  0.27636378  0.17874886  1
  In  In24  1  0.35927307  0.66957074  0.35447370  1
  In  In25  1  0.81244329  0.84929102  0.66684488  1
  In  In26  1  0.84880364  0.87468510  0.35403096  1
  In  In27  1  0.64878433  0.86274963  0.14068685  1
  In  In28  1  -0.01234669  0.46546349  0.86010298  1
  In  In29  1  0.34729773  0.65305115  -0.01345826  1
  In  In30  1  0.32687971  0.47741742  0.13292009  1
  In  In31  1  0.82529838  0.68780635  0.84427722  1
  In  In32  1  0.17274301  0.65386031  0.83040402  1
  In  In33  1  0.35114039  0.15552374  0.85406705  1
  In  In34  1  0.66538759  0.86192316  0.50050402  1
  In  In35  1  0.66505881  0.86014004  0.84699755  1
  In  In36  1  0.16218263  0.18495123  0.65270365  1
  In  In37  1  0.15079657  0.30667906  0.17262102  1
  In  In38  1  0.84025289  0.16976606  0.35134860  1
  In  In39  1  0.18119398  0.49976093  0.67310727  1
  In  In40  1  0.83602137  0.47778509  -0.02097348  1
  In  In41  1  0.66562432  0.31873790  0.00513031  1
  In  In42  1  0.48782934  0.32879539  0.82897562  1
  In  In43  1  0.17973666  0.84677119  0.68194038  1
  In  In44  1  0.84074962  0.01367581  0.15799706  1
  In  In45  1  0.33812717  0.02169006  0.32089144  1
  In  In46  1  0.32966549  0.15663448  0.15655414  1
  In  In47  1  0.66336349  0.49088529  0.48642636  1
  In  In48  1  0.67656736  0.13946349  0.16988283  1
  In  In49  1  0.49610174  0.34597378  0.15404463  1
  In  In50  1  0.50531532  0.00863144  0.49382785  1
  In  In51  1  0.32865415  0.33176118  0.66022453  1
  In  In52  1  0.00407064  0.67227936  0.33772007  1
  In  In53  1  0.64404071  0.12701607  0.85119707  1
  In  In54  1  0.82818734  0.67768696  0.50503301  1
  In  In55  1  0.35399636  0.86343934  0.16241281  1
  In  In56  1  0.84737866  0.01064647  0.84322931  1
  In  In57  1  0.52267942  0.16858557  0.32720609  1
  In  In58  1  0.04607394  0.19567342  0.85213679  1
  In  In59  1  0.81477722  0.66448777  0.15168040  1
  In  In60  1  0.32897795  0.81454678  0.50957403  1
  In  In61  1  0.85675748  0.14191587  0.64952286  1
  In  In62  1  0.82710512  0.31713161  0.84429570  1
  In  In63  1  0.49521967  0.65715693  0.82445132  1
  In  In64  1  0.82421745  0.46974063  0.31807420  1
  In  In65  1  0.65601470  0.50771407  0.81332128  1
  In  In66  1  0.64689808  0.67696020  0.02131990  1
  In  In67  1  0.32565061  0.00917982  0.67717448  1
  In  In68  1  0.16285534  0.86306855  0.32178000  1
  In  In69  1  0.84376052  0.51962282  0.65484966  1
  In  In70  1  0.15233369  0.47646655  0.35528384  1
  In  In71  1  0.32338648  0.49142012  0.51161484  1
  Te  Te72  1  0.11710946  0.11582951  0.11544535  1
  Te  Te73  1  0.06723490  0.13612166  0.41392324  1
  Te  Te74  1  0.08749183  0.08049547  0.74547317  1
  Te  Te75  1  0.07664538  0.41607144  0.10586193  1
  Te  Te76  1  0.05924484  0.36420680  0.38739655  1
  Te  Te77  1  0.08286600  0.41086781  0.75344698  1
  Te  Te78  1  0.07862706  0.74116469  0.10836170  1
  Te  Te79  1  0.07336363  0.77993224  0.41898334  1
  Te  Te80  1  0.08338478  0.76060535  0.76457759  1
  Te  Te81  1  0.42616766  0.06425355  0.09259194  1
  Te  Te82  1  0.41596311  0.10639001  0.41989218  1
  Te  Te83  1  0.43644934  0.07610993  0.75649705  1
  Te  Te84  1  0.40722623  0.39171065  0.04422099  1
  Te  Te85  1  0.39791027  0.40427609  0.41346315  1
  Te  Te86  1  0.42589772  0.41686537  0.73030455  1
  Te  Te87  1  0.41814536  0.75948453  0.07287331  1
  Te  Te88  1  0.44332547  0.77881095  0.41404774  1
  Te  Te89  1  0.40689196  0.75297273  0.75336659  1
  Te  Te90  1  0.74328763  0.06545375  0.05858369  1
  Te  Te91  1  0.73811413  0.06961682  0.39323391  1
  Te  Te92  1  0.75593537  0.08716813  0.74948862  1
  Te  Te93  1  0.74954750  0.41392053  0.08934368  1
  Te  Te94  1  0.74957597  0.39292962  0.41775214  1
  Te  Te95  1  0.76741309  0.41816773  0.74745812  1
  Te  Te96  1  0.75492049  0.77309140  0.06650341  1
  Te  Te97  1  0.75281318  0.76979607  0.41230253  1
  Te  Te98  1  0.73050743  0.75109398  0.74780261  1
  Te  Te99  1  0.04301837  0.20902285  0.21394054  1
  Te  Te100  1  0.04676682  0.23432148  0.57220021  1
  Te  Te101  1  0.13735893  0.28247861  0.93439546  1
  Te  Te102  1  0.07167505  0.56394054  0.25615286  1
  Te  Te103  1  0.06673508  0.57621655  0.58874077  1
  Te  Te104  1  0.07810338  0.57589438  0.92343585  1
  Te  Te105  1  0.05639887  0.95838664  0.27815778  1
  Te  Te106  1  0.10536631  0.92823467  0.57904925  1
  Te  Te107  1  0.08082155  0.92237681  0.92697531  1
  Te  Te108  1  0.41092883  0.25783693  0.25068534  1
  Te  Te109  1  0.41103936  0.25613210  0.56348360  1
  Te  Te110  1  0.43453514  0.24427200  0.93806949  1
  Te  Te111  1  0.40052042  0.57759255  0.23734993  1
  Te  Te112  1  0.39580147  0.59171913  0.58910997  1
  Te  Te113  1  0.41432847  0.55688836  0.90018691  1
  Te  Te114  1  0.43674819  0.92742763  0.26420094  1
  Te  Te115  1  0.41202525  0.91993813  0.58621864  1
  Te  Te116  1  0.45589360  0.92713594  0.92183793  1
  Te  Te117  1  0.74686919  0.24622267  0.25129756  1
  Te  Te118  1  0.76702554  0.24425715  0.57929061  1
  Te  Te119  1  0.74614961  0.21796984  0.92508831  1
  Te  Te120  1  0.74417865  0.58927702  0.26352538  1
  Te  Te121  1  0.73272509  0.59238803  0.58612381  1
  Te  Te122  1  0.74003028  0.58635060  0.92842154  1
  Te  Te123  1  0.75916106  0.91532385  0.23935097  1
  Te  Te124  1  0.76145011  0.95051971  0.57260194  1
  Te  Te125  1  0.75267363  0.94245976  0.93617703  1
  Te  Te126  1  0.25822786  0.26204392  0.08011145  1
  Te  Te127  1  0.20833504  0.20332333  0.41147103  1
  Te  Te128  1  0.25993884  0.23599955  0.75775454  1
  Te  Te129  1  0.23826329  0.58801975  0.07591776  1
  Te  Te130  1  0.23590788  0.59696683  0.41513318  1
  Te  Te131  1  0.27023019  0.55627673  0.77662134  1
  Te  Te132  1  0.23179410  0.92576090  0.10040646  1
  Te  Te133  1  0.25853727  0.92373559  0.42572830  1
  Te  Te134  1  0.27766882  0.90886118  0.78133947  1
  Te  Te135  1  0.57821544  0.23304089  0.09360636  1
  Te  Te136  1  0.58421568  0.26427246  0.41965260  1
  Te  Te137  1  0.60405531  0.24798043  0.75626616  1
  Te  Te138  1  0.55296833  0.56830711  0.07290321  1
  Te  Te139  1  0.58184627  0.59333091  0.40211284  1
  Te  Te140  1  0.57344795  0.58339646  0.72150389  1
  Te  Te141  1  0.55259199  0.92854152  0.04723966  1
  Te  Te142  1  0.60643456  0.95413978  0.39852683  1
  Te  Te143  1  0.60020637  0.93906228  0.74137622  1
  Te  Te144  1  0.92682651  0.22954677  0.04944117  1
  Te  Te145  1  0.94647726  0.23795031  0.43142907  1
  Te  Te146  1  0.92582345  0.24060762  0.75614398  1
  Te  Te147  1  0.90912557  0.56674933  0.08400435  1
  Te  Te148  1  0.91347965  0.58210110  0.42177149  1
  Te  Te149  1  0.92082819  0.58448192  0.76959051  1
  Te  Te150  1  0.92955824  0.92289785  0.07160702  1
  Te  Te151  1  0.95084549  0.96351958  0.41157116  1
  Te  Te152  1  0.92151554  0.91135033  0.75402957  1
  Te  Te153  1  0.22886955  0.08654988  0.24323058  1
  Te  Te154  1  0.26378873  0.10197726  0.57538530  1
  Te  Te155  1  0.24553097  0.09017696  0.94298786  1
  Te  Te156  1  0.25067465  0.41718889  0.25195226  1
  Te  Te157  1  0.21832189  0.39764564  0.56690698  1
  Te  Te158  1  0.24217746  0.38257194  0.87752964  1
  Te  Te159  1  0.26559825  0.76054078  0.26392631  1
  Te  Te160  1  0.24785353  0.73075415  0.60916719  1
  Te  Te161  1  0.25503894  0.75242584  0.91493550  1
  Te  Te162  1  0.57884308  0.05721108  0.24681672  1
  Te  Te163  1  0.58859065  0.08957829  0.59135355  1
  Te  Te164  1  0.55761814  0.04738331  0.94276490  1
  Te  Te165  1  0.58916276  0.41123874  0.25607279  1
  Te  Te166  1  0.56807573  0.42693597  0.58053404  1
  Te  Te167  1  0.59125657  0.41332998  0.91251703  1
  Te  Te168  1  0.60018062  0.76410934  0.23907811  1
  Te  Te169  1  0.58724085  0.75955345  0.58102944  1
  Te  Te170  1  0.57597162  0.75380885  0.91437127  1
  Te  Te171  1  0.92583614  0.10456725  0.24155702  1
  Te  Te172  1  0.90197331  0.04703886  0.53769462  1
  Te  Te173  1  0.94515607  0.10346220  0.92149527  1
  Te  Te174  1  0.92838924  0.39884415  0.24315378  1
  Te  Te175  1  0.89306009  0.41363606  0.55871173  1
  Te  Te176  1  0.93188900  0.35616563  0.95965038  1
  Te  Te177  1  0.90660047  0.74940168  0.24900400  1
  Te  Te178  1  0.91927840  0.77757043  0.57512092  1
  Te  Te179  1  0.91608412  0.77270966  0.92118809  1
