# generated using pymatgen
data_In2Te3
_symmetry_space_group_name_H-M   'P 1'
_cell_length_a   18.78544168
_cell_length_b   18.79140064
_cell_length_c   18.78428061
_cell_angle_alpha   90.02970772
_cell_angle_beta   89.98504956
_cell_angle_gamma   90.11131430
_symmetry_Int_Tables_number   1
_chemical_formula_structural   In2Te3
_chemical_formula_sum   'In72 Te108'
_cell_volume   6630.92685405
_cell_formula_units_Z   36
loop_
 _symmetry_equiv_pos_site_id
 _symmetry_equiv_pos_as_xyz
  1  'x, y, z'
loop_
 _atom_site_type_symbol
 _atom_site_label
 _atom_site_symmetry_multiplicity
 _atom_site_fract_x
 _atom_site_fract_y
 _atom_site_fract_z
 _atom_site_occupancy
  In  In0  1  0.16112079  0.02553631  0.49184383  1
  In  In1  1  0.33819550  0.01618042  0.01348528  1
  In  In2  1  0.14209658  0.65087018  0.51917226  1
  In  In3  1  0.31958650  0.50418668  0.17026730  1
  In  In4  1  0.50415867  -0.00600450  0.83099029  1
  In  In5  1  0.16993233  0.15620206  0.01954758  1
  In  In6  1  -0.01811800  0.67945524  0.34115271  1
  In  In7  1  0.67427132  0.50626470  0.18547754  1
  In  In8  1  -0.00537239  0.49141089  0.15283817  1
  In  In9  1  -0.01514339  0.81642779  0.81222654  1
  In  In10  1  0.34808786  0.65749108  0.67426966  1
  In  In11  1  0.17522421  0.17342188  0.66761197  1
  In  In12  1  0.84328270  0.16834725  0.66262625  1
  In  In13  1  0.82310848  -0.01488592  0.50561275  1
  In  In14  1  0.15676766  0.82969848  0.68636526  1
  In  In15  1  0.49761746  0.83854387  0.02365666  1
  In  In16  1  0.64968787  0.32576134  0.33100501  1
  In  In17  1  0.32832745  -0.00934175  0.66433467  1
  In  In18  1  0.84936802  -0.01740258  0.85077010  1
  In  In19  1  0.16041699  0.32986387  0.48561771  1
  In  In20  1  0.83134477  0.14177585  0.00669591  1
  In  In21  1  0.85673084  0.85307752  0.02001277  1
  In  In22  1  0.67250962  -0.00520798  0.62060752  1
  In  In23  1  0.15798419  0.51002372  0.63901578  1
  In  In24  1  0.82356889  0.33860106  0.80871107  1
  In  In25  1  0.84079615  0.32844365  0.17743796  1
  In  In26  1  0.68251302  0.54541877  0.49572722  1
  In  In27  1  0.67260013  -0.01568628  0.34036544  1
  In  In28  1  0.16300218  0.48242336  0.34519953  1
  In  In29  1  0.82873440  0.51508252  0.33200937  1
  In  In30  1  0.66497172  0.16219905  0.82462190  1
  In  In31  1  0.69068539  0.68107728  0.00118003  1
  In  In32  1  0.34100506  0.48341994  0.83182159  1
  In  In33  1  -0.00321650  0.32653959  0.65604281  1
  In  In34  1  -0.00858661  -0.00485289  0.66095593  1
  In  In35  1  0.13804012  0.87625307  0.31714582  1
  In  In36  1  0.16137653  0.82657586  -0.00257311  1
  In  In37  1  0.83834877  0.51884559  -0.01053225  1
  In  In38  1  0.68705516  0.80393981  0.80282961  1
  In  In39  1  0.66551190  0.16558931  0.48132649  1
  In  In40  1  0.14329029  0.02141251  0.19853831  1
  In  In41  1  0.50217466  0.01557995  0.14989260  1
  In  In42  1  0.17102119  0.00707831  0.85693711  1
  In  In43  1  0.16732762  0.65949966  0.15714216  1
  In  In44  1  0.52754269  0.82565566  0.33651775  1
  In  In45  1  -0.01365998  0.66889795  0.00538728  1
  In  In46  1  0.64380682  0.34586783  -0.00815701  1
  In  In47  1  0.66640237  0.34822292  0.68186035  1
  In  In48  1  0.33631714  0.67147441  0.31562034  1
  In  In49  1  0.82023443  0.82004427  0.34751071  1
  In  In50  1  0.86130485  0.32220161  0.47725995  1
  In  In51  1  0.51233090  0.17278344  0.65873004  1
  In  In52  1  0.49541190  0.18406915  0.01066568  1
  In  In53  1  0.68188164  -0.00419615  0.03585713  1
  In  In54  1  0.67445771  0.16131221  0.15211408  1
  In  In55  1  0.17406288  0.32759380  0.83647533  1
  In  In56  1  0.50876256  0.66169307  0.81818219  1
  In  In57  1  0.32170935  0.31632603  0.01299539  1
  In  In58  1  0.50673689  0.50490588  0.67958788  1
  In  In59  1  0.49201995  0.33395969  0.50108235  1
  In  In60  1  0.15768408  0.17664350  0.33560138  1
  In  In61  1  0.33045545  0.48164552  0.50988139  1
  In  In62  1  -0.03007427  0.81463487  0.50292381  1
  In  In63  1  0.14482790  0.67179521  0.85065035  1
  In  In64  1  0.33733363  0.83729768  0.49147248  1
  In  In65  1  0.48951395  0.49138575  -0.00452766  1
  In  In66  1  0.51152623  0.68355481  0.17550223  1
  In  In67  1  0.53174823  0.79951769  0.63834277  1
  In  In68  1  0.02100116  0.33179870  0.01321139  1
  In  In69  1  0.34733402  0.85558081  0.17090773  1
  In  In70  1  0.35899104  0.31083143  0.31168601  1
  In  In71  1  -0.01717701  0.52032142  0.82526232  1
  Te  Te72  1  0.06399057  0.06448953  0.07618377  1
  Te  Te73  1  0.05845538  0.07318856  0.39364556  1
  Te  Te74  1  0.08641597  0.07616350  0.74829009  1
  Te  Te75  1  0.10799674  0.41908872  0.09444746  1
  Te  Te76  1  0.06029650  0.42564739  0.43437146  1
  Te  Te77  1  0.07921834  0.41910814  0.75270810  1
  Te  Te78  1  0.06790179  0.75885845  0.09778344  1
  Te  Te79  1  0.09901130  0.75831821  0.41702878  1
  Te  Te80  1  0.06466628  0.71623760  0.72805635  1
  Te  Te81  1  0.39038995  0.12005227  0.11582785  1
  Te  Te82  1  0.37789903  0.05217448  0.36851781  1
  Te  Te83  1  0.41728901  0.08534210  0.74820042  1
  Te  Te84  1  0.41410520  0.40784328  0.09674580  1
  Te  Te85  1  0.41975829  0.42553654  0.40137271  1
  Te  Te86  1  0.40900377  0.40563451  0.72759447  1
  Te  Te87  1  0.39905564  0.73916693  0.08595884  1
  Te  Te88  1  0.42785204  0.73982553  0.41702370  1
  Te  Te89  1  0.42424707  0.76809929  0.74552940  1
  Te  Te90  1  0.78789672  0.05849726  0.12874329  1
  Te  Te91  1  0.77080372  0.08868024  0.40494784  1
  Te  Te92  1  0.75117893  0.07050004  0.73776364  1
  Te  Te93  1  0.75437249  0.41642546  0.08229374  1
  Te  Te94  1  0.74714291  0.41182533  0.41523722  1
  Te  Te95  1  0.75517578  0.45055308  0.74295574  1
  Te  Te96  1  0.76225878  0.76783659  0.09612841  1
  Te  Te97  1  0.73104850  0.76651403  0.45527328  1
  Te  Te98  1  0.77832753  0.71837847  0.72327358  1
  Te  Te99  1  0.05999342  0.25770695  0.25448141  1
  Te  Te100  1  0.07535997  0.23136641  0.56716748  1
  Te  Te101  1  0.08466240  0.23325466  0.91591870  1
  Te  Te102  1  0.08170397  0.58422076  0.25962018  1
  Te  Te103  1  0.03602558  0.56054311  0.57190061  1
  Te  Te104  1  0.07609867  0.56617485  0.93754292  1
  Te  Te105  1  0.02801620  0.92277917  0.22622015  1
  Te  Te106  1  0.08946487  0.91071404  0.57533748  1
  Te  Te107  1  0.06676741  0.90621835  0.90692640  1
  Te  Te108  1  0.43789613  0.21899208  0.22940720  1
  Te  Te109  1  0.40822902  0.24008952  0.57785678  1
  Te  Te110  1  0.41893405  0.26245371  0.91396124  1
  Te  Te111  1  0.43222224  0.57506715  0.25033619  1
  Te  Te112  1  0.42858930  0.58221535  0.57068773  1
  Te  Te113  1  0.40989170  0.59349207  0.91242514  1
  Te  Te114  1  0.42958783  0.93515262  0.26998848  1
  Te  Te115  1  0.43128334  0.91006162  0.58558040  1
  Te  Te116  1  0.41061231  0.91513282  0.92345581  1
  Te  Te117  1  0.75360316  0.23696688  0.26232527  1
  Te  Te118  1  0.74023893  0.25043034  0.58474151  1
  Te  Te119  1  0.74828340  0.24774022  0.92345165  1
  Te  Te120  1  0.73824063  0.61445944  0.26706852  1
  Te  Te121  1  0.79672640  0.60563861  0.56791152  1
  Te  Te122  1  0.73456801  0.57868903  0.90449495  1
  Te  Te123  1  0.76992857  0.92046607  0.24805348  1
  Te  Te124  1  0.74591518  0.87259740  0.57173183  1
  Te  Te125  1  0.73313891  0.91093396  0.91739346  1
  Te  Te126  1  0.22989893  0.25342293  0.11219026  1
  Te  Te127  1  0.26838804  0.24659034  0.41847395  1
  Te  Te128  1  0.26766109  0.24847509  0.75452011  1
  Te  Te129  1  0.25722920  0.58843566  0.06620114  1
  Te  Te130  1  0.25245936  0.58790443  0.42106597  1
  Te  Te131  1  0.23904337  0.58089648  0.75006475  1
  Te  Te132  1  0.23723976  0.93015828  0.09232051  1
  Te  Te133  1  0.25466010  0.93352017  0.40744623  1
  Te  Te134  1  0.25432767  0.90969201  0.77140064  1
  Te  Te135  1  0.57724866  0.27111386  0.10724292  1
  Te  Te136  1  0.55276634  0.23151512  0.40294594  1
  Te  Te137  1  0.56988151  0.26589748  0.76786465  1
  Te  Te138  1  0.58559476  0.58504352  0.07581170  1
  Te  Te139  1  0.58675457  0.61984486  0.41430428  1
  Te  Te140  1  0.60881858  0.59885776  0.73033265  1
  Te  Te141  1  0.59779004  0.89897469  0.12025408  1
  Te  Te142  1  0.58173980  0.91950157  0.43781445  1
  Te  Te143  1  0.59357238  0.91529988  0.73472204  1
  Te  Te144  1  0.92318181  0.23906658  0.08647237  1
  Te  Te145  1  0.94436832  0.24413346  0.38222568  1
  Te  Te146  1  0.93054090  0.23838856  0.76490560  1
  Te  Te147  1  0.89548117  0.59698010  0.10712354  1
  Te  Te148  1  0.90892583  0.58911882  0.43565194  1
  Te  Te149  1  0.89017391  0.61425627  0.76272760  1
  Te  Te150  1  0.94947601  0.94927900  0.08284190  1
  Te  Te151  1  0.92438342  0.92238864  0.40898167  1
  Te  Te152  1  0.89066481  0.90257030  0.72758883  1
  Te  Te153  1  0.26656930  0.08427584  0.27307585  1
  Te  Te154  1  0.26920688  0.09583167  0.57137551  1
  Te  Te155  1  0.27111804  0.10785600  0.91218180  1
  Te  Te156  1  0.24399008  0.39713269  0.25046026  1
  Te  Te157  1  0.24540648  0.39284102  0.59882006  1
  Te  Te158  1  0.24404155  0.42335448  0.93242194  1
  Te  Te159  1  0.23933208  0.77044712  0.25077752  1
  Te  Te160  1  0.25191940  0.74884634  0.58800999  1
  Te  Te161  1  0.25311173  0.75243183  0.90921791  1
  Te  Te162  1  0.58976144  0.08448274  0.25408022  1
  Te  Te163  1  0.56255220  0.07462598  0.55169428  1
  Te  Te164  1  0.58826113  0.07817339  0.93592318  1
  Te  Te165  1  0.57284245  0.42631841  0.25583888  1
  Te  Te166  1  0.59527965  0.42528845  0.56779087  1
  Te  Te167  1  0.58162409  0.43536184  0.89378561  1
  Te  Te168  1  0.62219594  0.73565650  0.26282417  1
  Te  Te169  1  0.60775353  0.71120355  0.54045388  1
  Te  Te170  1  0.57841900  0.76267762  0.91709077  1
  Te  Te171  1  0.97465750  0.13518231  0.27095223  1
  Te  Te172  1  0.92530398  0.09032201  0.56239944  1
  Te  Te173  1  0.92987200  0.08909761  0.90999043  1
  Te  Te174  1  0.92696058  0.41741924  0.26715952  1
  Te  Te175  1  0.88766998  0.40611577  0.59613120  1
  Te  Te176  1  0.91659254  0.40492967  0.92053211  1
  Te  Te177  1  0.90375690  0.75381617  0.24170789  1
  Te  Te178  1  0.89599598  0.72589261  0.59380984  1
  Te  Te179  1  0.89456943  0.74659488  0.91352327  1
