# generated using pymatgen
data_In2Te3
_symmetry_space_group_name_H-M   'P 1'
_cell_length_a   18.94349855
_cell_length_b   18.94330949
_cell_length_c   18.95721334
_cell_angle_alpha   90.01189518
_cell_angle_beta   89.97158900
_cell_angle_gamma   90.04600034
_symmetry_Int_Tables_number   1
_chemical_formula_structural   In2Te3
_chemical_formula_sum   'In72 Te108'
_cell_volume   6802.84128229
_cell_formula_units_Z   36
loop_
 _symmetry_equiv_pos_site_id
 _symmetry_equiv_pos_as_xyz
  1  'x, y, z'
loop_
 _atom_site_type_symbol
 _atom_site_label
 _atom_site_symmetry_multiplicity
 _atom_site_fract_x
 _atom_site_fract_y
 _atom_site_fract_z
 _atom_site_occupancy
  In  In0  1  0.65285164  0.84194832  0.50295260  1
  In  In1  1  0.33932171  0.50328204  0.17241367  1
  In  In2  1  0.84223484  0.67501690  0.49596770  1
  In  In3  1  0.49940740  0.81683031  0.33834682  1
  In  In4  1  0.16157430  0.85219099  -0.00325967  1
  In  In5  1  0.34309239  -0.02430610  0.33142632  1
  In  In6  1  0.66665103  0.00194402  0.65325577  1
  In  In7  1  0.50750950  0.84135190  0.66210716  1
  In  In8  1  0.31919678  0.19988478  0.13319894  1
  In  In9  1  0.19211330  0.50547099  0.33976466  1
  In  In10  1  0.21769779  0.82482446  0.63012840  1
  In  In11  1  0.15938454  0.65799515  0.83866287  1
  In  In12  1  0.66173078  0.32122263  0.31148704  1
  In  In13  1  0.50046773  0.33879870  0.16006025  1
  In  In14  1  0.01088721  0.82359346  0.19686506  1
  In  In15  1  -0.00765633  0.84215508  0.84918259  1
  In  In16  1  0.83538162  0.47939634  0.65733261  1
  In  In17  1  0.65759693  0.65625174  0.02102817  1
  In  In18  1  -0.01263391  0.65879577  0.00502503  1
  In  In19  1  0.49544303  0.50324280  -0.01138181  1
  In  In20  1  0.81947340  0.80349665  -0.00260807  1
  In  In21  1  0.50297289  -0.01213283  0.79267100  1
  In  In22  1  0.51431792  0.66788598  0.82732615  1
  In  In23  1  0.20095583  0.66022170  0.18700640  1
  In  In24  1  0.82504438  0.33125257  0.17369364  1
  In  In25  1  0.00009884  0.01111692  0.02045626  1
  In  In26  1  0.81983240  0.34025674  0.85724916  1
  In  In27  1  0.00338596  0.30636670  0.34691178  1
  In  In28  1  0.34253756  -0.00159304  0.64273473  1
  In  In29  1  -0.01759652  0.17945894  0.50587536  1
  In  In30  1  0.72885323  0.66522964  0.81671426  1
  In  In31  1  0.18692161  0.00810326  0.14753778  1
  In  In32  1  0.49663284  0.16865377  -0.00004236  1
  In  In33  1  0.32211548  0.49143178  0.85307701  1
  In  In34  1  0.16608412  0.17068926  0.33625654  1
  In  In35  1  -0.01815938  0.49410020  0.15964970  1
  In  In36  1  0.00919499  0.32895596  0.00668337  1
  In  In37  1  0.00285210  0.51581696  0.50226139  1
  In  In38  1  0.47791414  0.66588987  0.17714303  1
  In  In39  1  0.49606362  0.66895838  0.50149669  1
  In  In40  1  0.50169121  0.17233344  0.64812147  1
  In  In41  1  0.84786744  0.16693765  0.66835293  1
  In  In42  1  0.18305381  0.81918391  0.35815162  1
  In  In43  1  0.80137565  0.30487344  0.48586295  1
  In  In44  1  0.65717016  0.18019266  0.84128476  1
  In  In45  1  0.16907458  0.31205992  0.51802636  1
  In  In46  1  0.35302149  0.00255229  -0.00840597  1
  In  In47  1  0.01005761  -0.02152755  0.67386033  1
  In  In48  1  0.00058559  0.66906069  0.34783549  1
  In  In49  1  0.68356038  0.63268051  0.29608347  1
  In  In50  1  0.84091719  -0.00934810  0.85240576  1
  In  In51  1  0.69126109  0.02251129  0.33689276  1
  In  In52  1  -0.01744373  0.16047086  0.82933294  1
  In  In53  1  0.54732954  0.84152531  0.04734645  1
  In  In54  1  0.81495550  -0.00889737  0.13848128  1
  In  In55  1  0.49180471  0.35148123  0.46443933  1
  In  In56  1  0.66319227  0.50668316  0.49630606  1
  In  In57  1  0.30793780  0.21958755  0.89441818  1
  In  In58  1  0.67823166  0.33434680  0.66505358  1
  In  In59  1  0.00970835  0.47238155  0.85064358  1
  In  In60  1  0.33131792  0.15997094  0.49372579  1
  In  In61  1  0.83467066  0.83156271  0.34330513  1
  In  In62  1  -0.00905290  0.00763504  0.34601177  1
  In  In63  1  0.33752280  0.34589621  0.69685596  1
  In  In64  1  0.34225711  0.52056141  0.49470763  1
  In  In65  1  0.01058910  0.16397349  0.18089001  1
  In  In66  1  0.15686882  0.51360365  0.67429764  1
  In  In67  1  -0.00811017  0.67902056  0.67913755  1
  In  In68  1  0.02215658  0.36080309  0.66457235  1
  In  In69  1  0.34004219  0.82080731  0.82657050  1
  In  In70  1  0.65310525  0.34795962  0.01511314  1
  In  In71  1  0.50351224  0.16507630  0.31197212  1
  Te  Te72  1  0.10365686  0.10952843  0.07251671  1
  Te  Te73  1  0.08392740  0.09002215  0.43386213  1
  Te  Te74  1  0.07894292  0.07922249  0.75529031  1
  Te  Te75  1  0.08725896  0.42477171  0.08688529  1
  Te  Te76  1  0.08819889  0.41402774  0.42616924  1
  Te  Te77  1  0.12056790  0.40186547  0.77216008  1
  Te  Te78  1  0.08328789  0.75123054  0.08275052  1
  Te  Te79  1  0.05963247  0.77704954  0.42875217  1
  Te  Te80  1  0.08994880  0.76621140  0.75880840  1
  Te  Te81  1  0.41590348  0.08722095  0.10047981  1
  Te  Te82  1  0.42606827  0.07743044  0.40978383  1
  Te  Te83  1  0.41018154  0.09455526  0.74168061  1
  Te  Te84  1  0.40544602  0.41085727  0.06858396  1
  Te  Te85  1  0.41397121  0.44917312  0.38484989  1
  Te  Te86  1  0.42450707  0.44492374  0.75765433  1
  Te  Te87  1  0.42967267  0.76059783  0.07535567  1
  Te  Te88  1  0.40238926  0.77713350  0.45007797  1
  Te  Te89  1  0.41876200  0.73802008  0.72859173  1
  Te  Te90  1  0.71576199  0.03816811  0.04138479  1
  Te  Te91  1  0.78315571  0.09578805  0.42265659  1
  Te  Te92  1  0.75416811  0.08994890  0.76266262  1
  Te  Te93  1  0.73541498  0.43346042  0.10804120  1
  Te  Te94  1  0.74446035  0.41756637  0.40479897  1
  Te  Te95  1  0.73988724  0.43045473  0.76537956  1
  Te  Te96  1  0.72666516  0.76000110  0.10236725  1
  Te  Te97  1  0.73133885  0.73722455  0.40893286  1
  Te  Te98  1  0.71414514  0.77411904  0.72068683  1
  Te  Te99  1  0.10364296  0.26931248  0.23835073  1
  Te  Te100  1  0.08035628  0.23243340  0.61113219  1
  Te  Te101  1  0.07372470  0.24881288  0.90199133  1
  Te  Te102  1  0.08154729  0.58289091  0.25298824  1
  Te  Te103  1  0.08823032  0.61234782  0.58034308  1
  Te  Te104  1  0.08957723  0.56794735  0.93798789  1
  Te  Te105  1  0.09259366  0.94149934  0.24665892  1
  Te  Te106  1  0.09592605  0.89449944  0.58763031  1
  Te  Te107  1  0.08367868  0.94808587  0.90938702  1
  Te  Te108  1  0.40440023  0.25902318  0.24706601  1
  Te  Te109  1  0.40990335  0.27226556  0.57224196  1
  Te  Te110  1  0.44422500  0.27667578  0.91536511  1
  Te  Te111  1  0.40290737  0.58700126  0.27852015  1
  Te  Te112  1  0.44122912  0.56702278  0.59206844  1
  Te  Te113  1  0.40955493  0.60377406  0.91702430  1
  Te  Te114  1  0.42346392  0.89626394  0.23933849  1
  Te  Te115  1  0.42087595  0.90318276  0.55925371  1
  Te  Te116  1  0.43629669  0.90750876  0.90491128  1
  Te  Te117  1  0.73903066  0.22593012  0.23039147  1
  Te  Te118  1  0.72972325  0.21561058  0.58491660  1
  Te  Te119  1  0.74602355  0.24369337  0.94596079  1
  Te  Te120  1  0.76710437  0.55342332  0.20396545  1
  Te  Te121  1  0.75609014  0.58505618  0.58681046  1
  Te  Te122  1  0.75261010  0.58335601  0.93494659  1
  Te  Te123  1  0.74813736  0.90943151  0.24785414  1
  Te  Te124  1  0.75421590  0.93000364  0.56144506  1
  Te  Te125  1  0.74216694  0.91298221  0.93093659  1
  Te  Te126  1  0.25082174  0.27801713  0.02681930  1
  Te  Te127  1  0.26079584  0.26582451  0.40758930  1
  Te  Te128  1  0.26048121  0.23729599  0.75363323  1
  Te  Te129  1  0.25991857  0.58534301  0.07834723  1
  Te  Te130  1  0.23934575  0.61297053  0.43228720  1
  Te  Te131  1  0.25997918  0.59395639  0.74671387  1
  Te  Te132  1  0.27328939  0.90318587  0.08444823  1
  Te  Te133  1  0.24011321  0.93529906  0.42614533  1
  Te  Te134  1  0.25852406  0.91670333  0.74445112  1
  Te  Te135  1  0.59263060  0.23532290  0.09757955  1
  Te  Te136  1  0.58323146  0.24074536  0.41720845  1
  Te  Te137  1  0.57167287  0.26316818  0.74813888  1
  Te  Te138  1  0.56819356  0.56618460  0.10469113  1
  Te  Te139  1  0.58062152  0.58875771  0.40115355  1
  Te  Te140  1  0.61679318  0.58915140  0.75666735  1
  Te  Te141  1  0.59405633  0.96789793  0.10652864  1
  Te  Te142  1  0.58420021  0.92679017  0.39988516  1
  Te  Te143  1  0.62169310  0.89255985  0.76060814  1
  Te  Te144  1  0.91664803  0.24132346  0.09132386  1
  Te  Te145  1  0.88091897  0.21262965  0.38929384  1
  Te  Te146  1  0.90790361  0.28596882  0.74380769  1
  Te  Te147  1  0.88974919  0.59449462  0.09826099  1
  Te  Te148  1  0.90030831  0.56857075  0.40412930  1
  Te  Te149  1  0.93409545  0.55398102  0.74558457  1
  Te  Te150  1  0.92585953  0.89231836  0.07996122  1
  Te  Te151  1  0.93410921  0.89894761  0.42854265  1
  Te  Te152  1  0.89772331  0.90116601  0.74571509  1
  Te  Te153  1  0.26303949  0.09891137  0.24406840  1
  Te  Te154  1  0.24225298  0.08726612  0.58274438  1
  Te  Te155  1  0.25570751  0.08150494  0.91881144  1
  Te  Te156  1  0.24202616  0.41337763  0.23970367  1
  Te  Te157  1  0.24477772  0.42721421  0.58239220  1
  Te  Te158  1  0.23848276  0.38858623  0.91618890  1
  Te  Te159  1  0.27327819  0.76638719  0.25570926  1
  Te  Te160  1  0.27700817  0.72564374  0.53812275  1
  Te  Te161  1  0.24678331  0.75023106  0.92322795  1
  Te  Te162  1  0.59080545  0.07081121  0.23586137  1
  Te  Te163  1  0.56103975  0.06251365  0.57185039  1
  Te  Te164  1  0.56866134  0.07404823  0.90173887  1
  Te  Te165  1  0.57587499  0.42371987  0.25238048  1
  Te  Te166  1  0.57977061  0.41088073  0.57812607  1
  Te  Te167  1  0.57040710  0.40441271  0.90705933  1
  Te  Te168  1  0.59389495  0.74318085  0.24305753  1
  Te  Te169  1  0.60085713  0.73442192  0.59759717  1
  Te  Te170  1  0.58806250  0.75718144  0.92784000  1
  Te  Te171  1  0.90790913  0.06726057  0.23474699  1
  Te  Te172  1  0.91675138  0.06621152  0.58193927  1
  Te  Te173  1  0.90260008  0.09604897  0.94139740  1
  Te  Te174  1  0.92019020  0.40402084  0.26963559  1
  Te  Te175  1  0.91337906  0.39290571  0.55369082  1
  Te  Te176  1  0.90214196  0.42822668  0.94741663  1
  Te  Te177  1  0.90249395  0.73290113  0.24926959  1
  Te  Te178  1  0.90157189  0.76015448  0.59859847  1
  Te  Te179  1  0.90668472  0.72611943  0.89501636  1
