# generated using pymatgen
data_In2Te3
_symmetry_space_group_name_H-M   'P 1'
_cell_length_a   18.78159851
_cell_length_b   18.77857566
_cell_length_c   18.77666856
_cell_angle_alpha   90.05152356
_cell_angle_beta   90.02840327
_cell_angle_gamma   90.05336481
_symmetry_Int_Tables_number   1
_chemical_formula_structural   In2Te3
_chemical_formula_sum   'In72 Te108'
_cell_volume   6622.36819964
_cell_formula_units_Z   36
loop_
 _symmetry_equiv_pos_site_id
 _symmetry_equiv_pos_as_xyz
  1  'x, y, z'
loop_
 _atom_site_type_symbol
 _atom_site_label
 _atom_site_symmetry_multiplicity
 _atom_site_fract_x
 _atom_site_fract_y
 _atom_site_fract_z
 _atom_site_occupancy
  In  In0  1  0.00374315  0.32529519  0.31509345  1
  In  In1  1  0.85004361  0.49285913  -0.03072853  1
  In  In2  1  0.64188444  0.18737150  0.47095712  1
  In  In3  1  0.69080072  -0.01876955  0.65018436  1
  In  In4  1  -0.00849135  0.83379738  0.83423584  1
  In  In5  1  0.14622662  0.68264147  0.83683730  1
  In  In6  1  0.50121838  0.33110529  0.18174297  1
  In  In7  1  0.34868815  0.33704000  0.00163044  1
  In  In8  1  0.85108313  0.16251855  0.67348628  1
  In  In9  1  0.68160219  0.34401563  -0.00420435  1
  In  In10  1  0.66008835  0.84717207  0.16604639  1
  In  In11  1  0.15179255  0.52243059  -0.01935133  1
  In  In12  1  0.16432892  0.65424203  0.51605808  1
  In  In13  1  0.47332641  0.13464860  0.01755959  1
  In  In14  1  0.64342882  -0.00095635  0.34429566  1
  In  In15  1  0.81468911  0.50922323  0.34691566  1
  In  In16  1  0.35057617  0.49284724  0.82518175  1
  In  In17  1  0.49812750  0.32899612  0.83591771  1
  In  In18  1  0.18511407  0.32684966  0.50088168  1
  In  In19  1  0.01167581  0.18875684  0.83407485  1
  In  In20  1  -0.01226786  0.51222204  0.17064219  1
  In  In21  1  0.34998416  0.83125287  0.51776435  1
  In  In22  1  0.67116455  0.34668700  0.67315525  1
  In  In23  1  0.00808029  0.14861081  0.50423348  1
  In  In24  1  0.00473060  0.18491768  0.13595712  1
  In  In25  1  0.82100374  0.17790165  -0.00955974  1
  In  In26  1  0.65583119  0.16187230  0.17183770  1
  In  In27  1  0.84030067  -0.01494851  0.17811118  1
  In  In28  1  0.33932005  0.47326695  0.17387885  1
  In  In29  1  0.49031190  0.00909161  0.83263786  1
  In  In30  1  0.34252774  0.47381361  0.49113839  1
  In  In31  1  0.53545292  0.64900571  0.13148851  1
  In  In32  1  0.82774452  -0.00926307  0.82276265  1
  In  In33  1  0.14962870  0.67096748  0.16691525  1
  In  In34  1  0.85189527  0.64955578  0.82381046  1
  In  In35  1  0.00526582  0.50320852  0.51465818  1
  In  In36  1  0.49077458  0.16273645  0.66923345  1
  In  In37  1  0.18999551  0.15666818  -0.01155456  1
  In  In38  1  -0.01384458  0.66974762  0.33900198  1
  In  In39  1  0.49028585  -0.01496720  0.49968821  1
  In  In40  1  0.00165688  -0.01686501  0.66408351  1
  In  In41  1  0.33596351  0.67478426  -0.00454613  1
  In  In42  1  -0.00589647  -0.02740307  0.35518497  1
  In  In43  1  0.34436606  0.16550736  0.51488968  1
  In  In44  1  0.17982779  -0.00079107  0.82787323  1
  In  In45  1  0.82266961  0.67613878  0.15717027  1
  In  In46  1  0.34792183  0.00869524  0.32370036  1
  In  In47  1  0.14007536  0.49659496  0.66362567  1
  In  In48  1  0.51972315  0.67415610  0.83749316  1
  In  In49  1  0.16577259  0.33852862  0.16022264  1
  In  In50  1  0.16452437  0.82896435  0.33804789  1
  In  In51  1  0.33514574  0.31060634  0.32132143  1
  In  In52  1  0.18587087  0.30613303  0.80326264  1
  In  In53  1  0.50059574  0.68428213  0.50613141  1
  In  In54  1  0.49857755  0.49511869  0.33155291  1
  In  In55  1  0.34002070  0.86322957  0.15961284  1
  In  In56  1  0.64507178  -0.01416945  -0.00917024  1
  In  In57  1  0.00600898  0.82073751  0.16783968  1
  In  In58  1  0.68770168  0.69564700  0.34450458  1
  In  In59  1  0.33513549  0.66544153  0.66455944  1
  In  In60  1  0.80178729  0.32046051  0.14762491  1
  In  In61  1  0.67155297  0.50839698  0.52685984  1
  In  In62  1  0.66056606  0.68502384  0.65117216  1
  In  In63  1  0.33795646  0.66435626  0.36008049  1
  In  In64  1  0.82254716  0.15195025  0.33176425  1
  In  In65  1  -0.00581095  -0.00521556  0.01723305  1
  In  In66  1  0.67066608  0.51849195  0.82699839  1
  In  In67  1  0.34020052  0.84886476  0.83467303  1
  In  In68  1  0.00673561  0.33994105  0.66707065  1
  In  In69  1  0.83708057  0.35279863  0.51061394  1
  In  In70  1  0.16822639  0.00830321  0.51995735  1
  In  In71  1  0.66119533  0.82981649  0.83693642  1
  Te  Te72  1  0.10155018  0.07699842  0.08728435  1
  Te  Te73  1  0.09540051  0.07711491  0.40200867  1
  Te  Te74  1  0.08089512  0.08683561  0.74636603  1
  Te  Te75  1  0.07499659  0.42800890  0.07711613  1
  Te  Te76  1  0.07885816  0.40744528  0.42257144  1
  Te  Te77  1  0.07062416  0.42222072  0.78234894  1
  Te  Te78  1  0.08985834  0.75656987  0.06433685  1
  Te  Te79  1  0.07590919  0.75023910  0.43314385  1
  Te  Te80  1  0.07660197  0.76309549  0.73459945  1
  Te  Te81  1  0.36887200  0.05179537  0.09528204  1
  Te  Te82  1  0.43640346  0.09773202  0.41370539  1
  Te  Te83  1  0.38912941  0.09375334  0.75690948  1
  Te  Te84  1  0.44431646  0.42976866  0.07429520  1
  Te  Te85  1  0.44118290  0.37785664  0.41622731  1
  Te  Te86  1  0.41375891  0.39686530  0.73359220  1
  Te  Te87  1  0.42723405  0.74987050  0.08942442  1
  Te  Te88  1  0.43221802  0.77500902  0.40093020  1
  Te  Te89  1  0.42678146  0.75492559  0.74600943  1
  Te  Te90  1  0.75560218  0.07799115  0.08684970  1
  Te  Te91  1  0.74470594  0.07417703  0.43325574  1
  Te  Te92  1  0.73946595  0.08931902  0.74987699  1
  Te  Te93  1  0.74523438  0.45244046  0.08701419  1
  Te  Te94  1  0.72781717  0.40895211  0.42101153  1
  Te  Te95  1  0.76207135  0.42248578  0.76163916  1
  Te  Te96  1  0.72878086  0.75416945  0.07319165  1
  Te  Te97  1  0.76003584  0.75258349  0.46165420  1
  Te  Te98  1  0.75623162  0.74959253  0.75121433  1
  Te  Te99  1  0.10096697  0.23036406  0.24848088  1
  Te  Te100  1  0.09334566  0.24158947  0.59114160  1
  Te  Te101  1  0.10042087  0.26514809  0.92908062  1
  Te  Te102  1  0.08584926  0.57628439  0.26884518  1
  Te  Te103  1  0.05185163  0.61482071  0.61390028  1
  Te  Te104  1  0.04784975  0.58862705  0.89853644  1
  Te  Te105  1  0.08958466  0.92374367  0.24469864  1
  Te  Te106  1  0.07953437  0.90123621  0.56877034  1
  Te  Te107  1  0.08442711  0.91957534  0.92049046  1
  Te  Te108  1  0.42094547  0.22147175  0.23974356  1
  Te  Te109  1  0.42471266  0.26774008  0.58746350  1
  Te  Te110  1  0.40934295  0.23062970  0.91317092  1
  Te  Te111  1  0.41151643  0.59004945  0.24602386  1
  Te  Te112  1  0.42175801  0.57415759  0.57776462  1
  Te  Te113  1  0.42987452  0.58079509  0.92114607  1
  Te  Te114  1  0.43841055  0.90965644  0.25878834  1
  Te  Te115  1  0.40108909  0.93667196  0.60786449  1
  Te  Te116  1  0.43257041  0.91440747  0.92992885  1
  Te  Te117  1  0.73120286  0.25577959  0.26725190  1
  Te  Te118  1  0.75545760  0.24162555  0.57835130  1
  Te  Te119  1  0.74689976  0.25899573  0.89330725  1
  Te  Te120  1  0.73357039  0.58753774  0.24606680  1
  Te  Te121  1  0.76916545  0.59567426  0.59667074  1
  Te  Te122  1  0.74725281  0.60022061  0.92954934  1
  Te  Te123  1  0.75097537  0.91131675  0.27407609  1
  Te  Te124  1  0.76208605  0.87705506  0.56786858  1
  Te  Te125  1  0.75899572  0.90685542  0.92890912  1
  Te  Te126  1  0.26611454  0.24703785  0.09203809  1
  Te  Te127  1  0.24579789  0.22252457  0.40929119  1
  Te  Te128  1  0.27085068  0.20581591  0.73837939  1
  Te  Te129  1  0.25303385  0.57491404  0.08784825  1
  Te  Te130  1  0.23989889  0.56382597  0.41951059  1
  Te  Te131  1  0.24332230  0.58186430  0.75644348  1
  Te  Te132  1  0.25646941  0.94557798  0.07207752  1
  Te  Te133  1  0.25819877  0.91726761  0.42118844  1
  Te  Te134  1  0.25274658  0.91161962  0.73218601  1
  Te  Te135  1  0.57993589  0.24461199  0.06668816  1
  Te  Te136  1  0.56473895  0.27638690  0.38559989  1
  Te  Te137  1  0.59259627  0.24198232  0.75390229  1
  Te  Te138  1  0.61775039  0.54714137  0.06638638  1
  Te  Te139  1  0.58656375  0.59187541  0.41681584  1
  Te  Te140  1  0.57343988  0.58206122  0.72807777  1
  Te  Te141  1  0.56387072  0.94665007  0.10764003  1
  Te  Te142  1  0.59257433  0.89482791  0.43897167  1
  Te  Te143  1  0.58482982  0.92319655  0.74468475  1
  Te  Te144  1  0.91716698  0.28005098  0.05526456  1
  Te  Te145  1  0.91753563  0.24928741  0.42116809  1
  Te  Te146  1  0.90486652  0.27246189  0.76449520  1
  Te  Te147  1  0.91997642  0.59813676  0.06869223  1
  Te  Te148  1  0.90255760  0.59049105  0.43971139  1
  Te  Te149  1  0.90848350  0.57711145  0.70826277  1
  Te  Te150  1  0.90151769  0.88971704  0.07686994  1
  Te  Te151  1  0.90493528  0.89330058  0.43944321  1
  Te  Te152  1  0.89526411  0.89446776  0.72861805  1
  Te  Te153  1  0.27700482  0.07955783  0.21530935  1
  Te  Te154  1  0.24671336  0.10005119  0.60950036  1
  Te  Te155  1  0.28047831  0.05908592  0.92230328  1
  Te  Te156  1  0.23663418  0.41779591  0.27094614  1
  Te  Te157  1  0.25531011  0.41370771  0.60460011  1
  Te  Te158  1  0.24956002  0.41640598  0.91569481  1
  Te  Te159  1  0.25787253  0.74731760  0.24718749  1
  Te  Te160  1  0.23823926  0.76092075  0.59628098  1
  Te  Te161  1  0.24175462  0.76705992  0.92275388  1
  Te  Te162  1  0.56203333  0.07046264  0.24121187  1
  Te  Te163  1  0.59102177  0.08314187  0.58025002  1
  Te  Te164  1  0.58534153  0.10056489  0.91478416  1
  Te  Te165  1  0.59691561  0.42174707  0.24829252  1
  Te  Te166  1  0.57430817  0.41423009  0.58518143  1
  Te  Te167  1  0.58124966  0.42903415  0.91579445  1
  Te  Te168  1  0.57964675  0.74177377  0.24621108  1
  Te  Te169  1  0.57669765  0.78763509  0.58075058  1
  Te  Te170  1  0.58005368  0.76123282  0.94090362  1
  Te  Te171  1  0.93042728  0.09229488  0.24161384  1
  Te  Te172  1  0.90429566  0.06140110  0.57214646  1
  Te  Te173  1  0.92109579  0.08061978  0.90948271  1
  Te  Te174  1  0.89687379  0.41447861  0.25096552  1
  Te  Te175  1  0.89986849  0.44213019  0.61816004  1
  Te  Te176  1  0.94269158  0.42398034  0.87828835  1
  Te  Te177  1  0.89757397  0.76328064  0.26045688  1
  Te  Te178  1  0.88864292  0.78349338  0.54914952  1
  Te  Te179  1  0.91356355  0.74292039  0.92081658  1
