# generated using pymatgen
data_In2Te3
_symmetry_space_group_name_H-M   'P 1'
_cell_length_a   18.88697741
_cell_length_b   18.89724219
_cell_length_c   18.89971857
_cell_angle_alpha   89.85892346
_cell_angle_beta   90.05525478
_cell_angle_gamma   90.04289979
_symmetry_Int_Tables_number   1
_chemical_formula_structural   In2Te3
_chemical_formula_sum   'In72 Te108'
_cell_volume   6745.50685377
_cell_formula_units_Z   36
loop_
 _symmetry_equiv_pos_site_id
 _symmetry_equiv_pos_as_xyz
  1  'x, y, z'
loop_
 _atom_site_type_symbol
 _atom_site_label
 _atom_site_symmetry_multiplicity
 _atom_site_fract_x
 _atom_site_fract_y
 _atom_site_fract_z
 _atom_site_occupancy
  In  In0  1  0.83505173  0.18315303  0.32290789  1
  In  In1  1  0.66122514  0.55077946  0.83218635  1
  In  In2  1  0.49827324  0.50247989  0.32253506  1
  In  In3  1  -0.00135831  0.34282932  0.34367719  1
  In  In4  1  0.32795569  0.16679988  0.13895429  1
  In  In5  1  0.66923191  0.49508357  0.48301939  1
  In  In6  1  0.16737753  0.81673423  0.32222412  1
  In  In7  1  0.85436393  0.84312109  0.69326993  1
  In  In8  1  0.52125004  0.52910511  0.03022816  1
  In  In9  1  0.49561423  0.33033296  0.47343766  1
  In  In10  1  0.85236105  -0.01912674  0.84253224  1
  In  In11  1  0.84493042  0.16110321  0.65204924  1
  In  In12  1  0.50580562  0.34222281  0.17810786  1
  In  In13  1  0.16984710  -0.01341337  0.51369597  1
  In  In14  1  0.65826190  0.18926256  0.16722998  1
  In  In15  1  0.49444436  0.14980073  0.66054035  1
  In  In16  1  0.50256392  -0.04350331  0.14038336  1
  In  In17  1  0.16339086  0.64113752  0.85069238  1
  In  In18  1  0.35871663  0.51052117  0.85439197  1
  In  In19  1  0.66950819  0.32977989  0.66915907  1
  In  In20  1  0.66560732  0.67895621  0.66889136  1
  In  In21  1  0.64632703  -0.01312167  0.02132363  1
  In  In22  1  0.34362492  0.69803102  0.02931347  1
  In  In23  1  0.14510085  0.67266241  0.15256482  1
  In  In24  1  0.00717122  0.51733621  0.85378127  1
  In  In25  1  0.86748635  0.46113083  0.64923726  1
  In  In26  1  0.48089549  0.83652702  0.67897148  1
  In  In27  1  0.35904717  -0.00640508  0.30263336  1
  In  In28  1  0.31752000  0.34560935  0.33283527  1
  In  In29  1  0.66237384  0.83335916  0.49561194  1
  In  In30  1  0.13194793  0.48259309  0.02117243  1
  In  In31  1  0.65407992  0.34993711  0.00655352  1
  In  In32  1  0.83856304  0.51164473  0.32726286  1
  In  In33  1  0.33019051  0.66478712  0.32179180  1
  In  In34  1  0.65047995  0.84470007  0.16986551  1
  In  In35  1  0.17558150  0.15556492  -0.00784818  1
  In  In36  1  0.82750766  0.65433017  0.49971103  1
  In  In37  1  0.50663797  0.15449825  0.33452394  1
  In  In38  1  0.00127247  0.66982591  0.67333684  1
  In  In39  1  0.30643474  0.83486099  0.81863813  1
  In  In40  1  0.02995868  0.14144979  0.82726493  1
  In  In41  1  0.32038657  0.32733707  -0.01221555  1
  In  In42  1  0.85893364  0.50788301  0.03013660  1
  In  In43  1  0.17176902  0.84130229  0.67310319  1
  In  In44  1  -0.01256762  -0.00955829  0.33795594  1
  In  In45  1  0.02507263  0.00340375  -0.02803834  1
  In  In46  1  0.18329168  -0.02613070  0.11609196  1
  In  In47  1  0.86915758  0.20051616  0.03600381  1
  In  In48  1  0.83563774  0.66178745  0.87552337  1
  In  In49  1  0.18338495  0.68033612  0.47838577  1
  In  In50  1  0.16908619  0.51405090  0.67651724  1
  In  In51  1  0.47059391  0.33137095  0.85997138  1
  In  In52  1  0.00938179  0.65710104  0.32794453  1
  In  In53  1  0.33866153  0.84235703  0.51369676  1
  In  In54  1  0.32144851  0.16277838  0.48006826  1
  In  In55  1  0.45380212  0.52671821  0.62378307  1
  In  In56  1  0.16827227  0.16904363  0.33577760  1
  In  In57  1  0.49383829  -0.01587722  0.83546249  1
  In  In58  1  0.65649328  0.65650061  0.31415311  1
  In  In59  1  0.82727921  0.32782696  0.84161427  1
  In  In60  1  0.65553148  0.14362662  0.82723405  1
  In  In61  1  0.32309499  0.49649629  0.17919842  1
  In  In62  1  -0.01745538  0.82865078  0.17749078  1
  In  In63  1  0.63834179  -0.00932487  0.66485900  1
  In  In64  1  0.82676682  0.82722351  0.00694786  1
  In  In65  1  0.84481475  0.00763621  0.49394433  1
  In  In66  1  0.04865249  0.28826166  0.66060867  1
  In  In67  1  0.65859854  -0.01986938  0.33611697  1
  In  In68  1  0.16058826  0.31018727  0.83460397  1
  In  In69  1  0.85499192  0.33343360  0.52051488  1
  In  In70  1  0.29774228  0.34309475  0.65615095  1
  In  In71  1  0.82723901  0.01023033  0.17359707  1
  Te  Te72  1  0.08169442  0.08436926  0.08828441  1
  Te  Te73  1  0.08399577  0.07415547  0.42068658  1
  Te  Te74  1  0.12047935  0.08083928  0.73142202  1
  Te  Te75  1  0.02735441  0.41289712  0.10154407  1
  Te  Te76  1  0.08246619  0.40910318  0.44543178  1
  Te  Te77  1  0.07574931  0.42105888  0.75694330  1
  Te  Te78  1  0.09069987  0.79198267  0.08431574  1
  Te  Te79  1  0.06653198  0.76280097  0.42114006  1
  Te  Te80  1  0.09091301  0.74566910  0.76801727  1
  Te  Te81  1  0.40520610  0.05562965  0.07412932  1
  Te  Te82  1  0.42201856  0.06460010  0.42339260  1
  Te  Te83  1  0.40829922  0.05804958  0.73753371  1
  Te  Te84  1  0.41653938  0.41820603  0.07285313  1
  Te  Te85  1  0.40114767  0.43730976  0.42029685  1
  Te  Te86  1  0.41079548  0.41531021  0.74452941  1
  Te  Te87  1  0.44716012  0.77735929  0.10004157  1
  Te  Te88  1  0.40550262  0.73399532  0.43247567  1
  Te  Te89  1  0.41033133  0.74378561  0.76849188  1
  Te  Te90  1  0.74681031  0.09507944  0.07605989  1
  Te  Te91  1  0.74888642  0.08352837  0.40264219  1
  Te  Te92  1  0.75888585  0.07082317  0.74365155  1
  Te  Te93  1  0.75757307  0.41577111  0.08613152  1
  Te  Te94  1  0.76895194  0.40552225  0.41539020  1
  Te  Te95  1  0.74529161  0.42658833  0.75955915  1
  Te  Te96  1  0.74622020  0.75130709  0.10602832  1
  Te  Te97  1  0.74667141  0.74123354  0.40821547  1
  Te  Te98  1  0.76201244  0.74592130  0.76538237  1
  Te  Te99  1  0.07632778  0.25098998  0.25377227  1
  Te  Te100  1  0.13732164  0.21041240  0.57513825  1
  Te  Te101  1  0.06338590  0.24727922  0.93024842  1
  Te  Te102  1  0.10500756  0.57096565  0.25293157  1
  Te  Te103  1  0.09165195  0.60005301  0.57637602  1
  Te  Te104  1  0.04995416  0.60644655  0.96967578  1
  Te  Te105  1  0.09196669  0.92470759  0.24418786  1
  Te  Te106  1  0.07570316  0.89177917  0.57413905  1
  Te  Te107  1  0.13730071  0.93135467  0.91393622  1
  Te  Te108  1  0.40353414  0.24447903  0.25477498  1
  Te  Te109  1  0.40937949  0.25450180  0.57418776  1
  Te  Te110  1  0.38795148  0.21513435  0.91210064  1
  Te  Te111  1  0.42811679  0.59613919  0.22570876  1
  Te  Te112  1  0.37450589  0.62096084  0.54709875  1
  Te  Te113  1  0.43372065  0.61373524  0.93747314  1
  Te  Te114  1  0.43008660  0.87572972  0.24559062  1
  Te  Te115  1  0.39395447  0.93819923  0.61316486  1
  Te  Te116  1  0.39184201  0.90896682  0.91824514  1
  Te  Te117  1  0.76165910  0.27189677  0.22940777  1
  Te  Te118  1  0.74156887  0.24019711  0.57264062  1
  Te  Te119  1  0.72808524  0.24369854  0.91915865  1
  Te  Te120  1  0.73911235  0.56649185  0.23127643  1
  Te  Te121  1  0.74879951  0.56457765  0.59529339  1
  Te  Te122  1  0.72935498  0.60524067  0.98015375  1
  Te  Te123  1  0.76481142  0.90349224  0.25879685  1
  Te  Te124  1  0.75117835  0.91024723  0.59264231  1
  Te  Te125  1  0.73862780  0.91704937  0.91972317  1
  Te  Te126  1  0.22721850  0.26973166  0.09096917  1
  Te  Te127  1  0.22734201  0.27331074  0.43358558  1
  Te  Te128  1  0.26000696  0.24015243  0.75389715  1
  Te  Te129  1  0.24971536  0.57380621  0.06937749  1
  Te  Te130  1  0.22154766  0.57878732  0.37684950  1
  Te  Te131  1  0.27307254  0.59213489  0.75760855  1
  Te  Te132  1  0.31021876  0.93203149  0.05392992  1
  Te  Te133  1  0.25685220  0.91467143  0.39970813  1
  Te  Te134  1  0.20317268  0.95479649  0.77354718  1
  Te  Te135  1  0.55539562  0.24789130  0.07027128  1
  Te  Te136  1  0.59248064  0.25896869  0.39061195  1
  Te  Te137  1  0.56992682  0.25385148  0.75993882  1
  Te  Te138  1  0.61827789  0.62050798  0.09164567  1
  Te  Te139  1  0.57012075  0.59139011  0.42465288  1
  Te  Te140  1  0.55471809  0.58153660  0.72008739  1
  Te  Te141  1  0.56235666  0.85692565  0.03105484  1
  Te  Te142  1  0.56303388  0.91953708  0.42901701  1
  Te  Te143  1  0.59431365  0.89103287  0.76931735  1
  Te  Te144  1  0.94406060  0.28432507  0.13052552  1
  Te  Te145  1  0.92821196  0.23418900  0.43209137  1
  Te  Te146  1  0.92095947  0.25579981  0.74622978  1
  Te  Te147  1  0.93871484  0.61891526  0.08286054  1
  Te  Te148  1  0.93260710  0.57135663  0.43090760  1
  Te  Te149  1  0.90702172  0.57781473  0.75383898  1
  Te  Te150  1  0.91988435  0.93677995  0.07686810  1
  Te  Te151  1  0.89783957  0.89932591  0.40926870  1
  Te  Te152  1  0.95358720  0.93764507  0.74611747  1
  Te  Te153  1  0.24960848  0.07707576  0.23738393  1
  Te  Te154  1  0.24364860  0.09517690  0.59080296  1
  Te  Te155  1  0.28232996  0.10220409  0.91142732  1
  Te  Te156  1  0.22240879  0.40757656  0.23913423  1
  Te  Te157  1  0.23036615  0.43689265  0.56612771  1
  Te  Te158  1  0.23494759  0.43106781  0.90777857  1
  Te  Te159  1  0.25711148  0.75319823  0.21945482  1
  Te  Te160  1  0.25977834  0.74090800  0.59869356  1
  Te  Te161  1  0.23996501  0.74672574  0.92859851  1
  Te  Te162  1  0.57669826  0.06787223  0.22912013  1
  Te  Te163  1  0.59144909  0.09061424  0.56893214  1
  Te  Te164  1  0.56484862  0.08092220  0.93032239  1
  Te  Te165  1  0.60067112  0.42955084  0.24607539  1
  Te  Te166  1  0.57747920  0.41463446  0.58033552  1
  Te  Te167  1  0.57579403  0.43837674  0.90588594  1
  Te  Te168  1  0.57198871  0.77198557  0.27296765  1
  Te  Te169  1  0.56650128  0.75163323  0.58203522  1
  Te  Te170  1  0.62724074  0.68111681  0.89355697  1
  Te  Te171  1  0.93077515  0.09570868  0.24289543  1
  Te  Te172  1  0.93925165  0.07033792  0.58778717  1
  Te  Te173  1  0.90510014  0.10154286  0.91925100  1
  Te  Te174  1  0.93872162  0.43927585  0.24193829  1
  Te  Te175  1  0.98969763  0.40293154  0.56527376  1
  Te  Te176  1  0.91966462  0.41364541  0.92580533  1
  Te  Te177  1  0.91256920  0.70399873  0.22300974  1
  Te  Te178  1  0.90937506  0.75108371  0.58363929  1
  Te  Te179  1  0.92346798  0.77423068  0.90869452  1
