# generated using pymatgen
data_In2Te3
_symmetry_space_group_name_H-M   'P 1'
_cell_length_a   18.78008068
_cell_length_b   18.77652686
_cell_length_c   18.76959212
_cell_angle_alpha   90.13157342
_cell_angle_beta   90.03335630
_cell_angle_gamma   89.99771609
_symmetry_Int_Tables_number   1
_chemical_formula_structural   In2Te3
_chemical_formula_sum   'In72 Te108'
_cell_volume   6618.60300880
_cell_formula_units_Z   36
loop_
 _symmetry_equiv_pos_site_id
 _symmetry_equiv_pos_as_xyz
  1  'x, y, z'
loop_
 _atom_site_type_symbol
 _atom_site_label
 _atom_site_symmetry_multiplicity
 _atom_site_fract_x
 _atom_site_fract_y
 _atom_site_fract_z
 _atom_site_occupancy
  In  In0  1  0.34334973  0.32078750  0.67467628  1
  In  In1  1  0.83299921  0.31362017  0.15466342  1
  In  In2  1  0.65458530  0.51713676  0.54995484  1
  In  In3  1  0.17709117  0.52993570  0.34841002  1
  In  In4  1  0.33468812  -0.01022190  0.35420978  1
  In  In5  1  0.67323686  0.33221948  0.67020784  1
  In  In6  1  0.30205417  0.83357307  0.14794197  1
  In  In7  1  0.31153032  0.01154012  0.64474953  1
  In  In8  1  0.00747956  0.33616681  -0.01831083  1
  In  In9  1  0.49251569  0.01771926  0.16202100  1
  In  In10  1  0.34530239  0.63355903  0.35686895  1
  In  In11  1  -0.00321028  0.15465129  0.53509874  1
  In  In12  1  0.02897213  0.68716825  0.35656364  1
  In  In13  1  0.83477291  0.49773280  0.33393865  1
  In  In14  1  0.83960942  0.13444738  0.34536747  1
  In  In15  1  0.51819209  0.69350899  0.53976043  1
  In  In16  1  0.34433945  0.66958045  -0.03262657  1
  In  In17  1  0.66278400  0.51043633  0.16464807  1
  In  In18  1  0.66885979  0.51987711  0.79780735  1
  In  In19  1  0.31581233  0.49084578  0.12966672  1
  In  In20  1  0.31641418  0.17065232  0.82896268  1
  In  In21  1  0.66675618  -0.02175720  0.37704639  1
  In  In22  1  0.32825659  0.31457376  0.34832154  1
  In  In23  1  0.35403727  0.68678931  0.68089674  1
  In  In24  1  0.67672590  0.83481019  0.17132929  1
  In  In25  1  0.01966996  0.02322386  0.34029723  1
  In  In26  1  0.33252014  0.50564822  0.48306251  1
  In  In27  1  0.01416969  0.19371757  0.15680122  1
  In  In28  1  0.17769318  0.33106963  0.82251241  1
  In  In29  1  0.00463362  0.33004947  0.32444823  1
  In  In30  1  0.66675828  0.00109950  -0.02198512  1
  In  In31  1  0.82157361  0.68412580  0.81325334  1
  In  In32  1  -0.01227649  0.69196850  0.66970741  1
  In  In33  1  0.65983351  0.15725822  0.15384434  1
  In  In34  1  0.50642122  0.66995485  0.16941103  1
  In  In35  1  0.84063103  0.82139182  0.37850874  1
  In  In36  1  0.84313475  0.49103019  -0.02121927  1
  In  In37  1  0.15800291  0.68437581  0.82745069  1
  In  In38  1  0.15436019  0.82034765  0.36810938  1
  In  In39  1  0.15922164  0.66871644  0.18291377  1
  In  In40  1  -0.02280134  0.83823365  0.15723875  1
  In  In41  1  0.15776055  0.00083264  0.80235916  1
  In  In42  1  0.16291843  0.32076193  0.17366166  1
  In  In43  1  0.49163848  0.16450070  0.35552758  1
  In  In44  1  0.34258413  0.15292955  0.16214079  1
  In  In45  1  0.84744594  -0.01278495  0.79745395  1
  In  In46  1  0.16090304  0.49637982  0.67479854  1
  In  In47  1  0.52088661  0.81978577  -0.04557337  1
  In  In48  1  0.33658768  0.83213079  0.51849192  1
  In  In49  1  0.16050162  0.30015412  0.50397835  1
  In  In50  1  -0.01142082  0.16789514  0.81180410  1
  In  In51  1  0.49204141  0.50212550  -0.01042092  1
  In  In52  1  0.83618163  0.84578471  -0.00983772  1
  In  In53  1  0.84188999  0.00506743  0.52141698  1
  In  In54  1  0.50728615  0.17255412  0.65768386  1
  In  In55  1  0.15848978  0.48192128  -0.03099895  1
  In  In56  1  0.83121669  0.32970287  0.53008646  1
  In  In57  1  -0.01927702  0.67122828  -0.02190494  1
  In  In58  1  0.51733506  -0.00892933  0.82811417  1
  In  In59  1  -0.01788560  0.49385382  0.51594276  1
  In  In60  1  0.51882952  0.86421278  0.34945906  1
  In  In61  1  0.68820595  0.29851970  -0.03507916  1
  In  In62  1  0.16616857  0.85165581  -0.02108197  1
  In  In63  1  0.67743443  -0.00436019  0.67344203  1
  In  In64  1  0.82240162  0.65948949  0.15276991  1
  In  In65  1  0.32126393  0.33084886  -0.00541019  1
  In  In66  1  0.51535105  0.49687371  0.34813468  1
  In  In67  1  0.16235532  0.00493621  0.15840535  1
  In  In68  1  0.80858348  0.67370943  0.52948007  1
  In  In69  1  0.82434956  -0.01519787  0.14118998  1
  In  In70  1  0.50219155  0.34387900  0.82073413  1
  In  In71  1  0.65607138  0.33005193  0.35181521  1
  Te  Te72  1  0.08309944  0.09397829  0.07235804  1
  Te  Te73  1  0.10167812  0.08091320  0.45336707  1
  Te  Te74  1  0.07228812  0.08907279  0.71457856  1
  Te  Te75  1  0.08375517  0.41974117  0.08726503  1
  Te  Te76  1  0.08719755  0.41946162  0.41840143  1
  Te  Te77  1  0.07182724  0.40809833  0.75285922  1
  Te  Te78  1  0.08076821  0.75214577  0.07554831  1
  Te  Te79  1  0.06063573  0.77330647  0.47514432  1
  Te  Te80  1  0.09098912  0.78290505  0.73325414  1
  Te  Te81  1  0.42493161  0.09174182  0.05479478  1
  Te  Te82  1  0.42954857  0.06158895  0.44120337  1
  Te  Te83  1  0.41328646  0.08497657  0.74632461  1
  Te  Te84  1  0.42731664  0.39875015  0.08404055  1
  Te  Te85  1  0.42965865  0.40013771  0.42797651  1
  Te  Te86  1  0.42735732  0.43114011  0.72699876  1
  Te  Te87  1  0.41836285  0.75585734  0.07699598  1
  Te  Te88  1  0.42739336  0.74998633  0.41537758  1
  Te  Te89  1  0.46334900  0.73885599  0.77206391  1
  Te  Te90  1  0.76097264  0.09378493  0.05783007  1
  Te  Te91  1  0.73697593  0.09556241  0.44822406  1
  Te  Te92  1  0.73873768  0.09151640  0.77402156  1
  Te  Te93  1  0.74579029  0.41328074  0.07707887  1
  Te  Te94  1  0.74459891  0.42600188  0.43494688  1
  Te  Te95  1  0.76062105  0.40462576  0.76870021  1
  Te  Te96  1  0.74010156  0.74926529  0.06085761  1
  Te  Te97  1  0.72477482  0.74930224  0.43210741  1
  Te  Te98  1  0.71148442  0.76179789  0.74795448  1
  Te  Te99  1  0.10525277  0.22504197  0.27850325  1
  Te  Te100  1  0.05630180  0.27187005  0.60499532  1
  Te  Te101  1  0.09612124  0.23702979  0.90944784  1
  Te  Te102  1  0.06473168  0.57433590  0.25406342  1
  Te  Te103  1  0.07586944  0.59014168  0.58839538  1
  Te  Te104  1  0.06708381  0.57770648  0.89242632  1
  Te  Te105  1  0.08417652  0.90159824  0.25026691  1
  Te  Te106  1  0.05464294  0.88581887  0.60317560  1
  Te  Te107  1  0.06824553  0.92099148  0.89500557  1
  Te  Te108  1  0.42512798  0.24994704  0.24724563  1
  Te  Te109  1  0.40568442  0.23747318  0.56943947  1
  Te  Te110  1  0.41961946  0.25091139  0.91063940  1
  Te  Te111  1  0.41547150  0.56544404  0.23524786  1
  Te  Te112  1  0.41951636  0.58638196  0.58339566  1
  Te  Te113  1  0.42954115  0.58365598  0.88156371  1
  Te  Te114  1  0.41096377  0.90818344  0.23994863  1
  Te  Te115  1  0.42061846  0.91251569  0.61016081  1
  Te  Te116  1  0.41894857  0.91462784  0.91044696  1
  Te  Te117  1  0.75332823  0.23945525  0.26221444  1
  Te  Te118  1  0.75011360  0.22761764  0.59621724  1
  Te  Te119  1  0.77561578  0.21342392  0.87683678  1
  Te  Te120  1  0.73905527  0.59623622  0.26544959  1
  Te  Te121  1  0.76990102  0.56953642  0.63009308  1
  Te  Te122  1  0.75070933  0.58999884  0.91312818  1
  Te  Te123  1  0.76821037  0.91919234  0.26850489  1
  Te  Te124  1  0.76250775  0.89850856  0.59150611  1
  Te  Te125  1  0.74305324  0.90716696  0.88703726  1
  Te  Te126  1  0.24050478  0.23208370  0.07700479  1
  Te  Te127  1  0.26945624  0.21518073  0.44471820  1
  Te  Te128  1  0.22938553  0.23061821  0.71905815  1
  Te  Te129  1  0.23476265  0.60087556  0.05991118  1
  Te  Te130  1  0.23023873  0.62137849  0.45684204  1
  Te  Te131  1  0.25230480  0.59037892  0.75222402  1
  Te  Te132  1  0.26287385  0.94670981  0.05667427  1
  Te  Te133  1  0.23365348  0.92310360  0.44750956  1
  Te  Te134  1  0.24898232  0.90446337  0.72851702  1
  Te  Te135  1  0.59083719  0.25356541  0.06680101  1
  Te  Te136  1  0.57929248  0.24563640  0.44331336  1
  Te  Te137  1  0.59440345  0.23674238  0.76484139  1
  Te  Te138  1  0.58883595  0.59756684  0.06299562  1
  Te  Te139  1  0.58825431  0.59508717  0.43616426  1
  Te  Te140  1  0.56105800  0.61544205  0.75250911  1
  Te  Te141  1  0.58196357  0.91370054  0.08144287  1
  Te  Te142  1  0.56926658  0.92402594  0.47658270  1
  Te  Te143  1  0.57024851  0.89867806  0.72083664  1
  Te  Te144  1  0.91080420  0.23790636  0.04976728  1
  Te  Te145  1  0.91738640  0.24659799  0.41837893  1
  Te  Te146  1  0.88003273  0.26973304  0.78039501  1
  Te  Te147  1  0.92530260  0.57288935  0.08152958  1
  Te  Te148  1  0.91092000  0.59684129  0.42463094  1
  Te  Te149  1  0.90682887  0.58686090  0.73844871  1
  Te  Te150  1  0.94158662  0.94119248  0.05210752  1
  Te  Te151  1  0.93825448  0.92902221  0.42871776  1
  Te  Te152  1  0.94634416  0.91735364  0.69608202  1
  Te  Te153  1  0.25188655  0.07780561  0.26014452  1
  Te  Te154  1  0.21670451  0.09096292  0.56215800  1
  Te  Te155  1  0.23412987  0.07757161  0.90715666  1
  Te  Te156  1  0.25201038  0.42220775  0.25838596  1
  Te  Te157  1  0.24713043  0.41478342  0.57330294  1
  Te  Te158  1  0.27640660  0.43082714  0.88922110  1
  Te  Te159  1  0.26005156  0.74624764  0.26913674  1
  Te  Te160  1  0.24447697  0.76653998  0.61684453  1
  Te  Te161  1  0.26629849  0.77532430  0.89074767  1
  Te  Te162  1  0.59806854  0.06800802  0.26359953  1
  Te  Te163  1  0.58321421  0.06857933  0.58111122  1
  Te  Te164  1  0.57316551  0.09693741  0.91772921  1
  Te  Te165  1  0.58107331  0.40723239  0.24233244  1
  Te  Te166  1  0.56477526  0.41639147  0.60864207  1
  Te  Te167  1  0.60209496  0.42316057  0.91129571  1
  Te  Te168  1  0.59030538  0.75266997  0.26612849  1
  Te  Te169  1  0.62438738  0.76150744  0.61680805  1
  Te  Te170  1  0.59868072  0.72895670  0.86338657  1
  Te  Te171  1  0.92297668  0.07918944  0.22868698  1
  Te  Te172  1  0.90554301  0.08554792  0.63189957  1
  Te  Te173  1  0.92336145  0.06577497  0.89886157  1
  Te  Te174  1  0.91683387  0.41574143  0.23343779  1
  Te  Te175  1  0.92289856  0.40580431  0.61865090  1
  Te  Te176  1  0.91955581  0.40656513  0.88228361  1
  Te  Te177  1  0.90840836  0.74370199  0.25532995  1
  Te  Te178  1  0.88170318  0.78452966  0.60573899  1
  Te  Te179  1  0.92450637  0.77578035  0.88490127  1
