# generated using pymatgen
data_In2Te3
_symmetry_space_group_name_H-M   'P 1'
_cell_length_a   18.75287780
_cell_length_b   18.74519151
_cell_length_c   18.74535860
_cell_angle_alpha   90.03923009
_cell_angle_beta   90.02199101
_cell_angle_gamma   89.99471149
_symmetry_Int_Tables_number   1
_chemical_formula_structural   In2Te3
_chemical_formula_sum   'In72 Te108'
_cell_volume   6589.48422553
_cell_formula_units_Z   36
loop_
 _symmetry_equiv_pos_site_id
 _symmetry_equiv_pos_as_xyz
  1  'x, y, z'
loop_
 _atom_site_type_symbol
 _atom_site_label
 _atom_site_symmetry_multiplicity
 _atom_site_fract_x
 _atom_site_fract_y
 _atom_site_fract_z
 _atom_site_occupancy
  In  In0  1  0.34430443  0.49126261  0.47550775  1
  In  In1  1  0.33397986  0.34062741  -0.00800134  1
  In  In2  1  0.51971326  0.86345053  0.67853967  1
  In  In3  1  0.14793581  -0.02999028  0.18698280  1
  In  In4  1  -0.02273036  0.49253989  0.50068465  1
  In  In5  1  0.33100768  0.17403152  0.14371312  1
  In  In6  1  0.14677436  0.63873075  0.82984810  1
  In  In7  1  0.36313095  0.17409731  0.81662402  1
  In  In8  1  0.83328555  -0.02065959  0.52791148  1
  In  In9  1  0.15549889  0.66662404  0.16635536  1
  In  In10  1  0.48060579  0.33951264  0.51129359  1
  In  In11  1  0.16372959  0.17882230  0.66238976  1
  In  In12  1  0.36243255  -0.01216726  -0.00337783  1
  In  In13  1  0.35836587  0.01589301  0.68070726  1
  In  In14  1  0.33108963  0.68866057  0.67280007  1
  In  In15  1  0.66819698  -0.01187588  0.36077613  1
  In  In16  1  0.15454577  0.31191359  0.50549113  1
  In  In17  1  0.50887707  0.33784233  0.14957063  1
  In  In18  1  0.67075352  0.50796957  0.50007753  1
  In  In19  1  0.83985689  0.34448898  0.14752323  1
  In  In20  1  0.14588689  0.48946091  0.67658023  1
  In  In21  1  0.00392513  0.81858217  0.49373560  1
  In  In22  1  0.83927866  0.65509296  0.50539970  1
  In  In23  1  0.85653105  0.17097154  0.31727453  1
  In  In24  1  0.00444312  0.35624026  -0.00304670  1
  In  In25  1  0.49968560  0.16711805  0.31718339  1
  In  In26  1  0.32903359  0.67282357  0.01465189  1
  In  In27  1  0.66518244  0.85758747  0.51476058  1
  In  In28  1  0.83302313  0.66651185  0.15198779  1
  In  In29  1  0.82532752  0.33757339  0.51477667  1
  In  In30  1  0.49407337  0.66677333  0.48421778  1
  In  In31  1  0.16171352  0.83951578  0.01441047  1
  In  In32  1  0.67036851  0.64818468  0.31132166  1
  In  In33  1  -0.00828079  0.49379922  0.83462012  1
  In  In34  1  0.17791788  0.17754854  0.01143044  1
  In  In35  1  0.16609471  -0.00537474  0.84494648  1
  In  In36  1  0.65504146  0.00771962  -0.00217390  1
  In  In37  1  0.49389750  0.65766438  0.15145372  1
  In  In38  1  0.64689766  0.18903361  0.13929210  1
  In  In39  1  0.68808451  0.69519215  0.69677344  1
  In  In40  1  0.82906298  0.15921579  0.68586829  1
  In  In41  1  0.33613182  -0.01475294  0.32735637  1
  In  In42  1  0.16309572  -0.00311240  0.47108126  1
  In  In43  1  0.16606925  0.17292551  0.34452803  1
  In  In44  1  0.51911684  0.51286773  0.68534418  1
  In  In45  1  0.35010592  0.83526580  0.84639966  1
  In  In46  1  0.67706202  0.81074454  0.16303098  1
  In  In47  1  0.14493423  0.68361778  0.48387767  1
  In  In48  1  -0.03715873  -0.01998989  0.69448460  1
  In  In49  1  0.18748603  0.48942638  0.29397333  1
  In  In50  1  0.53470186  0.49985805  -0.00704438  1
  In  In51  1  0.15672563  0.50134959  0.01256815  1
  In  In52  1  0.66365977  0.18652865  0.82818755  1
  In  In53  1  0.65721858  0.35116189  0.33426460  1
  In  In54  1  -0.02990465  0.00734371  -0.01042877  1
  In  In55  1  -0.03647930  0.67221123  0.67883376  1
  In  In56  1  -0.00575516  0.17309656  0.16242385  1
  In  In57  1  0.82637812  0.84488492  -0.01074325  1
  In  In58  1  0.33923114  0.19757129  0.51225557  1
  In  In59  1  0.83228937  0.01448645  0.14978183  1
  In  In60  1  -0.01357842  0.34897187  0.32982747  1
  In  In61  1  0.33688648  0.67452243  0.30475676  1
  In  In62  1  0.49946092  -0.01006442  0.15696148  1
  In  In63  1  -0.02403496  0.17072325  0.84552482  1
  In  In64  1  0.70055789  0.46951994  0.82449535  1
  In  In65  1  0.35230875  0.33600697  0.66939767  1
  In  In66  1  0.15985578  0.81440609  0.65787623  1
  In  In67  1  0.83837497  0.81445938  0.34088724  1
  In  In68  1  0.51544805  0.00478728  0.51427993  1
  In  In69  1  0.35665707  0.50115634  0.86255025  1
  In  In70  1  0.81757726  0.50664085  0.00702169  1
  In  In71  1  0.66782728  0.15564844  0.52428451  1
  Te  Te72  1  0.08699606  0.07242611  0.07619594  1
  Te  Te73  1  0.06639755  0.09517009  0.42131410  1
  Te  Te74  1  0.07772997  0.08250696  0.75579273  1
  Te  Te75  1  0.07035445  0.42696612  0.10831812  1
  Te  Te76  1  0.09140942  0.42514248  0.42150952  1
  Te  Te77  1  0.06752445  0.39277990  0.75369194  1
  Te  Te78  1  0.06676067  0.74493669  0.07405378  1
  Te  Te79  1  0.07789251  0.76262353  0.37303615  1
  Te  Te80  1  0.06856294  0.75143057  0.76123125  1
  Te  Te81  1  0.44049420  0.10034005  0.06849960  1
  Te  Te82  1  0.41439811  0.09063161  0.42152434  1
  Te  Te83  1  0.45511207  0.05610066  0.78772946  1
  Te  Te84  1  0.41888116  0.43814499  0.07424586  1
  Te  Te85  1  0.43711437  0.41432542  0.39103988  1
  Te  Te86  1  0.44068196  0.41164861  0.77019235  1
  Te  Te87  1  0.42035504  0.76721320  0.08078208  1
  Te  Te88  1  0.40223691  0.75567978  0.41286253  1
  Te  Te89  1  0.44896287  0.74416882  0.75725126  1
  Te  Te90  1  0.75793248  0.11440404  0.05798429  1
  Te  Te91  1  0.76533918  0.08954476  0.42339712  1
  Te  Te92  1  0.73606646  0.06996459  0.76034907  1
  Te  Te93  1  0.72716936  0.40944555  0.07706893  1
  Te  Te94  1  0.76634264  0.43049726  0.40818998  1
  Te  Te95  1  0.78169729  0.39875484  0.72214370  1
  Te  Te96  1  0.73788414  0.73060418  0.04925195  1
  Te  Te97  1  0.73081013  0.74444043  0.42676827  1
  Te  Te98  1  0.79166762  0.76291720  0.78334606  1
  Te  Te99  1  0.08250858  0.26105640  0.24899711  1
  Te  Te100  1  0.05601152  0.26129310  0.60287371  1
  Te  Te101  1  0.08727941  0.25275091  0.91538880  1
  Te  Te102  1  0.07552728  0.57426236  0.25279432  1
  Te  Te103  1  0.07617547  0.59698013  0.59366099  1
  Te  Te104  1  0.05423346  0.59290162  0.94101016  1
  Te  Te105  1  0.06881303  0.88706771  0.27572866  1
  Te  Te106  1  0.07654996  0.92294385  0.58994579  1
  Te  Te107  1  0.06409273  0.90866424  0.91489898  1
  Te  Te108  1  0.40814602  0.26252476  0.24417417  1
  Te  Te109  1  0.45174635  0.22108017  0.61780385  1
  Te  Te110  1  0.43110357  0.25475303  0.92058945  1
  Te  Te111  1  0.42059391  0.56855623  0.24552490  1
  Te  Te112  1  0.41487141  0.57497108  0.59060207  1
  Te  Te113  1  0.44474777  0.61599761  0.92027104  1
  Te  Te114  1  0.42177407  0.89976181  0.24319775  1
  Te  Te115  1  0.41017320  0.91305079  0.58099183  1
  Te  Te116  1  0.45804611  0.91746907  0.90627410  1
  Te  Te117  1  0.74679795  0.25020278  0.24743908  1
  Te  Te118  1  0.73265754  0.26246082  0.61114456  1
  Te  Te119  1  0.77754408  0.20346025  0.92685846  1
  Te  Te120  1  0.76793209  0.56420237  0.24115326  1
  Te  Te121  1  0.74979386  0.58420749  0.60648523  1
  Te  Te122  1  0.75083948  0.58850481  0.89985961  1
  Te  Te123  1  0.75039063  0.91876687  0.24802748  1
  Te  Te124  1  0.73501624  0.92706380  0.62876844  1
  Te  Te125  1  0.70670632  0.89619636  0.90847153  1
  Te  Te126  1  0.23079221  0.29106327  0.10290628  1
  Te  Te127  1  0.26534447  0.27509424  0.40449424  1
  Te  Te128  1  0.25081471  0.26118964  0.75793205  1
  Te  Te129  1  0.26305415  0.56732569  0.09905807  1
  Te  Te130  1  0.24107490  0.58496525  0.41283803  1
  Te  Te131  1  0.26468802  0.57361158  0.75150022  1
  Te  Te132  1  0.26379073  0.92199887  0.09268042  1
  Te  Te133  1  0.24327258  0.89630688  0.40121099  1
  Te  Te134  1  0.25220736  0.91279514  0.74533839  1
  Te  Te135  1  0.58324476  0.27387801  0.03393566  1
  Te  Te136  1  0.58461297  0.24192631  0.42383623  1
  Te  Te137  1  0.56620942  0.23480886  0.72651201  1
  Te  Te138  1  0.60838815  0.59532816  0.07901617  1
  Te  Te139  1  0.57203722  0.56682262  0.39911338  1
  Te  Te140  1  0.60171623  0.59639296  0.78222707  1
  Te  Te141  1  0.58279956  0.89269123  0.07321341  1
  Te  Te142  1  0.55792896  0.89807710  0.41070412  1
  Te  Te143  1  0.63512472  0.90390854  0.76222396  1
  Te  Te144  1  0.91384291  0.24348076  0.05665637  1
  Te  Te145  1  0.92201899  0.25243884  0.42973487  1
  Te  Te146  1  0.89612805  0.26833759  0.76447184  1
  Te  Te147  1  0.92847207  0.58675150  0.06744923  1
  Te  Te148  1  0.93346299  0.59815010  0.40773399  1
  Te  Te149  1  0.88921898  0.58226186  0.77051062  1
  Te  Te150  1  0.92317126  0.90499828  0.09394834  1
  Te  Te151  1  0.91823586  0.92206133  0.41508906  1
  Te  Te152  1  0.89329981  0.88458203  0.78287850  1
  Te  Te153  1  0.24808528  0.08905947  0.24219584  1
  Te  Te154  1  0.25462031  0.08399232  0.58003020  1
  Te  Te155  1  0.26364179  0.08744488  0.91776696  1
  Te  Te156  1  0.26236819  0.37963942  0.23504725  1
  Te  Te157  1  0.25203409  0.41616471  0.58349117  1
  Te  Te158  1  0.23372179  0.42107708  0.90612446  1
  Te  Te159  1  0.24213454  0.76496063  0.23611566  1
  Te  Te160  1  0.26017684  0.75869375  0.55712017  1
  Te  Te161  1  0.23904419  0.74548295  0.90372990  1
  Te  Te162  1  0.60162007  0.07784704  0.24586458  1
  Te  Te163  1  0.59021812  0.07467331  0.62145222  1
  Te  Te164  1  0.57095973  0.09002988  0.90442412  1
  Te  Te165  1  0.59772760  0.43056216  0.22559207  1
  Te  Te166  1  0.58915372  0.41485298  0.59059919  1
  Te  Te167  1  0.60207798  0.39431636  0.90900716  1
  Te  Te168  1  0.57453211  0.75089782  0.25660933  1
  Te  Te169  1  0.58320018  0.74020073  0.58813432  1
  Te  Te170  1  0.54708276  0.72472888  0.87721880  1
  Te  Te171  1  0.93984717  0.06149487  0.25162860  1
  Te  Te172  1  0.92382801  0.08607380  0.58898496  1
  Te  Te173  1  0.87235373  0.06977442  0.89301704  1
  Te  Te174  1  0.90510728  0.43756209  0.24355263  1
  Te  Te175  1  0.89636141  0.43124219  0.61144724  1
  Te  Te176  1  0.89008579  0.40630755  0.91140496  1
  Te  Te177  1  0.92221696  0.75192205  0.23747917  1
  Te  Te178  1  0.89207013  0.77329323  0.58827276  1
  Te  Te179  1  0.90647341  0.76056148  0.89351695  1
