# generated using pymatgen
data_In2Te3
_symmetry_space_group_name_H-M   'P 1'
_cell_length_a   18.96773810
_cell_length_b   18.95215387
_cell_length_c   18.96162366
_cell_angle_alpha   89.99226730
_cell_angle_beta   90.01482443
_cell_angle_gamma   90.14309842
_symmetry_Int_Tables_number   1
_chemical_formula_structural   In2Te3
_chemical_formula_sum   'In72 Te108'
_cell_volume   6816.29327025
_cell_formula_units_Z   36
loop_
 _symmetry_equiv_pos_site_id
 _symmetry_equiv_pos_as_xyz
  1  'x, y, z'
loop_
 _atom_site_type_symbol
 _atom_site_label
 _atom_site_symmetry_multiplicity
 _atom_site_fract_x
 _atom_site_fract_y
 _atom_site_fract_z
 _atom_site_occupancy
  In  In0  1  -0.00912660  0.66219371  0.62292954  1
  In  In1  1  0.48764937  0.33601570  0.82294096  1
  In  In2  1  0.16616419  0.01639962  0.83404041  1
  In  In3  1  0.00801444  -0.01223724  0.67869959  1
  In  In4  1  0.67003573  0.00194083  0.35575792  1
  In  In5  1  -0.01657658  0.83192111  0.81648118  1
  In  In6  1  0.31884842  0.67741141  0.31651853  1
  In  In7  1  0.81837728  -0.01131552  0.51732780  1
  In  In8  1  0.18790016  -0.00827702  0.49104761  1
  In  In9  1  0.34774012  -0.00327590  0.65840944  1
  In  In10  1  0.15891975  0.16227714  0.00028967  1
  In  In11  1  0.33946202  -0.01689600  0.33839629  1
  In  In12  1  -0.02364846  0.25259969  0.20151888  1
  In  In13  1  0.17408066  0.83190065  0.65125687  1
  In  In14  1  0.02078884  -0.00582580  0.31398898  1
  In  In15  1  0.84577127  -0.00600994  0.83493671  1
  In  In16  1  0.84453478  0.49576465  0.30547717  1
  In  In17  1  0.81920494  0.16284643  0.34646141  1
  In  In18  1  0.67759069  0.66495972  -0.00545978  1
  In  In19  1  0.81120151  0.48762754  0.66402983  1
  In  In20  1  0.00577017  0.34913123  0.65865434  1
  In  In21  1  0.66627547  -0.00610526  -0.01292752  1
  In  In22  1  0.02791206  0.34176888  0.02660435  1
  In  In23  1  0.66015297  0.34513193  0.33298727  1
  In  In24  1  0.64147406  0.34089474  -0.00957838  1
  In  In25  1  0.64041557  0.52034515  0.49455899  1
  In  In26  1  0.50014525  0.67402302  0.16961240  1
  In  In27  1  0.66306127  0.81672063  0.17253600  1
  In  In28  1  0.48260083  0.49541597  0.67748152  1
  In  In29  1  0.35143314  0.49773423  0.15690376  1
  In  In30  1  0.81327056  0.32792221  0.51907965  1
  In  In31  1  0.02543229  0.85433109  0.18251631  1
  In  In32  1  0.32546626  0.15660508  0.84014449  1
  In  In33  1  0.35183456  0.81223730  0.83140402  1
  In  In34  1  0.51084643  0.70091898  0.48460107  1
  In  In35  1  0.82428190  0.65898675  0.48526870  1
  In  In36  1  0.19625561  0.33648748  0.85889751  1
  In  In37  1  0.64864938  0.17686214  0.83788697  1
  In  In38  1  0.81596572  0.35568338  0.83027211  1
  In  In39  1  0.19284604  -0.00338748  0.18164802  1
  In  In40  1  0.50963384  -0.04423972  0.50515546  1
  In  In41  1  0.80869632  0.83177162  -0.00318353  1
  In  In42  1  0.32762358  0.16353839  0.51036109  1
  In  In43  1  0.18430597  0.48595177  0.02567731  1
  In  In44  1  0.83705229  0.82383044  0.34341856  1
  In  In45  1  0.48582165  0.81485510  0.01731553  1
  In  In46  1  0.17817523  0.84551272  0.02240136  1
  In  In47  1  0.04477771  0.48594710  0.44662482  1
  In  In48  1  0.83772328  0.50986449  0.01312311  1
  In  In49  1  0.66262231  0.50649949  0.17324189  1
  In  In50  1  0.49121608  0.16969978  0.32305232  1
  In  In51  1  0.20884306  0.50884357  0.67181281  1
  In  In52  1  0.48069545  0.32032781  0.50266009  1
  In  In53  1  0.33669547  0.14912683  0.17026770  1
  In  In54  1  0.78584860  0.68495219  0.79892303  1
  In  In55  1  0.01474650  0.01592686  -0.00734114  1
  In  In56  1  0.00429558  0.18115031  0.49880243  1
  In  In57  1  0.17734579  0.67962365  0.49439433  1
  In  In58  1  0.81636537  0.17127204  0.67554937  1
  In  In59  1  0.00091742  0.51475141  0.82633664  1
  In  In60  1  0.67036777  0.17245919  0.15093691  1
  In  In61  1  0.17557258  0.65491249  0.82744525  1
  In  In62  1  0.33364263  0.32472915  0.33697305  1
  In  In63  1  0.16689828  0.34377838  0.17769004  1
  In  In64  1  0.04842129  0.67026354  0.32227606  1
  In  In65  1  0.65915817  -0.03248671  0.65261636  1
  In  In66  1  0.50992126  -0.01058132  0.83574296  1
  In  In67  1  0.34586010  0.35201314  0.00159077  1
  In  In68  1  0.34532893  0.50845975  0.49730882  1
  In  In69  1  -0.00271252  0.68569137  0.01604404  1
  In  In70  1  0.49923828  0.65599878  0.84030314  1
  In  In71  1  0.84777171  0.00350126  0.15405635  1
  Te  Te72  1  0.08768286  0.08119964  0.10775413  1
  Te  Te73  1  0.08907267  0.08228640  0.41769546  1
  Te  Te74  1  0.06308733  0.09222095  0.76399302  1
  Te  Te75  1  0.06968278  0.45834368  0.12842502  1
  Te  Te76  1  0.10957004  0.36329696  0.40474871  1
  Te  Te77  1  0.10363345  0.42663316  0.75953605  1
  Te  Te78  1  0.10504486  0.74272139  0.10805434  1
  Te  Te79  1  0.06870286  0.75883873  0.43751160  1
  Te  Te80  1  0.07605030  0.73813268  0.74062693  1
  Te  Te81  1  0.42970805  0.04665008  0.12723160  1
  Te  Te82  1  0.42527996  0.07971534  0.42798834  1
  Te  Te83  1  0.42710658  0.08499199  0.75138213  1
  Te  Te84  1  0.44742498  0.43863652  0.06118086  1
  Te  Te85  1  0.42949412  0.42243712  0.40414646  1
  Te  Te86  1  0.38827672  0.39178789  0.72635844  1
  Te  Te87  1  0.39120748  0.72057119  0.08061602  1
  Te  Te88  1  0.39256595  0.76293197  0.41442384  1
  Te  Te89  1  0.45634294  0.76045782  0.74091957  1
  Te  Te90  1  0.76186449  0.08536485  0.06160089  1
  Te  Te91  1  0.73459469  0.09828803  0.45401778  1
  Te  Te92  1  0.73299787  0.07024512  0.75436715  1
  Te  Te93  1  0.74349832  0.41582564  0.08183287  1
  Te  Te94  1  0.75216495  0.43180659  0.42207289  1
  Te  Te95  1  0.71286552  0.42601056  0.75370141  1
  Te  Te96  1  0.76471607  0.73083497  0.10088180  1
  Te  Te97  1  0.73778558  0.72100435  0.38091800  1
  Te  Te98  1  0.69624254  0.75116572  0.70629844  1
  Te  Te99  1  0.10057482  0.25799391  0.28148998  1
  Te  Te100  1  0.09264897  0.25635733  0.58778582  1
  Te  Te101  1  0.07967285  0.25402005  0.91162152  1
  Te  Te102  1  0.08158763  0.54494607  0.25794260  1
  Te  Te103  1  0.09304495  0.55926481  0.57925055  1
  Te  Te104  1  0.08592359  0.58507597  0.93268534  1
  Te  Te105  1  0.13426645  0.89068049  0.28643793  1
  Te  Te106  1  0.07763463  0.91245255  0.56807731  1
  Te  Te107  1  0.08227593  0.89871979  0.91021158  1
  Te  Te108  1  0.41976319  0.26338191  0.22686232  1
  Te  Te109  1  0.40812036  0.24316662  0.60468137  1
  Te  Te110  1  0.41568520  0.24225219  0.92677711  1
  Te  Te111  1  0.42370074  0.58149623  0.26221917  1
  Te  Te112  1  0.43675185  0.59880084  0.57593487  1
  Te  Te113  1  0.37629249  0.58155209  0.87780139  1
  Te  Te114  1  0.40742705  0.92973935  0.21815888  1
  Te  Te115  1  0.40126635  0.88609001  0.57889255  1
  Te  Te116  1  0.41321810  0.91424485  0.92552703  1
  Te  Te117  1  0.75164819  0.25655492  0.24879126  1
  Te  Te118  1  0.71966873  0.25898758  0.60796020  1
  Te  Te119  1  0.74906508  0.25431373  0.92029778  1
  Te  Te120  1  0.74523906  0.59495306  0.26009447  1
  Te  Te121  1  0.73336080  0.59370828  0.58992103  1
  Te  Te122  1  0.75588887  0.57566814  0.90160073  1
  Te  Te123  1  0.75697285  0.92394711  0.24511670  1
  Te  Te124  1  0.72008197  0.87881928  0.54544653  1
  Te  Te125  1  0.73437848  0.90243089  0.88703329  1
  Te  Te126  1  0.24752835  0.25706619  0.08054602  1
  Te  Te127  1  0.24257496  0.26199875  0.43631739  1
  Te  Te128  1  0.24000516  0.24147702  0.75817263  1
  Te  Te129  1  0.26130724  0.59374497  0.08872258  1
  Te  Te130  1  0.24400929  0.57720178  0.40720202  1
  Te  Te131  1  0.29479768  0.60816823  0.74657129  1
  Te  Te132  1  0.28484712  0.90882396  0.10525248  1
  Te  Te133  1  0.28558693  0.88911128  0.44317690  1
  Te  Te134  1  0.24980057  0.91324829  0.75811762  1
  Te  Te135  1  0.56898651  0.24712038  0.07810023  1
  Te  Te136  1  0.58349852  0.24520147  0.41788331  1
  Te  Te137  1  0.57801541  0.25463655  0.73771731  1
  Te  Te138  1  0.57757375  0.58502953  0.07268811  1
  Te  Te139  1  0.57377907  0.60246794  0.39468498  1
  Te  Te140  1  0.58442831  0.56049768  0.76484711  1
  Te  Te141  1  0.58560403  0.91299097  0.08584264  1
  Te  Te142  1  0.57101740  0.89563441  0.38368255  1
  Te  Te143  1  0.56066090  0.89130646  0.73669268  1
  Te  Te144  1  0.92213977  0.24902699  0.06697092  1
  Te  Te145  1  0.90699106  0.26461017  0.41815865  1
  Te  Te146  1  0.90888428  0.26994950  0.74600680  1
  Te  Te147  1  0.91594472  0.59797826  0.10020737  1
  Te  Te148  1  0.93499160  0.58102731  0.40640426  1
  Te  Te149  1  0.90613349  0.59313613  0.73848461  1
  Te  Te150  1  0.92623770  0.90195993  0.06775964  1
  Te  Te151  1  0.91192236  0.93902378  0.40863260  1
  Te  Te152  1  0.88905462  0.90100163  0.72112921  1
  Te  Te153  1  0.25107576  0.09463538  0.28179883  1
  Te  Te154  1  0.23428540  0.08018911  0.60395480  1
  Te  Te155  1  0.25824092  0.06398252  0.94435358  1
  Te  Te156  1  0.25853109  0.43135576  0.25828515  1
  Te  Te157  1  0.27447128  0.41133452  0.58489500  1
  Te  Te158  1  0.27824362  0.45781073  0.90410427  1
  Te  Te159  1  0.21544085  0.76068454  0.25525497  1
  Te  Te160  1  0.26153507  0.72335688  0.60680373  1
  Te  Te161  1  0.24594645  0.75023694  0.92239660  1
  Te  Te162  1  0.59539558  0.08407318  0.25227440  1
  Te  Te163  1  0.57317788  0.06277460  0.58224917  1
  Te  Te164  1  0.56563631  0.09266485  0.93365538  1
  Te  Te165  1  0.57037906  0.41641863  0.24355531  1
  Te  Te166  1  0.57216912  0.41682963  0.57934786  1
  Te  Te167  1  0.56338886  0.43345525  0.90593798  1
  Te  Te168  1  0.55802971  0.77208874  0.26563473  1
  Te  Te169  1  0.61552554  0.76388637  0.57306451  1
  Te  Te170  1  0.58643154  0.75730565  0.91964644  1
  Te  Te171  1  0.91965349  0.09592305  0.25089825  1
  Te  Te172  1  0.91436720  0.08798622  0.59107893  1
  Te  Te173  1  0.92289650  0.09278110  0.90960378  1
  Te  Te174  1  0.91766996  0.39098182  0.23886348  1
  Te  Te175  1  0.91694106  0.43350931  0.57022115  1
  Te  Te176  1  0.93221357  0.41968015  0.92233387  1
  Te  Te177  1  0.93469241  0.75552337  0.25057865  1
  Te  Te178  1  0.89817261  0.75837868  0.56681238  1
  Te  Te179  1  0.89911982  0.74035633  0.90367761  1
