# generated using pymatgen
data_In2Te3
_symmetry_space_group_name_H-M   'P 1'
_cell_length_a   18.88126783
_cell_length_b   18.89313367
_cell_length_c   18.90714469
_cell_angle_alpha   90.07725638
_cell_angle_beta   89.92503987
_cell_angle_gamma   90.05737432
_symmetry_Int_Tables_number   1
_chemical_formula_structural   In2Te3
_chemical_formula_sum   'In72 Te108'
_cell_volume   6744.66081892
_cell_formula_units_Z   36
loop_
 _symmetry_equiv_pos_site_id
 _symmetry_equiv_pos_as_xyz
  1  'x, y, z'
loop_
 _atom_site_type_symbol
 _atom_site_label
 _atom_site_symmetry_multiplicity
 _atom_site_fract_x
 _atom_site_fract_y
 _atom_site_fract_z
 _atom_site_occupancy
  In  In0  1  0.31535312  0.67033494  0.01091770  1
  In  In1  1  0.31816177  -0.00310250  0.35276974  1
  In  In2  1  0.85458348  0.81374622  0.31981723  1
  In  In3  1  0.15819685  0.83219047  -0.00390597  1
  In  In4  1  0.69810035  0.66945497  0.01134950  1
  In  In5  1  0.46782028  0.34273442  0.47858433  1
  In  In6  1  0.47068760  0.20630309  -0.02921736  1
  In  In7  1  0.49388326  0.50319297  0.01136339  1
  In  In8  1  0.85687022  0.51333047  0.67949851  1
  In  In9  1  0.83620952  -0.01207989  0.84667320  1
  In  In10  1  0.67423812  0.50700526  0.86410709  1
  In  In11  1  0.81626063  0.34262290  0.50291456  1
  In  In12  1  0.03930341  -0.05955447  0.66533024  1
  In  In13  1  0.81754124  0.15965657  0.62914051  1
  In  In14  1  0.63118968  0.17642158  0.82293035  1
  In  In15  1  0.15427208  0.17831443  0.33935158  1
  In  In16  1  0.66118287  0.66088080  0.66134293  1
  In  In17  1  -0.01240633  0.52363415  0.16807043  1
  In  In18  1  0.69815280  0.01148646  -0.01824705  1
  In  In19  1  0.01769862  -0.01029816  0.02960072  1
  In  In20  1  0.67001277  0.16957684  0.14775065  1
  In  In21  1  0.50988641  -0.00821363  0.18594110  1
  In  In22  1  0.86111603  0.67919606  0.49015040  1
  In  In23  1  0.68001616  0.81849585  0.17468996  1
  In  In24  1  0.84089260  0.81175856  0.64699098  1
  In  In25  1  0.03933461  0.53258761  0.86679197  1
  In  In26  1  0.83880656  0.17104482  0.30927054  1
  In  In27  1  0.16124672  0.36109465  0.50595235  1
  In  In28  1  0.50751285  0.50621318  0.32228884  1
  In  In29  1  0.84776931  -0.01484221  0.47958599  1
  In  In30  1  0.67713778  -0.02468866  0.35511240  1
  In  In31  1  0.47940312  0.17925317  0.31411787  1
  In  In32  1  0.16851144  -0.00590753  0.85039879  1
  In  In33  1  0.31319157  0.34728085  0.67966573  1
  In  In34  1  0.01788789  0.15176915  0.49724646  1
  In  In35  1  0.64424657  0.18506833  0.49728271  1
  In  In36  1  0.01517214  0.19505952  0.82269450  1
  In  In37  1  0.31148309  0.50726775  0.82980180  1
  In  In38  1  -0.00326905  0.16416893  0.16766717  1
  In  In39  1  0.64792887  0.80755816  0.51684400  1
  In  In40  1  0.32537821  0.83242671  0.50278309  1
  In  In41  1  0.49113797  0.16949765  0.69298331  1
  In  In42  1  0.49627547  0.84323970  -0.00129771  1
  In  In43  1  0.66179281  0.35544017  0.02683464  1
  In  In44  1  0.16130607  0.36370848  0.85289660  1
  In  In45  1  0.83243800  0.51552456  0.34585233  1
  In  In46  1  0.35235999  0.62797243  0.66122761  1
  In  In47  1  0.29931838  0.80177812  0.17265609  1
  In  In48  1  0.67954637  0.50006483  0.17387421  1
  In  In49  1  0.50622838  -0.01768795  0.82122546  1
  In  In50  1  0.01831657  0.36648040  0.02084469  1
  In  In51  1  0.49139748  0.81484611  0.34359878  1
  In  In52  1  0.65772006  0.00086474  0.68004951  1
  In  In53  1  0.32061093  0.14817640  0.50024026  1
  In  In54  1  0.31960071  0.48863173  0.17530127  1
  In  In55  1  0.84879619  0.17117704  0.00032462  1
  In  In56  1  0.31141237  -0.01254547  0.66131957  1
  In  In57  1  0.67937573  0.85211055  0.83329913  1
  In  In58  1  -0.02636007  0.32668406  0.64664027  1
  In  In59  1  0.32269571  0.20009228  0.14114496  1
  In  In60  1  0.19867213  0.15102329  0.67756055  1
  In  In61  1  0.15291179  0.50817229  0.65723904  1
  In  In62  1  0.30336868  0.65018823  0.31672366  1
  In  In63  1  0.15339722  0.66717199  0.47987860  1
  In  In64  1  0.00460726  0.81260697  0.15515228  1
  In  In65  1  0.49565163  0.68187623  0.80934913  1
  In  In66  1  0.81902836  0.34523031  0.85780627  1
  In  In67  1  0.35800122  0.01133179  -0.00940830  1
  In  In68  1  0.64533387  0.51190282  0.49106115  1
  In  In69  1  0.00691422  0.34379303  0.33451493  1
  In  In70  1  0.16817079  -0.00099470  0.18199615  1
  In  In71  1  0.01807933  0.71733735  0.84075148  1
  Te  Te72  1  0.10751236  0.09842310  0.08311310  1
  Te  Te73  1  0.07736855  0.06431009  0.39429292  1
  Te  Te74  1  0.07893308  0.08090777  0.74360899  1
  Te  Te75  1  0.09889919  0.43587427  0.12044367  1
  Te  Te76  1  0.09882463  0.44154520  0.39844175  1
  Te  Te77  1  0.06543005  0.40666357  0.74083713  1
  Te  Te78  1  0.07313895  0.71629639  0.05399775  1
  Te  Te79  1  0.07339417  0.78302053  0.42869132  1
  Te  Te80  1  0.13623571  0.76318730  0.76769834  1
  Te  Te81  1  0.42715292  0.08977799  0.10341017  1
  Te  Te82  1  0.42945776  0.07951680  0.41808086  1
  Te  Te83  1  0.39853575  0.07010141  0.75919403  1
  Te  Te84  1  0.39617616  0.40562699  0.07149646  1
  Te  Te85  1  0.39159546  0.43928386  0.39462374  1
  Te  Te86  1  0.40971838  0.42905198  0.75340748  1
  Te  Te87  1  0.41965767  0.75056172  0.09072315  1
  Te  Te88  1  0.39615667  0.72337175  0.41499783  1
  Te  Te89  1  0.39210389  0.74971561  0.73385629  1
  Te  Te90  1  0.77857653  0.07489029  0.09484765  1
  Te  Te91  1  0.75019904  0.09796393  0.42810332  1
  Te  Te92  1  0.75064858  0.08692398  0.76447050  1
  Te  Te93  1  0.76761083  0.44742997  0.06647120  1
  Te  Te94  1  0.72970668  0.41633020  0.40530302  1
  Te  Te95  1  0.75240243  0.42964142  0.75067678  1
  Te  Te96  1  0.77946397  0.71624726  0.12756671  1
  Te  Te97  1  0.74976195  0.75502299  0.41810900  1
  Te  Te98  1  0.75267862  0.74495439  0.75162249  1
  Te  Te99  1  0.09162151  0.26610531  0.23354564  1
  Te  Te100  1  0.09812019  0.24688562  0.59815167  1
  Te  Te101  1  0.08904810  0.25623221  0.93753186  1
  Te  Te102  1  0.06952527  0.60984655  0.25905912  1
  Te  Te103  1  0.06309288  0.59904099  0.58045804  1
  Te  Te104  1  0.13299011  0.59708281  0.96237031  1
  Te  Te105  1  0.09278139  0.89094501  0.24464018  1
  Te  Te106  1  0.09930751  0.87590721  0.55125312  1
  Te  Te107  1  0.05616814  0.90688045  0.90857857  1
  Te  Te108  1  0.39290733  0.28289553  0.24868967  1
  Te  Te109  1  0.40018617  0.24461348  0.58834108  1
  Te  Te110  1  0.39115343  0.25519318  0.86216907  1
  Te  Te111  1  0.41402617  0.59317901  0.22990131  1
  Te  Te112  1  0.46233402  0.57611402  0.57686711  1
  Te  Te113  1  0.41675631  0.59495072  0.91625932  1
  Te  Te114  1  0.39976086  0.90575308  0.24623460  1
  Te  Te115  1  0.41396079  0.92424885  0.57782314  1
  Te  Te116  1  0.40103490  0.89886893  0.89464468  1
  Te  Te117  1  0.75141915  0.25839433  0.23265387  1
  Te  Te118  1  0.71917649  0.27293686  0.59678432  1
  Te  Te119  1  0.73199516  0.24033811  0.93040284  1
  Te  Te120  1  0.76163797  0.60213964  0.24749723  1
  Te  Te121  1  0.76345699  0.58468207  0.57727185  1
  Te  Te122  1  0.77998924  0.60138991  0.90691917  1
  Te  Te123  1  0.76852594  0.92064090  0.24948917  1
  Te  Te124  1  0.74636551  0.92221981  0.58284318  1
  Te  Te125  1  0.77833727  0.88590995  0.94476999  1
  Te  Te126  1  0.26691587  0.30680580  0.05640227  1
  Te  Te127  1  0.24702179  0.25948384  0.42737512  1
  Te  Te128  1  0.25087568  0.25112634  0.78387156  1
  Te  Te129  1  0.22821963  0.57769800  0.09128216  1
  Te  Te130  1  0.22511289  0.55882183  0.40528027  1
  Te  Te131  1  0.21853917  0.60061494  0.75646494  1
  Te  Te132  1  0.26094438  0.92287329  0.07938831  1
  Te  Te133  1  0.23457242  0.88393939  0.39643567  1
  Te  Te134  1  0.21336887  0.90136046  0.73940361  1
  Te  Te135  1  0.56147630  0.25559350  0.08573628  1
  Te  Te136  1  0.57329367  0.27025498  0.39403965  1
  Te  Te137  1  0.57073736  0.28372057  0.74378099  1
  Te  Te138  1  0.58884607  0.59407092  0.08563114  1
  Te  Te139  1  0.59650719  0.60483467  0.38896975  1
  Te  Te140  1  0.58433916  0.57036465  0.75662438  1
  Te  Te141  1  0.59899361  0.92388404  0.08198180  1
  Te  Te142  1  0.56752068  0.91100018  0.43639817  1
  Te  Te143  1  0.57384737  0.88304394  0.72712355  1
  Te  Te144  1  0.91733334  0.26904971  0.08997844  1
  Te  Te145  1  0.92086176  0.24985995  0.43150958  1
  Te  Te146  1  0.89176076  0.24804644  0.75136983  1
  Te  Te147  1  0.95145903  0.61339147  0.05170972  1
  Te  Te148  1  0.94558894  0.59790913  0.39807917  1
  Te  Te149  1  0.94979587  0.60097506  0.76153876  1
  Te  Te150  1  0.91330787  0.91016851  0.09228718  1
  Te  Te151  1  0.94016440  0.88253600  0.42565879  1
  Te  Te152  1  0.91510289  0.90191216  0.74574490  1
  Te  Te153  1  0.26543712  0.10075570  0.25398867  1
  Te  Te154  1  0.21723857  0.05560423  0.55981626  1
  Te  Te155  1  0.25072960  0.08872505  0.92752399  1
  Te  Te156  1  0.28462282  0.39114630  0.28073011  1
  Te  Te157  1  0.26730303  0.44761747  0.57574153  1
  Te  Te158  1  0.26200873  0.42420673  0.94637414  1
  Te  Te159  1  0.19434878  0.71718646  0.23695279  1
  Te  Te160  1  0.25895791  0.71834527  0.57821367  1
  Te  Te161  1  0.25677691  0.76320155  0.91040619  1
  Te  Te162  1  0.60204663  0.08418027  0.26572312  1
  Te  Te163  1  0.57269095  0.08691178  0.58988048  1
  Te  Te164  1  0.56990109  0.07681544  0.92645622  1
  Te  Te165  1  0.57214345  0.41462323  0.22679367  1
  Te  Te166  1  0.54379789  0.43513880  0.57117957  1
  Te  Te167  1  0.57036599  0.40916628  0.91869071  1
  Te  Te168  1  0.58212630  0.74256920  0.25376019  1
  Te  Te169  1  0.54877651  0.70938340  0.57300751  1
  Te  Te170  1  0.59168615  0.75301901  0.91873094  1
  Te  Te171  1  0.94028170  0.07306622  0.26968443  1
  Te  Te172  1  0.92971394  0.06330749  0.58728594  1
  Te  Te173  1  0.93620396  0.08629418  0.90931689  1
  Te  Te174  1  0.90751825  0.42129323  0.25106748  1
  Te  Te175  1  0.92025668  0.43809912  0.55960574  1
  Te  Te176  1  0.93036089  0.43091113  0.91327510  1
  Te  Te177  1  0.95353937  0.71062071  0.26150690  1
  Te  Te178  1  0.95270908  0.72519379  0.59967104  1
  Te  Te179  1  0.90919443  0.71443802  0.94025555  1
