# generated using pymatgen
data_In2Te3
_symmetry_space_group_name_H-M   'P 1'
_cell_length_a   18.82054226
_cell_length_b   18.82381844
_cell_length_c   18.81738584
_cell_angle_alpha   89.93879583
_cell_angle_beta   89.97164961
_cell_angle_gamma   89.89629506
_symmetry_Int_Tables_number   1
_chemical_formula_structural   In2Te3
_chemical_formula_sum   'In72 Te108'
_cell_volume   6666.50386958
_cell_formula_units_Z   36
loop_
 _symmetry_equiv_pos_site_id
 _symmetry_equiv_pos_as_xyz
  1  'x, y, z'
loop_
 _atom_site_type_symbol
 _atom_site_label
 _atom_site_symmetry_multiplicity
 _atom_site_fract_x
 _atom_site_fract_y
 _atom_site_fract_z
 _atom_site_occupancy
  In  In0  1  0.49928886  0.34732256  0.16437743  1
  In  In1  1  0.69459266  0.16499080  0.49175264  1
  In  In2  1  0.68533606  0.01127478  0.66900284  1
  In  In3  1  0.33607294  0.65526635  0.32702118  1
  In  In4  1  0.16620152  0.34413967  0.47936764  1
  In  In5  1  0.16068274  0.32360858  0.18377778  1
  In  In6  1  -0.00297102  0.67475018  0.68530463  1
  In  In7  1  0.83232488  0.47509601  0.01395764  1
  In  In8  1  0.17516568  0.69993228  0.50601791  1
  In  In9  1  0.85391113  0.31583578  0.81965504  1
  In  In10  1  0.50973814  0.50933868  0.00416754  1
  In  In11  1  0.31516588  0.01794216  0.33558117  1
  In  In12  1  0.82343334  0.48408622  0.33296129  1
  In  In13  1  0.00333209  0.31723671  0.65941504  1
  In  In14  1  0.00633397  0.92350807  0.47065837  1
  In  In15  1  0.32079328  0.84667213  0.14784553  1
  In  In16  1  0.50816281  -0.01935849  0.84622275  1
  In  In17  1  0.31840219  0.00858175  0.65481964  1
  In  In18  1  0.84903878  0.65930155  0.83732799  1
  In  In19  1  0.02123979  0.83726260  0.84412682  1
  In  In20  1  0.67225412  0.34222376  0.01099821  1
  In  In21  1  0.30673526  0.15859798  0.82709748  1
  In  In22  1  0.15101852  0.30275986  0.84332517  1
  In  In23  1  0.83609722  0.83898360  0.66639572  1
  In  In24  1  0.00185102  0.01511487  0.65343192  1
  In  In25  1  0.83299585  0.02890102  0.84598309  1
  In  In26  1  0.48563401  0.15938542  0.31889771  1
  In  In27  1  0.51993930  0.16413446  0.67004016  1
  In  In28  1  0.13295625  0.16425721  0.34968522  1
  In  In29  1  0.17135808  0.52613986  0.00011800  1
  In  In30  1  0.65402051  0.83008853  0.16648623  1
  In  In31  1  0.51077549  0.52044931  0.36205712  1
  In  In32  1  0.31661280  0.17061042  0.49964989  1
  In  In33  1  0.82495636  0.52307333  0.63938725  1
  In  In34  1  0.66348319  0.48196102  0.84302114  1
  In  In35  1  0.14863109  0.01457871  0.84730619  1
  In  In36  1  0.33351638  0.67733075  0.01086277  1
  In  In37  1  0.33923451  0.32005778  0.00205121  1
  In  In38  1  0.01134065  0.47502527  0.50829504  1
  In  In39  1  0.50032508  0.14948224  -0.01057073  1
  In  In40  1  0.01492730  0.69315937  0.00176994  1
  In  In41  1  0.66132898  0.31699971  0.65567447  1
  In  In42  1  0.67202324  0.63626266  0.65106449  1
  In  In43  1  -0.01421067  0.49242692  0.17874756  1
  In  In44  1  0.16898494  0.48902731  0.67473592  1
  In  In45  1  0.65208126  0.68197509  0.01140676  1
  In  In46  1  0.68520953  0.84561933  0.85273723  1
  In  In47  1  0.34691809  0.48943280  0.82813514  1
  In  In48  1  0.82691558  0.67025994  0.18257294  1
  In  In49  1  0.00336652  0.66232764  0.32464584  1
  In  In50  1  0.67970505  0.84167119  0.50544664  1
  In  In51  1  0.84379664  0.01282771  0.16233640  1
  In  In52  1  0.66272263  -0.00491896  0.32538446  1
  In  In53  1  0.00776943  0.85364445  0.15596179  1
  In  In54  1  0.50482230  -0.01373924  0.18210153  1
  In  In55  1  0.34135648  0.50056909  0.50345244  1
  In  In56  1  0.18858418  0.66596811  0.84204118  1
  In  In57  1  0.68689813  0.31736535  0.31966484  1
  In  In58  1  0.48432808  0.33013149  0.49963262  1
  In  In59  1  0.83873412  0.16573253  0.01346838  1
  In  In60  1  0.15995642  0.86075908  0.31748515  1
  In  In61  1  0.87016583  0.17976994  0.33385133  1
  In  In62  1  0.49174142  0.49629846  0.66219286  1
  In  In63  1  0.30716705  0.16187873  0.15190715  1
  In  In64  1  0.33083588  0.83856733  0.48532327  1
  In  In65  1  0.49532022  0.83447078  0.00056797  1
  In  In66  1  -0.00431998  0.31151136  0.00997144  1
  In  In67  1  0.33679877  0.83779341  0.83345162  1
  In  In68  1  0.48233591  0.81927493  0.66094644  1
  In  In69  1  0.51552659  0.81000932  0.33620116  1
  In  In70  1  0.82317011  0.68520988  0.48334645  1
  In  In71  1  0.15463678  0.48837629  0.32081138  1
  Te  Te72  1  0.12102171  0.04311603  0.04864184  1
  Te  Te73  1  0.05175677  0.07251170  0.44080462  1
  Te  Te74  1  0.08000207  0.10141852  0.74650494  1
  Te  Te75  1  0.08293970  0.42399702  0.07867060  1
  Te  Te76  1  0.05390207  0.39530051  0.38570831  1
  Te  Te77  1  0.07403258  0.40897592  0.76031550  1
  Te  Te78  1  0.10493580  0.75678779  0.09783637  1
  Te  Te79  1  0.07406801  0.76700472  0.41326088  1
  Te  Te80  1  0.10753067  0.75760684  0.74747582  1
  Te  Te81  1  0.41397038  0.07166366  0.09138067  1
  Te  Te82  1  0.41884102  0.07909074  0.42886221  1
  Te  Te83  1  0.42183848  0.06934114  0.75421226  1
  Te  Te84  1  0.40146495  0.43205886  0.08266930  1
  Te  Te85  1  0.40337252  0.40923806  0.39981851  1
  Te  Te86  1  0.42052756  0.39544568  0.74317352  1
  Te  Te87  1  0.43064256  0.74819682  0.10717152  1
  Te  Te88  1  0.42240593  0.73067682  0.42724308  1
  Te  Te89  1  0.41771356  0.73698933  0.76334913  1
  Te  Te90  1  0.73840163  0.08319047  0.08511811  1
  Te  Te91  1  0.77450119  0.07026220  0.39975598  1
  Te  Te92  1  0.77324403  0.11076909  0.73517058  1
  Te  Te93  1  0.73841334  0.42463457  0.11396791  1
  Te  Te94  1  0.76085036  0.38684029  0.42610372  1
  Te  Te95  1  0.75803938  0.42043193  0.74109932  1
  Te  Te96  1  0.76139134  0.76216867  0.07801651  1
  Te  Te97  1  0.73886819  0.76509966  0.39330446  1
  Te  Te98  1  0.75151317  0.73773415  0.74464235  1
  Te  Te99  1  0.06149737  0.22501927  0.23238034  1
  Te  Te100  1  0.08327133  0.24402419  0.55515449  1
  Te  Te101  1  0.05741472  0.21106919  0.91716900  1
  Te  Te102  1  0.09312483  0.59137183  0.22573276  1
  Te  Te103  1  0.08631271  0.58608315  0.58614180  1
  Te  Te104  1  0.07133136  0.58986623  0.90308850  1
  Te  Te105  1  0.05200110  0.94990463  0.26360573  1
  Te  Te106  1  0.07632149  0.90023198  0.59712621  1
  Te  Te107  1  0.07936636  0.92504271  0.95150173  1
  Te  Te108  1  0.40029752  0.25166129  0.23445240  1
  Te  Te109  1  0.40942330  0.24346143  0.59890965  1
  Te  Te110  1  0.41516630  0.24088280  0.89893504  1
  Te  Te111  1  0.43201187  0.57642176  0.24974641  1
  Te  Te112  1  0.41605219  0.59697191  0.58383941  1
  Te  Te113  1  0.41837725  0.59326295  0.91550855  1
  Te  Te114  1  0.40494878  0.90986347  0.26980803  1
  Te  Te115  1  0.42070946  0.92713529  0.57444548  1
  Te  Te116  1  0.39620384  0.93173682  0.93840252  1
  Te  Te117  1  0.76613179  0.22502430  0.23603542  1
  Te  Te118  1  0.76935467  0.22712871  0.60364784  1
  Te  Te119  1  0.75496360  0.25404871  0.91697789  1
  Te  Te120  1  0.74158507  0.59045152  0.27166877  1
  Te  Te121  1  0.72639668  0.56428881  0.52369086  1
  Te  Te122  1  0.74885871  0.58274078  0.92398606  1
  Te  Te123  1  0.75690116  0.90945481  0.24376823  1
  Te  Te124  1  0.78191132  0.94283421  0.56895156  1
  Te  Te125  1  0.76127767  0.93613845  0.93761887  1
  Te  Te126  1  0.21978221  0.24825085  0.06205671  1
  Te  Te127  1  0.25128259  0.25361503  0.39011984  1
  Te  Te128  1  0.23262842  0.24606152  0.73512655  1
  Te  Te129  1  0.25956369  0.58645123  0.10009558  1
  Te  Te130  1  0.22748828  0.58046855  0.42183153  1
  Te  Te131  1  0.26663741  0.58621478  0.73821506  1
  Te  Te132  1  0.21226825  0.94017711  0.10735497  1
  Te  Te133  1  0.22791529  0.93735766  0.43081623  1
  Te  Te134  1  0.24014010  0.92673968  0.75705424  1
  Te  Te135  1  0.57755956  0.24602079  0.08335423  1
  Te  Te136  1  0.57627319  0.23879887  0.41602713  1
  Te  Te137  1  0.59601189  0.24456972  0.76600008  1
  Te  Te138  1  0.60683243  0.57068762  0.09613524  1
  Te  Te139  1  0.59400635  0.60288389  0.44908464  1
  Te  Te140  1  0.58127118  0.57902736  0.75961452  1
  Te  Te141  1  0.59077653  0.93008827  0.06937639  1
  Te  Te142  1  0.57414965  0.92020556  0.42342536  1
  Te  Te143  1  0.59735113  0.90484303  0.73478833  1
  Te  Te144  1  0.89919791  0.26247502  0.11079541  1
  Te  Te145  1  0.95246504  0.22251673  0.45326198  1
  Te  Te146  1  0.93734063  0.21575418  0.74707135  1
  Te  Te147  1  0.91815689  0.59188892  0.07725047  1
  Te  Te148  1  0.92714430  0.57839145  0.42612446  1
  Te  Te149  1  0.92415600  0.55878324  0.75117958  1
  Te  Te150  1  0.92172486  0.93200441  0.06367309  1
  Te  Te151  1  0.86919384  0.93583477  0.42385043  1
  Te  Te152  1  0.92127279  0.92167338  0.76094369  1
  Te  Te153  1  0.21482200  0.08190410  0.24269742  1
  Te  Te154  1  0.22234208  0.08890220  0.57752257  1
  Te  Te155  1  0.24347385  0.08552151  0.94143226  1
  Te  Te156  1  0.25664384  0.41700227  0.24282362  1
  Te  Te157  1  0.25791629  0.40266792  0.58690387  1
  Te  Te158  1  0.24217811  0.41567350  0.91455353  1
  Te  Te159  1  0.24946224  0.75637532  0.25091395  1
  Te  Te160  1  0.26816456  0.76493675  0.59785742  1
  Te  Te161  1  0.24104890  0.77264408  0.93622481  1
  Te  Te162  1  0.59573416  0.09761073  0.23393425  1
  Te  Te163  1  0.59211992  0.07736409  0.56788147  1
  Te  Te164  1  0.59929673  0.07939693  0.90454561  1
  Te  Te165  1  0.58500572  0.41733755  0.26763694  1
  Te  Te166  1  0.58639348  0.41762083  0.56932167  1
  Te  Te167  1  0.56271675  0.39637387  0.91671193  1
  Te  Te168  1  0.58834327  0.72228166  0.24344452  1
  Te  Te169  1  0.58745663  0.74240717  0.57779138  1
  Te  Te170  1  0.57462270  0.75165005  0.89988154  1
  Te  Te171  1  0.94840814  0.08004925  0.24944220  1
  Te  Te172  1  0.93547964  0.09613955  0.54487043  1
  Te  Te173  1  0.94018244  0.09489710  0.92749711  1
  Te  Te174  1  0.90657311  0.39191332  0.25066846  1
  Te  Te175  1  0.89989712  0.40238098  0.58024179  1
  Te  Te176  1  0.92727953  0.41154193  0.91475123  1
  Te  Te177  1  0.91918269  0.76640078  0.25550934  1
  Te  Te178  1  0.92450653  0.75363201  0.57661093  1
  Te  Te179  1  0.90784617  0.76964607  0.92221473  1
