# generated using pymatgen
data_In2Te3
_symmetry_space_group_name_H-M   'P 1'
_cell_length_a   19.00579909
_cell_length_b   18.98894826
_cell_length_c   19.01759643
_cell_angle_alpha   89.87797606
_cell_angle_beta   90.31143012
_cell_angle_gamma   90.06856919
_symmetry_Int_Tables_number   1
_chemical_formula_structural   In2Te3
_chemical_formula_sum   'In72 Te108'
_cell_volume   6863.33135615
_cell_formula_units_Z   36
loop_
 _symmetry_equiv_pos_site_id
 _symmetry_equiv_pos_as_xyz
  1  'x, y, z'
loop_
 _atom_site_type_symbol
 _atom_site_label
 _atom_site_symmetry_multiplicity
 _atom_site_fract_x
 _atom_site_fract_y
 _atom_site_fract_z
 _atom_site_occupancy
  In  In0  1  0.82543550  0.33925246  0.16775023  1
  In  In1  1  0.14018306  0.69246778  0.81835251  1
  In  In2  1  -0.00503687  -0.01270694  0.00440068  1
  In  In3  1  0.17020015  0.84799185  0.01419383  1
  In  In4  1  -0.00475873  0.82147609  0.16335257  1
  In  In5  1  0.15867196  0.02342324  0.82965343  1
  In  In6  1  0.17710230  0.85066698  0.35196464  1
  In  In7  1  0.84060673  0.69405141  0.83747723  1
  In  In8  1  0.50823521  0.01606419  0.16260974  1
  In  In9  1  0.49161552  0.83730845  0.37677667  1
  In  In10  1  0.50673365  0.15292124  0.33450723  1
  In  In11  1  0.51493641  0.66535171  0.15226706  1
  In  In12  1  0.01869707  0.33783596  0.34421525  1
  In  In13  1  0.01295525  -0.02827252  0.63514119  1
  In  In14  1  0.32971790  0.01261550  0.64762223  1
  In  In15  1  0.00502208  0.48048941  0.83840123  1
  In  In16  1  0.65694298  0.54901746  0.16078678  1
  In  In17  1  -0.01735344  0.33382398  0.66182247  1
  In  In18  1  0.34707960  0.82727035  0.17641297  1
  In  In19  1  0.51957445  -0.02256556  0.51895804  1
  In  In20  1  0.82281769  -0.03181152  0.85105846  1
  In  In21  1  0.13310414  0.16000930  0.00943327  1
  In  In22  1  0.32002928  0.00944628  0.34730295  1
  In  In23  1  0.65916665  0.51676273  0.51419456  1
  In  In24  1  0.16929216  0.34466628  0.49466021  1
  In  In25  1  0.52864917  -0.06208245  0.76170853  1
  In  In26  1  0.83652596  0.32241762  0.47868567  1
  In  In27  1  0.30328825  0.16649661  0.49203241  1
  In  In28  1  0.85287007  0.49834458  0.35766351  1
  In  In29  1  0.68657375  0.17834009  0.83484043  1
  In  In30  1  0.31990940  0.66482521  0.65874320  1
  In  In31  1  0.15768244  0.66469079  0.52107319  1
  In  In32  1  0.17275530  0.16486478  0.64870124  1
  In  In33  1  0.34378268  0.50908229  0.50618631  1
  In  In34  1  0.48945158  0.51107282  0.34180758  1
  In  In35  1  0.64791453  0.35769920  0.01591805  1
  In  In36  1  0.66412269  0.67495353  0.34286875  1
  In  In37  1  0.34642168  0.67272325  0.32470399  1
  In  In38  1  0.47980033  0.48094027  -0.04674913  1
  In  In39  1  0.65380985  0.31883372  0.32124742  1
  In  In40  1  0.83790283  0.33782165  0.84963262  1
  In  In41  1  0.84414188  0.83889634  0.33105117  1
  In  In42  1  0.67453433  0.15337776  0.48386503  1
  In  In43  1  -0.00050153  0.64818377  0.33839746  1
  In  In44  1  0.66771265  0.35104555  0.64543021  1
  In  In45  1  0.85457404  0.82244785  0.64561460  1
  In  In46  1  0.33058999  0.16279201  0.84727663  1
  In  In47  1  0.31461675  0.34375933  0.67175713  1
  In  In48  1  0.30247870  0.15183183  0.18910412  1
  In  In49  1  0.01559474  0.33819807  -0.00354957  1
  In  In50  1  0.83899096  0.13578867  0.67280955  1
  In  In51  1  0.85453524  -0.01369519  0.17848235  1
  In  In52  1  0.00070535  0.00585398  0.34649601  1
  In  In53  1  0.51297431  0.67316737  0.82460753  1
  In  In54  1  0.32157299  0.49892441  0.82153342  1
  In  In55  1  0.66833782  0.83122254  0.50440962  1
  In  In56  1  0.86512750  0.15709734  0.01646096  1
  In  In57  1  0.67758083  0.53725931  0.82410435  1
  In  In58  1  0.20085916  0.51944919  0.02176932  1
  In  In59  1  0.66748599  -0.00893078  -0.00268426  1
  In  In60  1  0.48890244  0.32167802  0.17004309  1
  In  In61  1  0.32580188  0.31997489  -0.00735479  1
  In  In62  1  0.51112732  0.18948891  -0.00427452  1
  In  In63  1  0.83622532  0.00119011  0.47906044  1
  In  In64  1  0.35341244  -0.03034222  0.02075767  1
  In  In65  1  0.16719065  0.48531926  0.32668389  1
  In  In66  1  0.32034662  0.84341639  0.83932733  1
  In  In67  1  0.50230941  0.81527618  -0.01412795  1
  In  In68  1  -0.00501444  0.67578769  -0.00846183  1
  In  In69  1  0.50157167  0.17449204  0.64878154  1
  In  In70  1  0.83525862  0.53293679  0.65961782  1
  In  In71  1  -0.00275788  0.52211663  0.14017133  1
  Te  Te72  1  0.06544216  0.07175723  0.10350207  1
  Te  Te73  1  0.11648711  0.06996536  0.41007708  1
  Te  Te74  1  0.06985998  0.08533903  0.72599151  1
  Te  Te75  1  0.10069550  0.42314287  0.08798058  1
  Te  Te76  1  0.07100764  0.44499626  0.43672354  1
  Te  Te77  1  0.08165792  0.40774989  0.73944863  1
  Te  Te78  1  0.09682555  0.73970481  0.08800553  1
  Te  Te79  1  0.08524314  0.74798153  0.41568563  1
  Te  Te80  1  0.06285360  0.75910146  0.70650087  1
  Te  Te81  1  0.41321894  0.10464472  0.07959338  1
  Te  Te82  1  0.42463973  0.07881502  0.44357036  1
  Te  Te83  1  0.41707414  0.09142667  0.74531251  1
  Te  Te84  1  0.41427541  0.41070460  0.07435164  1
  Te  Te85  1  0.39736151  0.41833289  0.40456372  1
  Te  Te86  1  0.41588397  0.41694493  0.74764632  1
  Te  Te87  1  0.40236138  0.73901420  0.06857116  1
  Te  Te88  1  0.39222774  0.75102989  0.44209279  1
  Te  Te89  1  0.40297707  0.75290387  0.75341536  1
  Te  Te90  1  0.76147522  0.07172476  0.08418321  1
  Te  Te91  1  0.76455311  0.09153066  0.38879726  1
  Te  Te92  1  0.74070237  0.05940790  0.75896652  1
  Te  Te93  1  0.74785918  0.44161706  0.08892298  1
  Te  Te94  1  0.72871995  0.41737358  0.41540938  1
  Te  Te95  1  0.76446765  0.41942077  0.74551624  1
  Te  Te96  1  0.65903196  0.69261156  0.11769461  1
  Te  Te97  1  0.76642187  0.74822372  0.42712074  1
  Te  Te98  1  0.75391886  0.74211886  0.72345451  1
  Te  Te99  1  0.12978743  0.27704307  0.26752541  1
  Te  Te100  1  0.07699751  0.25242542  0.57122191  1
  Te  Te101  1  0.07678753  0.24264415  0.90529275  1
  Te  Te102  1  0.09351653  0.58602300  0.23825769  1
  Te  Te103  1  0.06139136  0.61350552  0.62084588  1
  Te  Te104  1  0.09324968  0.58093339  0.92153229  1
  Te  Te105  1  0.07655216  0.90969719  0.25268227  1
  Te  Te106  1  0.10339938  0.86171335  0.59500198  1
  Te  Te107  1  0.08605597  0.91456960  0.90668300  1
  Te  Te108  1  0.40334608  0.23917414  0.26303523  1
  Te  Te109  1  0.39369195  0.25413110  0.57755616  1
  Te  Te110  1  0.42988230  0.26666196  0.89498567  1
  Te  Te111  1  0.40179591  0.57040362  0.22498854  1
  Te  Te112  1  0.42621885  0.57807722  0.60671658  1
  Te  Te113  1  0.40169233  0.59892326  0.90159928  1
  Te  Te114  1  0.42307935  0.93203574  0.25787468  1
  Te  Te115  1  0.43330528  0.90785650  0.61916730  1
  Te  Te116  1  0.43556012  0.92837700  0.89934829  1
  Te  Te117  1  0.76355532  0.24560347  0.26061587  1
  Te  Te118  1  0.76148235  0.23800371  0.58835550  1
  Te  Te119  1  0.75599216  0.25484615  0.94822785  1
  Te  Te120  1  0.75829418  0.58162618  0.27141554  1
  Te  Te121  1  0.73277715  0.61699948  0.59481350  1
  Te  Te122  1  0.76351912  0.60071540  0.92180286  1
  Te  Te123  1  0.75135254  0.90203702  0.23814064  1
  Te  Te124  1  0.75959002  0.92484624  0.58254926  1
  Te  Te125  1  0.72494685  0.88024631  0.91753879  1
  Te  Te126  1  0.23550601  0.24281951  0.08609679  1
  Te  Te127  1  0.23489795  0.25673748  0.39578568  1
  Te  Te128  1  0.23832762  0.24498177  0.75968713  1
  Te  Te129  1  0.29219433  0.58520262  0.11335777  1
  Te  Te130  1  0.24576734  0.59092513  0.41249240  1
  Te  Te131  1  0.22347178  0.58812908  0.74673902  1
  Te  Te132  1  0.24664783  0.93146241  0.11646887  1
  Te  Te133  1  0.29288226  0.89305573  0.43473486  1
  Te  Te134  1  0.24223019  0.93142600  0.74387798  1
  Te  Te135  1  0.60091046  0.24328941  0.10483560  1
  Te  Te136  1  0.57276945  0.25218356  0.43031110  1
  Te  Te137  1  0.59463492  0.25355850  0.74017847  1
  Te  Te138  1  0.56534665  0.57318795  0.03782155  1
  Te  Te139  1  0.56365451  0.60586561  0.43188930  1
  Te  Te140  1  0.58153763  0.58835547  0.72642441  1
  Te  Te141  1  0.57567459  0.90685816  0.08471884  1
  Te  Te142  1  0.60653915  0.93124652  0.40528764  1
  Te  Te143  1  0.62592324  0.83995119  0.70904197  1
  Te  Te144  1  0.93691522  0.25931654  0.10021621  1
  Te  Te145  1  0.93344400  0.23912285  0.41063349  1
  Te  Te146  1  0.90983759  0.24155713  0.75889073  1
  Te  Te147  1  0.89767981  0.61074821  0.08038088  1
  Te  Te148  1  0.91276317  0.59737759  0.44573560  1
  Te  Te149  1  0.92513209  0.58710766  0.76682610  1
  Te  Te150  1  0.89932892  0.88972853  0.06806176  1
  Te  Te151  1  0.93744854  0.89796430  0.43405691  1
  Te  Te152  1  0.91928515  0.92007295  0.74266849  1
  Te  Te153  1  0.20660423  0.08473364  0.28534629  1
  Te  Te154  1  0.21596793  0.05447358  0.55114995  1
  Te  Te155  1  0.25748800  0.06613069  0.93854297  1
  Te  Te156  1  0.22359930  0.38885092  0.23370181  1
  Te  Te157  1  0.23492229  0.44222853  0.58960964  1
  Te  Te158  1  0.23736586  0.41574479  0.91680183  1
  Te  Te159  1  0.24079503  0.75218559  0.25115076  1
  Te  Te160  1  0.23622992  0.77093628  0.59391805  1
  Te  Te161  1  0.23822840  0.74794746  0.92160895  1
  Te  Te162  1  0.60239231  0.08888778  0.24650448  1
  Te  Te163  1  0.60396208  0.07735792  0.59506673  1
  Te  Te164  1  0.58779826  0.09069008  0.91202986  1
  Te  Te165  1  0.57628082  0.42634040  0.24082337  1
  Te  Te166  1  0.56468125  0.41867724  0.56897890  1
  Te  Te167  1  0.59857200  0.41538945  0.88780685  1
  Te  Te168  1  0.55847571  0.75713194  0.27089206  1
  Te  Te169  1  0.55509674  0.78680560  0.58696338  1
  Te  Te170  1  0.60819692  0.75508414  0.90460844  1
  Te  Te171  1  0.94512884  0.08716079  0.23631392  1
  Te  Te172  1  0.93035965  0.08231098  0.56646571  1
  Te  Te173  1  0.91995387  0.07457988  0.90461083  1
  Te  Te174  1  0.93080675  0.42738290  0.24777024  1
  Te  Te175  1  0.89884501  0.42424193  0.57366123  1
  Te  Te176  1  0.90780787  0.43208972  0.94403630  1
  Te  Te177  1  0.90884613  0.73073090  0.24708831  1
  Te  Te178  1  0.95363719  0.72120457  0.59666625  1
  Te  Te179  1  0.94342816  0.77851642  0.90025171  1
