# generated using pymatgen
data_In2Te3
_symmetry_space_group_name_H-M   'P 1'
_cell_length_a   18.99307198
_cell_length_b   18.96254489
_cell_length_c   18.99226147
_cell_angle_alpha   90.04083252
_cell_angle_beta   90.04204926
_cell_angle_gamma   90.02439302
_symmetry_Int_Tables_number   1
_chemical_formula_structural   In2Te3
_chemical_formula_sum   'In72 Te108'
_cell_volume   6840.19133352
_cell_formula_units_Z   36
loop_
 _symmetry_equiv_pos_site_id
 _symmetry_equiv_pos_as_xyz
  1  'x, y, z'
loop_
 _atom_site_type_symbol
 _atom_site_label
 _atom_site_symmetry_multiplicity
 _atom_site_fract_x
 _atom_site_fract_y
 _atom_site_fract_z
 _atom_site_occupancy
  In  In0  1  0.81618644  -0.00584330  0.49764461  1
  In  In1  1  0.31222222  0.15940207  0.50969475  1
  In  In2  1  0.49212802  0.86067567  0.34625258  1
  In  In3  1  0.31916232  0.67470815  0.65942716  1
  In  In4  1  0.16657866  0.66269652  0.18627298  1
  In  In5  1  0.83715532  0.53451690  0.33031098  1
  In  In6  1  0.48276140  0.33956996  0.82239517  1
  In  In7  1  0.49858299  0.86187416  0.67318518  1
  In  In8  1  0.81764246  0.34473989  0.17399022  1
  In  In9  1  0.50263114  0.65772059  0.82833394  1
  In  In10  1  0.17228272  -0.00412660  0.16741667  1
  In  In11  1  0.66968034  0.01461166  0.65271351  1
  In  In12  1  0.65269280  0.82831394  0.85225522  1
  In  In13  1  0.86153163  0.68022863  0.52068729  1
  In  In14  1  0.47503648  0.51794505  0.66846160  1
  In  In15  1  0.63941058  0.34585766  0.29668484  1
  In  In16  1  0.19500098  0.15243359  -0.05012861  1
  In  In17  1  -0.00483817  -0.02970988  0.00189477  1
  In  In18  1  0.16368947  0.84848839  0.32727738  1
  In  In19  1  0.20113865  0.34683260  0.53967246  1
  In  In20  1  0.30448645  0.68652512  0.35594609  1
  In  In21  1  0.02462538  0.68213914  -0.01798144  1
  In  In22  1  0.17653647  0.13254720  0.68047095  1
  In  In23  1  0.17679479  0.82879254  0.00936408  1
  In  In24  1  0.51592327  0.17350032  0.31542053  1
  In  In25  1  0.65651366  0.16601481  0.49142976  1
  In  In26  1  0.81164362  0.49453026  0.67166174  1
  In  In27  1  0.49861581  0.65679929  0.17386654  1
  In  In28  1  0.34403540  0.00876299  0.34292189  1
  In  In29  1  0.49819701  0.51070385  -0.01568816  1
  In  In30  1  0.83452449  0.33210904  0.48762886  1
  In  In31  1  0.82039826  0.50311850  0.00272919  1
  In  In32  1  -0.02206167  0.35016423  -0.00621791  1
  In  In33  1  0.34261127  0.85183757  0.54163145  1
  In  In34  1  0.35715477  0.33652391  -0.00569221  1
  In  In35  1  0.63794322  0.50066564  0.47289261  1
  In  In36  1  0.82411653  0.84707182  0.31095540  1
  In  In37  1  0.64749466  0.65276208  0.65951098  1
  In  In38  1  0.17187270  0.32165050  0.80063079  1
  In  In39  1  0.86042007  0.17080090  0.66707147  1
  In  In40  1  0.84970428  0.66380537  0.84539008  1
  In  In41  1  0.15391437  0.18434101  0.36655175  1
  In  In42  1  0.19136813  0.49036483  0.36259612  1
  In  In43  1  0.16039833  0.32212188  0.16354894  1
  In  In44  1  0.64941978  0.82400143  0.47994086  1
  In  In45  1  0.46325957  0.33086203  0.52277641  1
  In  In46  1  0.00883493  0.32463545  0.65791594  1
  In  In47  1  0.03536829  0.66258904  0.66083196  1
  In  In48  1  0.51616911  0.84242386  0.01814648  1
  In  In49  1  -0.03610505  0.52974519  0.16956441  1
  In  In50  1  0.67618279  0.66414662  0.31022191  1
  In  In51  1  0.35338112  -0.00699049  -0.03222337  1
  In  In52  1  0.16029006  0.48459376  -0.01807455  1
  In  In53  1  0.65932571  0.17800345  0.84774767  1
  In  In54  1  0.66488387  0.16831990  0.16612182  1
  In  In55  1  -0.00936609  0.01318237  0.33415882  1
  In  In56  1  0.17832112  0.67267119  0.82028958  1
  In  In57  1  0.00374609  0.67921740  0.34758259  1
  In  In58  1  0.00757694  0.11378819  0.52795955  1
  In  In59  1  0.82678825  0.17874311  -0.01312483  1
  In  In60  1  0.35567945  0.68037094  -0.01753587  1
  In  In61  1  0.80289463  -0.01769022  0.85903161  1
  In  In62  1  0.82249335  -0.01046164  0.15097941  1
  In  In63  1  0.00060676  0.32667437  0.36919337  1
  In  In64  1  0.34032850  0.13704334  0.14826085  1
  In  In65  1  0.40920855  0.37038216  0.32210240  1
  In  In66  1  0.84414810  0.81934361  0.68532618  1
  In  In67  1  0.33002563  0.51914380  0.14805281  1
  In  In68  1  0.02198300  0.15676176  0.82243104  1
  In  In69  1  -0.01696969  0.11855988  0.14658832  1
  In  In70  1  0.52316269  0.18399059  -0.00397815  1
  In  In71  1  0.65064849  0.32485785  0.68633928  1
  Te  Te72  1  0.10696760  0.09074205  0.06589861  1
  Te  Te73  1  0.10611025  0.05466254  0.42233123  1
  Te  Te74  1  0.08035528  0.04165916  0.74936775  1
  Te  Te75  1  0.07439341  0.43008918  0.09546130  1
  Te  Te76  1  0.09279690  0.41344845  0.45011218  1
  Te  Te77  1  0.08246146  0.41948699  0.74111686  1
  Te  Te78  1  0.08133559  0.75593049  0.10310141  1
  Te  Te79  1  0.08819787  0.76945581  0.42412146  1
  Te  Te80  1  0.09196448  0.76688110  0.74745749  1
  Te  Te81  1  0.44263437  0.07022352  0.06447173  1
  Te  Te82  1  0.42534868  0.10961254  0.41946319  1
  Te  Te83  1  0.40423459  -0.01582003  0.69000570  1
  Te  Te84  1  0.43104848  0.42205226  0.09223234  1
  Te  Te85  1  0.39619853  0.43927708  0.45014141  1
  Te  Te86  1  0.39048907  0.41034546  0.72736884  1
  Te  Te87  1  0.41407497  0.75727639  0.09543963  1
  Te  Te88  1  0.40947146  0.76446841  0.43023660  1
  Te  Te89  1  0.41935212  0.75062468  0.74702674  1
  Te  Te90  1  0.73968665  0.08365041  0.06427296  1
  Te  Te91  1  0.72806484  0.06813082  0.40656893  1
  Te  Te92  1  0.75998290  0.09462419  0.75696235  1
  Te  Te93  1  0.73304430  0.40485746  0.07285243  1
  Te  Te94  1  0.74930699  0.42304958  0.40106709  1
  Te  Te95  1  0.75040041  0.39884847  0.76398580  1
  Te  Te96  1  0.76527183  0.69926433  0.19193863  1
  Te  Te97  1  0.76972006  0.74789581  0.42056479  1
  Te  Te98  1  0.73122350  0.73920755  0.75277476  1
  Te  Te99  1  0.06805644  0.24271092  0.25553703  1
  Te  Te100  1  0.10046343  0.23045668  0.58148216  1
  Te  Te101  1  0.08178692  0.25922111  0.92658305  1
  Te  Te102  1  0.08875037  0.56653854  0.27258003  1
  Te  Te103  1  0.13096939  0.58682474  0.57910738  1
  Te  Te104  1  0.08080772  0.57486050  0.89147639  1
  Te  Te105  1  0.06221614  0.92048462  0.23765165  1
  Te  Te106  1  0.04838186  0.98476338  0.59476231  1
  Te  Te107  1  0.10481762  0.92112892  0.92113143  1
  Te  Te108  1  0.40852649  0.24248936  0.23322766  1
  Te  Te109  1  0.38820508  0.23875859  0.61060179  1
  Te  Te110  1  0.41121679  0.23002589  0.90337164  1
  Te  Te111  1  0.38812588  0.59707811  0.26297974  1
  Te  Te112  1  0.41234599  0.60396964  0.56955534  1
  Te  Te113  1  0.39388236  0.56898292  0.88986637  1
  Te  Te114  1  0.42882511  0.94493623  0.24247839  1
  Te  Te115  1  0.46130819  0.94919214  0.55194483  1
  Te  Te116  1  0.44031003  0.89336415  0.90387305  1
  Te  Te117  1  0.75029912  0.24973744  0.27007537  1
  Te  Te118  1  0.75356334  0.24823795  0.58846641  1
  Te  Te119  1  0.75259410  0.27573187  0.90736822  1
  Te  Te120  1  0.73498143  0.55096357  0.22289603  1
  Te  Te121  1  0.74271393  0.58440997  0.56144903  1
  Te  Te122  1  0.74360121  0.59276132  0.91409465  1
  Te  Te123  1  0.71977925  0.91014877  0.22600421  1
  Te  Te124  1  0.73959193  0.89060671  0.59205460  1
  Te  Te125  1  0.74441364  0.88518452  0.95802852  1
  Te  Te126  1  0.25557615  0.24701160  0.07161533  1
  Te  Te127  1  0.26118181  0.27476838  0.41838719  1
  Te  Te128  1  0.27028808  0.23281818  0.73703174  1
  Te  Te129  1  0.23571872  0.59895644  0.05892685  1
  Te  Te130  1  0.22269124  0.60523346  0.45379232  1
  Te  Te131  1  0.23308877  0.56681547  0.72489213  1
  Te  Te132  1  0.27060093  0.92508422  0.08105216  1
  Te  Te133  1  0.26036736  0.91452206  0.42350029  1
  Te  Te134  1  0.27470489  0.89962271  0.67559357  1
  Te  Te135  1  0.59342134  0.27167144  0.09043000  1
  Te  Te136  1  0.57725365  0.27619443  0.42404711  1
  Te  Te137  1  0.55773477  0.22407198  0.74559528  1
  Te  Te138  1  0.58353518  0.59084479  0.07479384  1
  Te  Te139  1  0.57217391  0.60546592  0.39805238  1
  Te  Te140  1  0.59116734  0.55531591  0.75986355  1
  Te  Te141  1  0.64502677  0.88038600  0.07943275  1
  Te  Te142  1  0.59984452  0.94317050  0.40933197  1
  Te  Te143  1  0.59811680  0.93851714  0.76466494  1
  Te  Te144  1  0.91952018  0.24824470  0.09725505  1
  Te  Te145  1  0.92533385  0.21876811  0.44406530  1
  Te  Te146  1  0.92493976  0.26075829  0.76889656  1
  Te  Te147  1  0.91211287  0.61571598  0.06145084  1
  Te  Te148  1  0.93562382  0.57625023  0.43839988  1
  Te  Te149  1  0.91134371  0.59455249  0.72615443  1
  Te  Te150  1  0.90904811  0.89049375  0.08666799  1
  Te  Te151  1  0.91422023  0.91192285  0.41644115  1
  Te  Te152  1  0.90713422  0.90203135  0.79180736  1
  Te  Te153  1  0.23770159  0.09815488  0.26019868  1
  Te  Te154  1  0.25480423  0.04600827  0.58730124  1
  Te  Te155  1  0.26471546  0.05538206  0.86739652  1
  Te  Te156  1  0.25160441  0.41869480  0.23752947  1
  Te  Te157  1  0.26392653  0.44421974  0.63134916  1
  Te  Te158  1  0.25810822  0.40394868  0.90237933  1
  Te  Te159  1  0.25859772  0.77140324  0.23802367  1
  Te  Te160  1  0.22243803  0.77487273  0.59930732  1
  Te  Te161  1  0.26577240  0.76911808  0.90038615  1
  Te  Te162  1  0.57215511  0.07129046  0.22788207  1
  Te  Te163  1  0.56691131  0.09318151  0.58286528  1
  Te  Te164  1  0.59864242  0.07451234  0.93158643  1
  Te  Te165  1  0.52850207  0.43466967  0.26678488  1
  Te  Te166  1  0.58050202  0.41983445  0.58944841  1
  Te  Te167  1  0.57429076  0.40864569  0.91134000  1
  Te  Te168  1  0.56833466  0.76115681  0.25809321  1
  Te  Te169  1  0.56533154  0.75089507  0.58247827  1
  Te  Te170  1  0.58210647  0.72478429  0.93696763  1
  Te  Te171  1  0.88592527  0.08804168  0.25577658  1
  Te  Te172  1  0.90283156  0.03120681  0.62057659  1
  Te  Te173  1  0.92133661  0.08211240  0.91768823  1
  Te  Te174  1  0.92446267  0.41241029  0.26842656  1
  Te  Te175  1  0.91186944  0.41774287  0.58456634  1
  Te  Te176  1  0.91693250  0.44650642  0.90620036  1
  Te  Te177  1  0.90805195  0.73676406  0.24813961  1
  Te  Te178  1  0.95207837  0.77823065  0.58822869  1
  Te  Te179  1  0.93876702  0.76932641  0.89757257  1
