# generated using pymatgen
data_In2Te3
_symmetry_space_group_name_H-M   'P 1'
_cell_length_a   18.88492663
_cell_length_b   18.87009607
_cell_length_c   18.87022986
_cell_angle_alpha   90.01645179
_cell_angle_beta   90.10041201
_cell_angle_gamma   90.01046257
_symmetry_Int_Tables_number   1
_chemical_formula_structural   In2Te3
_chemical_formula_sum   'In72 Te108'
_cell_volume   6724.59156311
_cell_formula_units_Z   36
loop_
 _symmetry_equiv_pos_site_id
 _symmetry_equiv_pos_as_xyz
  1  'x, y, z'
loop_
 _atom_site_type_symbol
 _atom_site_label
 _atom_site_symmetry_multiplicity
 _atom_site_fract_x
 _atom_site_fract_y
 _atom_site_fract_z
 _atom_site_occupancy
  In  In0  1  0.65932455  0.82195468  0.17809382  1
  In  In1  1  0.84875656  0.63599523  0.82497691  1
  In  In2  1  0.69523429  0.01975550  0.35078630  1
  In  In3  1  -0.02865877  0.00958585  0.64731441  1
  In  In4  1  -0.02447617  0.48815257  0.80488147  1
  In  In5  1  0.50547056  0.67489401  0.48849012  1
  In  In6  1  0.17802303  0.15000486  0.67207821  1
  In  In7  1  -0.02028713  -0.00751193  0.00022374  1
  In  In8  1  0.49713157  0.82461968  0.32774441  1
  In  In9  1  0.31250802  0.84459529  0.87389799  1
  In  In10  1  -0.00967132  0.85468992  0.47048514  1
  In  In11  1  0.19387520  0.62424358  0.45574029  1
  In  In12  1  0.16374595  0.49823545  0.01498977  1
  In  In13  1  0.83266671  0.82711756  0.01280739  1
  In  In14  1  0.49432776  0.15014829  -0.01784063  1
  In  In15  1  0.17703791  0.19592427  0.02621061  1
  In  In16  1  0.51828482  0.47780316  0.32686349  1
  In  In17  1  0.14206049  0.01896048  0.84078407  1
  In  In18  1  0.48375006  0.85689293  0.67528037  1
  In  In19  1  0.14710130  0.66652416  0.82929624  1
  In  In20  1  0.32361687  0.64713050  0.03095848  1
  In  In21  1  0.48108189  0.00506383  0.81885420  1
  In  In22  1  0.12874931  0.80785990  0.29311899  1
  In  In23  1  0.52398504  0.02227649  0.19240034  1
  In  In24  1  0.68771769  0.63239271  0.63365079  1
  In  In25  1  0.31601207  0.83371613  0.48655084  1
  In  In26  1  0.00938832  0.33252211  -0.02353068  1
  In  In27  1  0.81011085  0.16208681  0.01470352  1
  In  In28  1  0.84609768  0.83454990  0.65823744  1
  In  In29  1  0.16136372  0.35496847  0.48420469  1
  In  In30  1  0.63877881  0.02020926  -0.00463990  1
  In  In31  1  0.50361247  0.32817819  0.82190287  1
  In  In32  1  0.58330452  0.23764018  0.58565271  1
  In  In33  1  0.34372450  0.04736441  0.34903380  1
  In  In34  1  0.15686277  0.17284886  0.33783993  1
  In  In35  1  0.84871581  -0.00677466  0.17558394  1
  In  In36  1  0.78963061  0.43888051  0.58038293  1
  In  In37  1  0.62878518  0.62478551  0.02288648  1
  In  In38  1  0.36177643  0.65724672  0.66696165  1
  In  In39  1  0.67602134  0.47208066  0.79948124  1
  In  In40  1  0.13799412  0.48409053  0.65276305  1
  In  In41  1  0.51806014  0.47759956  0.64426158  1
  In  In42  1  0.83036682  0.49146118  -0.00023439  1
  In  In43  1  0.67006149  0.81891659  0.83790003  1
  In  In44  1  0.67165252  0.81983755  0.50017597  1
  In  In45  1  0.49476062  0.65314570  0.85482764  1
  In  In46  1  0.83219447  0.65699556  0.19916398  1
  In  In47  1  0.16485165  -0.00434647  0.18681939  1
  In  In48  1  -0.01979960  0.18696305  0.50490420  1
  In  In49  1  0.80790158  0.02829701  0.82026761  1
  In  In50  1  -0.01673006  0.15030706  0.18529240  1
  In  In51  1  0.35560801  0.16945009  0.82564630  1
  In  In52  1  -0.00793519  0.52361835  0.17899523  1
  In  In53  1  0.05575248  0.66984447  0.03678599  1
  In  In54  1  0.48292366  0.33894156  0.17275325  1
  In  In55  1  0.00848444  0.35693424  0.32457096  1
  In  In56  1  -0.02233078  0.33652153  0.64973963  1
  In  In57  1  0.67096478  0.04589769  0.64343322  1
  In  In58  1  0.33836585  0.36844980  0.32088708  1
  In  In59  1  0.33875332  0.32025115  0.65241709  1
  In  In60  1  0.34564285  -0.00910477  0.64135657  1
  In  In61  1  0.17767945  -0.00420922  0.51786017  1
  In  In62  1  0.29375328  0.47588250  0.84285379  1
  In  In63  1  0.67115196  0.68127651  0.33549346  1
  In  In64  1  0.33323720  0.82084140  0.17230156  1
  In  In65  1  0.33817737  0.00352008  0.01964697  1
  In  In66  1  -0.01005560  0.65096024  0.36663463  1
  In  In67  1  0.66144429  0.34288618  -0.00226776  1
  In  In68  1  0.66525138  0.20665560  0.20395258  1
  In  In69  1  0.16226895  0.82036865  0.70949385  1
  In  In70  1  0.82560349  0.33596456  0.17954737  1
  In  In71  1  0.01961077  0.82493732  0.82971364  1
  Te  Te72  1  0.07995147  0.08182033  0.08042632  1
  Te  Te73  1  0.08462604  0.08996727  0.44227295  1
  Te  Te74  1  0.05342639  0.09727712  0.74317903  1
  Te  Te75  1  0.05984016  0.41642839  0.09166613  1
  Te  Te76  1  0.11802497  0.44825595  0.37430104  1
  Te  Te77  1  0.08220673  0.39219958  0.75710105  1
  Te  Te78  1  0.10648769  0.73711876  0.15509974  1
  Te  Te79  1  0.10674671  0.75359090  0.43742669  1
  Te  Te80  1  0.04883049  0.71813264  0.72463385  1
  Te  Te81  1  0.42116102  0.09778445  0.10478021  1
  Te  Te82  1  0.43914145  0.08765946  0.45125809  1
  Te  Te83  1  0.42974575  0.10054960  0.71249087  1
  Te  Te84  1  0.40846160  0.46120534  0.12671573  1
  Te  Te85  1  0.44402561  0.39349064  0.43053426  1
  Te  Te86  1  0.41047424  0.42977244  0.74593885  1
  Te  Te87  1  0.42058543  0.74556666  0.08162302  1
  Te  Te88  1  0.39631802  0.73613459  0.40162941  1
  Te  Te89  1  0.40847503  0.76295697  0.77736719  1
  Te  Te90  1  0.73393555  0.07216205  0.11083080  1
  Te  Te91  1  0.74375385  0.10705434  0.46247230  1
  Te  Te92  1  0.77319526  0.12969782  0.71591638  1
  Te  Te93  1  0.73446131  0.43022675  0.09943696  1
  Te  Te94  1  0.73996573  0.39219770  0.44227637  1
  Te  Te95  1  0.77288061  0.38722236  0.72515181  1
  Te  Te96  1  0.73931099  0.73009716  0.08408578  1
  Te  Te97  1  0.77291840  0.74894644  0.42061846  1
  Te  Te98  1  0.75340160  0.73700769  0.74015037  1
  Te  Te99  1  0.08155929  0.25579955  0.23457862  1
  Te  Te100  1  0.10093430  0.25193058  0.58331170  1
  Te  Te101  1  0.08731291  0.22594737  0.91343007  1
  Te  Te102  1  0.08893137  0.57911599  0.27844319  1
  Te  Te103  1  0.09609124  0.58975273  0.56033877  1
  Te  Te104  1  0.06348156  0.56756437  0.91042775  1
  Te  Te105  1  0.06523002  0.94111869  0.27982051  1
  Te  Te106  1  0.08569477  0.91476654  0.60982036  1
  Te  Te107  1  0.09170647  0.90967081  0.93392891  1
  Te  Te108  1  0.42383584  0.25428096  0.27745862  1
  Te  Te109  1  0.43887221  0.28744722  0.54794994  1
  Te  Te110  1  0.41284727  0.26719005  0.92889617  1
  Te  Te111  1  0.40041857  0.56196217  0.28921543  1
  Te  Te112  1  0.42328638  0.56741758  0.56258424  1
  Te  Te113  1  0.39336045  0.56355921  0.92222613  1
  Te  Te114  1  0.41476817  0.93362562  0.25660511  1
  Te  Te115  1  0.43350198  0.91334393  0.54292330  1
  Te  Te116  1  0.43199888  0.91840829  0.93432223  1
  Te  Te117  1  0.78895535  0.23293008  0.28143568  1
  Te  Te118  1  0.73653391  0.24284259  0.54016781  1
  Te  Te119  1  0.74179840  0.24890585  0.91830531  1
  Te  Te120  1  0.73753647  0.56835993  0.26535877  1
  Te  Te121  1  0.78489691  0.58864692  0.52952240  1
  Te  Te122  1  0.73462371  0.57951091  0.91046392  1
  Te  Te123  1  0.75321537  0.90678364  0.25994090  1
  Te  Te124  1  0.74432022  0.92288888  0.58747564  1
  Te  Te125  1  0.74943186  0.92626947  0.93075417  1
  Te  Te126  1  0.26393305  0.29282938  0.09398457  1
  Te  Te127  1  0.25511512  0.26414108  0.40769755  1
  Te  Te128  1  0.24942394  0.25494234  0.75806735  1
  Te  Te129  1  0.24491815  0.56004804  0.12481146  1
  Te  Te130  1  0.28860099  0.52955765  0.38334711  1
  Te  Te131  1  0.24698965  0.58676324  0.74541541  1
  Te  Te132  1  0.24064241  0.90916692  0.08725656  1
  Te  Te133  1  0.24861423  0.93588081  0.39700218  1
  Te  Te134  1  0.25491328  0.93913617  0.76032678  1
  Te  Te135  1  0.58446184  0.23579967  0.07792317  1
  Te  Te136  1  0.62532831  0.29233993  0.44514868  1
  Te  Te137  1  0.59928264  0.26354070  0.73396845  1
  Te  Te138  1  0.53986673  0.54024418  0.10006088  1
  Te  Te139  1  0.59618285  0.57813223  0.42057119  1
  Te  Te140  1  0.57894160  0.58688820  0.74530023  1
  Te  Te141  1  0.57732535  0.91872099  0.09326898  1
  Te  Te142  1  0.59635745  0.91034948  0.40346158  1
  Te  Te143  1  0.59960776  0.92472743  0.75126371  1
  Te  Te144  1  0.91433680  0.25226114  0.08448225  1
  Te  Te145  1  0.91536985  0.26204393  0.39329227  1
  Te  Te146  1  0.87863005  0.25337943  0.71586844  1
  Te  Te147  1  0.91343198  0.59914171  0.06874122  1
  Te  Te148  1  0.91332716  0.54611126  0.43917317  1
  Te  Te149  1  0.89737952  0.56433686  0.70616307  1
  Te  Te150  1  0.93692420  0.88865577  0.10458092  1
  Te  Te151  1  0.90809197  0.95025711  0.39800185  1
  Te  Te152  1  0.91141878  0.92343710  0.77120458  1
  Te  Te153  1  0.25406347  0.10673210  0.23891749  1
  Te  Te154  1  0.27564011  0.10465159  0.56506500  1
  Te  Te155  1  0.26065197  0.08635856  0.91730947  1
  Te  Te156  1  0.25824175  0.40908986  0.19740401  1
  Te  Te157  1  0.25753219  0.42747036  0.57874960  1
  Te  Te158  1  0.24146204  0.38735288  0.95050880  1
  Te  Te159  1  0.25523453  0.73534216  0.26341345  1
  Te  Te160  1  0.26406454  0.76049085  0.60931949  1
  Te  Te161  1  0.23102778  0.73404985  0.93709493  1
  Te  Te162  1  0.58492908  0.11547957  0.29565195  1
  Te  Te163  1  0.56161981  0.08352927  0.54922503  1
  Te  Te164  1  0.59004736  0.09994936  0.87583684  1
  Te  Te165  1  0.60305418  0.38140221  0.24993709  1
  Te  Te166  1  0.63261905  0.42991828  0.56118055  1
  Te  Te167  1  0.57621988  0.43232418  0.90863543  1
  Te  Te168  1  0.55988674  0.72233235  0.23538537  1
  Te  Te169  1  0.57472546  0.74964441  0.60427628  1
  Te  Te170  1  0.58046549  0.74892811  0.93703841  1
  Te  Te171  1  0.91645578  0.06646082  0.29162327  1
  Te  Te172  1  0.88712553  0.07332911  0.54189836  1
  Te  Te173  1  0.90768366  0.09584386  0.91494394  1
  Te  Te174  1  0.89506187  0.44258563  0.26351368  1
  Te  Te175  1  0.93980898  0.42335084  0.53472313  1
  Te  Te176  1  0.89511815  0.39795997  0.89967363  1
  Te  Te177  1  0.92242642  0.74392950  0.27440213  1
  Te  Te178  1  0.91412812  0.75852506  0.55291894  1
  Te  Te179  1  0.91258744  0.74813913  0.90991874  1
