# generated using pymatgen
data_In2Te3
_symmetry_space_group_name_H-M   'P 1'
_cell_length_a   18.76323232
_cell_length_b   18.75690914
_cell_length_c   18.74902134
_cell_angle_alpha   90.03087291
_cell_angle_beta   89.96931435
_cell_angle_gamma   90.07044513
_symmetry_Int_Tables_number   1
_chemical_formula_structural   In2Te3
_chemical_formula_sum   'In72 Te108'
_cell_volume   6598.52825192
_cell_formula_units_Z   36
loop_
 _symmetry_equiv_pos_site_id
 _symmetry_equiv_pos_as_xyz
  1  'x, y, z'
loop_
 _atom_site_type_symbol
 _atom_site_label
 _atom_site_symmetry_multiplicity
 _atom_site_fract_x
 _atom_site_fract_y
 _atom_site_fract_z
 _atom_site_occupancy
  In  In0  1  0.66711626  0.01151400  -0.00745389  1
  In  In1  1  0.34216824  0.34230754  0.35189605  1
  In  In2  1  0.16436514  0.82359317  0.67718591  1
  In  In3  1  0.50685219  0.65670770  0.13929338  1
  In  In4  1  0.49612927  0.83280488  -0.00815965  1
  In  In5  1  0.00331272  -0.00130217  -0.03206116  1
  In  In6  1  0.31328254  0.50487858  0.16484246  1
  In  In7  1  0.17514426  -0.02124271  0.52042899  1
  In  In8  1  0.82789568  0.32073363  0.52866818  1
  In  In9  1  0.51865133  0.17198569  -0.01743702  1
  In  In10  1  -0.03196215  0.18964708  0.14267382  1
  In  In11  1  0.84066392  0.49862089  0.33943746  1
  In  In12  1  0.49615777  0.83736864  0.71151745  1
  In  In13  1  0.66922527  0.03119511  0.69813107  1
  In  In14  1  0.32831896  0.81781145  0.50835678  1
  In  In15  1  -0.01356861  0.00302340  0.65673410  1
  In  In16  1  0.84174292  0.67951661  0.16270906  1
  In  In17  1  0.85403068  0.00142782  0.49187108  1
  In  In18  1  -0.02166530  0.36839322  -0.02029954  1
  In  In19  1  0.50246873  0.01932750  0.50821829  1
  In  In20  1  -0.00191895  0.35656390  0.32324567  1
  In  In21  1  0.16169696  0.50997454  0.00841369  1
  In  In22  1  0.01106134  0.84232135  0.82247552  1
  In  In23  1  0.53473737  0.16039406  0.33425631  1
  In  In24  1  0.49094742  0.49902349  0.66781815  1
  In  In25  1  0.16772665  0.15691427  0.67484660  1
  In  In26  1  0.14594684  0.52693218  0.32842164  1
  In  In27  1  0.48278852  0.84965748  0.31250052  1
  In  In28  1  0.67437141  0.67004836  0.34233352  1
  In  In29  1  0.48125932  0.65082019  0.51913879  1
  In  In30  1  0.67497999  0.83320240  0.50028872  1
  In  In31  1  0.51262902  0.34225145  0.14532217  1
  In  In32  1  0.67465138  0.33513415  -0.02827028  1
  In  In33  1  -0.00137430  0.80541369  0.15761300  1
  In  In34  1  0.68250348  0.49737818  0.51211963  1
  In  In35  1  -0.02600204  0.16391998  0.81623826  1
  In  In36  1  0.48612030  0.67510176  0.84980231  1
  In  In37  1  -0.02099122  0.34068101  0.66964516  1
  In  In38  1  0.34991867  0.16471965  0.84612019  1
  In  In39  1  0.68193809  0.66161532  0.66831368  1
  In  In40  1  0.14205101  0.67939347  0.48462561  1
  In  In41  1  -0.00153914  0.66489117  0.01359455  1
  In  In42  1  0.34155124  0.14865339  0.17882169  1
  In  In43  1  0.52707671  0.19152791  0.68601103  1
  In  In44  1  0.28886685  0.68113120  0.31824891  1
  In  In45  1  0.83326787  0.65058625  0.50327317  1
  In  In46  1  0.81561350  0.01069113  0.15971375  1
  In  In47  1  0.36056986  -0.02070437  0.34235881  1
  In  In48  1  0.16628815  0.15440805  0.00073496  1
  In  In49  1  0.16286187  0.31905936  0.82055081  1
  In  In50  1  -0.00707810  0.15590061  0.50894535  1
  In  In51  1  0.68913399  0.47459138  0.82903778  1
  In  In52  1  0.17072864  0.17624309  0.34620700  1
  In  In53  1  -0.00393737  -0.02706150  0.31916830  1
  In  In54  1  0.15790596  0.50896656  0.65356519  1
  In  In55  1  0.83861070  0.82037673  0.67136197  1
  In  In56  1  0.32528151  -0.00684652  0.69095089  1
  In  In57  1  0.80517171  0.19054024  0.31189716  1
  In  In58  1  0.14519550  0.35035895  0.13713694  1
  In  In59  1  0.49929590  0.47778263  0.31188264  1
  In  In60  1  0.65564830  0.48636083  0.14002433  1
  In  In61  1  0.35826068  0.33232421  -0.00433995  1
  In  In62  1  0.35234926  0.50310655  0.83296812  1
  In  In63  1  0.50306307  0.31751324  0.49945657  1
  In  In64  1  0.83611706  0.65033433  0.82241920  1
  In  In65  1  0.81884391  0.83873722  0.00498907  1
  In  In66  1  0.17591057  0.36154901  0.49504076  1
  In  In67  1  0.68772804  0.01109199  0.31783079  1
  In  In68  1  0.68912362  0.84313718  0.16252788  1
  In  In69  1  0.16742850  0.68585591  0.85386688  1
  In  In70  1  0.34537755  -0.00673107  -0.02033096  1
  In  In71  1  0.17038827  -0.03376669  0.15138708  1
  Te  Te72  1  0.07648415  0.07914447  0.10032498  1
  Te  Te73  1  0.08483298  0.06926974  0.42231380  1
  Te  Te74  1  0.08077161  0.06614228  0.76075062  1
  Te  Te75  1  0.05798307  0.47337470  0.11797554  1
  Te  Te76  1  0.06540937  0.44276574  0.42980487  1
  Te  Te77  1  0.07562378  0.42416670  0.75593662  1
  Te  Te78  1  0.11258696  0.72391261  0.09729049  1
  Te  Te79  1  0.07509223  0.78029148  0.40153028  1
  Te  Te80  1  0.06590866  0.72540988  0.74338542  1
  Te  Te81  1  0.42861878  0.08330906  0.07293225  1
  Te  Te82  1  0.41505976  0.10203272  0.41360841  1
  Te  Te83  1  0.43404087  0.08046285  0.74971281  1
  Te  Te84  1  0.42457339  0.44500044  0.07515703  1
  Te  Te85  1  0.42199638  0.43825863  0.43796220  1
  Te  Te86  1  0.42323356  0.39887804  0.75590215  1
  Te  Te87  1  0.40963113  0.74985879  0.08173789  1
  Te  Te88  1  0.42227430  0.74381554  0.40967481  1
  Te  Te89  1  0.39525132  0.73974928  0.75097146  1
  Te  Te90  1  0.75067219  0.10804225  0.07270411  1
  Te  Te91  1  0.75421820  0.09767504  0.42405260  1
  Te  Te92  1  0.76235493  0.10466415  0.78667184  1
  Te  Te93  1  0.76235445  0.40990142  0.06856962  1
  Te  Te94  1  0.75332931  0.40062589  0.41857507  1
  Te  Te95  1  0.75321311  0.37926125  0.73012494  1
  Te  Te96  1  0.73056316  0.73167975  0.06775847  1
  Te  Te97  1  0.77447210  0.76096008  0.41069358  1
  Te  Te98  1  0.73783867  0.76018833  0.76952238  1
  Te  Te99  1  0.08250450  0.24669400  0.24197512  1
  Te  Te100  1  0.08663824  0.25171553  0.58465634  1
  Te  Te101  1  0.07252481  0.25267189  0.92772807  1
  Te  Te102  1  0.06466538  0.58940661  0.22329566  1
  Te  Te103  1  0.06207176  0.59604344  0.57939758  1
  Te  Te104  1  0.07028807  0.57888332  0.90801676  1
  Te  Te105  1  0.10434715  0.87724608  0.26462208  1
  Te  Te106  1  0.06570999  0.89415750  0.58367196  1
  Te  Te107  1  0.10085526  0.89295519  0.93191364  1
  Te  Te108  1  0.42344851  0.26057231  0.24884920  1
  Te  Te109  1  0.42108072  0.23770159  0.59340679  1
  Te  Te110  1  0.45113891  0.27417645  0.88931866  1
  Te  Te111  1  0.41340972  0.58975873  0.25432933  1
  Te  Te112  1  0.38493214  0.58559048  0.60841485  1
  Te  Te113  1  0.39871890  0.59372626  0.93943740  1
  Te  Te114  1  0.39622032  0.91589121  0.21373692  1
  Te  Te115  1  0.42206301  0.91271573  0.58527516  1
  Te  Te116  1  0.43008699  0.91575480  0.88587089  1
  Te  Te117  1  0.70799527  0.26100409  0.22899532  1
  Te  Te118  1  0.73072371  0.26362219  0.62586436  1
  Te  Te119  1  0.72544950  0.22070943  0.88537470  1
  Te  Te120  1  0.73950027  0.57763990  0.24118846  1
  Te  Te121  1  0.77901908  0.55745744  0.61460230  1
  Te  Te122  1  0.75889915  0.57035005  0.92237490  1
  Te  Te123  1  0.78401106  0.90348139  0.26577849  1
  Te  Te124  1  0.75277493  0.92806465  0.59057327  1
  Te  Te125  1  0.76025085  0.93088344  0.90750459  1
  Te  Te126  1  0.26179200  0.24673290  0.08775442  1
  Te  Te127  1  0.26475323  0.24641937  0.44307365  1
  Te  Te128  1  0.27133360  0.24793566  0.74161922  1
  Te  Te129  1  0.24670035  0.60932459  0.08211107  1
  Te  Te130  1  0.25159526  0.58006970  0.42383461  1
  Te  Te131  1  0.23842982  0.57976735  0.76753939  1
  Te  Te132  1  0.25619813  0.89121038  0.05106989  1
  Te  Te133  1  0.24753731  0.90053457  0.40991570  1
  Te  Te134  1  0.25069420  0.89602693  0.77348787  1
  Te  Te135  1  0.60778055  0.23876482  0.08871890  1
  Te  Te136  1  0.61053669  0.25123756  0.42135914  1
  Te  Te137  1  0.63617338  0.26476497  0.76237572  1
  Te  Te138  1  0.58909082  0.57856751  0.04512199  1
  Te  Te139  1  0.58464069  0.57586994  0.42179104  1
  Te  Te140  1  0.58685115  0.58158551  0.75667582  1
  Te  Te141  1  0.58572884  0.92218288  0.08896252  1
  Te  Te142  1  0.58543796  0.92142326  0.41361286  1
  Te  Te143  1  0.59704852  0.92380618  0.77448696  1
  Te  Te144  1  0.88493008  0.28132304  0.05950277  1
  Te  Te145  1  0.92214956  0.24969382  0.41155774  1
  Te  Te146  1  0.89415027  0.28674177  0.78235577  1
  Te  Te147  1  0.89498712  0.57559449  0.07163466  1
  Te  Te148  1  0.92991028  0.60185653  0.39854681  1
  Te  Te149  1  0.90938115  0.53686624  0.76149375  1
  Te  Te150  1  0.92753656  0.92209589  0.08855925  1
  Te  Te151  1  0.93913713  0.89258596  0.43237623  1
  Te  Te152  1  0.90205170  0.92877090  0.76072166  1
  Te  Te153  1  0.23672690  0.06880967  0.25733340  1
  Te  Te154  1  0.26663643  0.08354010  0.58187218  1
  Te  Te155  1  0.23923541  0.07150349  0.89688207  1
  Te  Te156  1  0.23778299  0.40760156  0.26027845  1
  Te  Te157  1  0.26096117  0.41527342  0.60155914  1
  Te  Te158  1  0.24183374  0.40346731  0.92494286  1
  Te  Te159  1  0.22014284  0.76149917  0.21813553  1
  Te  Te160  1  0.24731860  0.72578006  0.59427181  1
  Te  Te161  1  0.24237684  0.78448102  0.93421966  1
  Te  Te162  1  0.57968296  0.06396024  0.23301391  1
  Te  Te163  1  0.60410391  0.10457577  0.57887740  1
  Te  Te164  1  0.58252271  0.07804371  0.88737789  1
  Te  Te165  1  0.61275943  0.38840179  0.26172264  1
  Te  Te166  1  0.58806764  0.40952038  0.59204246  1
  Te  Te167  1  0.57369411  0.42386486  0.90951367  1
  Te  Te168  1  0.58730820  0.75184714  0.24656790  1
  Te  Te169  1  0.58085249  0.74949638  0.58808653  1
  Te  Te170  1  0.59472100  0.75073905  0.91628404  1
  Te  Te171  1  0.91785144  0.09052373  0.25858635  1
  Te  Te172  1  0.88728408  0.10726239  0.60645230  1
  Te  Te173  1  0.90184022  0.09693911  0.92741315  1
  Te  Te174  1  0.89149411  0.40540378  0.23532441  1
  Te  Te175  1  0.92013854  0.42975133  0.56723366  1
  Te  Te176  1  0.89106634  0.44812444  0.88398613  1
  Te  Te177  1  0.94548662  0.71493739  0.26727018  1
  Te  Te178  1  0.92361208  0.72446200  0.59818839  1
  Te  Te179  1  0.91641759  0.75700791  0.91603174  1
