# generated using pymatgen
data_In2Te3
_symmetry_space_group_name_H-M   'P 1'
_cell_length_a   18.77806085
_cell_length_b   18.79021304
_cell_length_c   18.77760009
_cell_angle_alpha   90.05522620
_cell_angle_beta   89.93586929
_cell_angle_gamma   89.85976280
_symmetry_Int_Tables_number   1
_chemical_formula_structural   In2Te3
_chemical_formula_sum   'In72 Te108'
_cell_volume   6625.53199830
_cell_formula_units_Z   36
loop_
 _symmetry_equiv_pos_site_id
 _symmetry_equiv_pos_as_xyz
  1  'x, y, z'
loop_
 _atom_site_type_symbol
 _atom_site_label
 _atom_site_symmetry_multiplicity
 _atom_site_fract_x
 _atom_site_fract_y
 _atom_site_fract_z
 _atom_site_occupancy
  In  In0  1  0.48117518  0.51379627  -0.02695680  1
  In  In1  1  0.32452632  0.81988400  0.83440027  1
  In  In2  1  -0.00716260  0.17538987  0.17049628  1
  In  In3  1  0.01976788  0.66220109  -0.00193665  1
  In  In4  1  0.48583164  0.67324011  0.16754175  1
  In  In5  1  0.81691799  0.50494884  -0.01112776  1
  In  In6  1  0.21174103  0.51615469  0.69798654  1
  In  In7  1  0.83689122  0.85013564  -0.01992301  1
  In  In8  1  0.51907105  0.81783653  0.66059301  1
  In  In9  1  0.83381417  0.17979023  0.64917245  1
  In  In10  1  0.36155473  0.52318828  0.53066172  1
  In  In11  1  0.00625398  0.02223142  0.33094488  1
  In  In12  1  0.48621536  0.16093979  0.67788964  1
  In  In13  1  0.83771081  0.67439411  0.17930002  1
  In  In14  1  0.81850191  0.18416767  0.33441731  1
  In  In15  1  0.47519890  0.01557042  0.13880177  1
  In  In16  1  0.81387879  0.52099856  0.63685502  1
  In  In17  1  0.83590949  0.49736294  0.34740457  1
  In  In18  1  0.51875359  0.20716598  0.35268773  1
  In  In19  1  0.34156191  0.14751108  0.14224481  1
  In  In20  1  0.64767423  0.33529722  0.67374771  1
  In  In21  1  0.64305936  0.14952968  0.83257103  1
  In  In22  1  0.83374590  0.16860786  0.01647151  1
  In  In23  1  0.34388669  0.16843287  0.51861031  1
  In  In24  1  0.81999613  0.35607477  0.82072914  1
  In  In25  1  -0.02064911  0.82847411  0.15137869  1
  In  In26  1  0.17400344  0.81518175  0.34313637  1
  In  In27  1  0.15947890  0.33167761  0.50816490  1
  In  In28  1  0.67496984  0.16591912  0.16211196  1
  In  In29  1  0.82295936  0.82307848  0.67529244  1
  In  In30  1  0.66831156  0.66092143  0.36510041  1
  In  In31  1  0.01989527  0.48990782  0.18154908  1
  In  In32  1  0.03312061  0.35278240  0.66360920  1
  In  In33  1  0.00939004  0.49014708  0.81973752  1
  In  In34  1  0.82058058  -0.00420510  0.49929689  1
  In  In35  1  0.33108684  0.00863940  0.00316792  1
  In  In36  1  0.20991356  0.48620401  -0.02708970  1
  In  In37  1  0.81987453  0.67417284  0.83644033  1
  In  In38  1  -0.00323915  0.51476049  0.49536194  1
  In  In39  1  0.35126652  0.50672616  0.16855643  1
  In  In40  1  0.36278713  0.34374503  0.69719654  1
  In  In41  1  0.64011632  -0.00575095  0.66896404  1
  In  In42  1  0.64987886  -0.01477279  0.32858886  1
  In  In43  1  0.46333689  0.79712820  0.37646624  1
  In  In44  1  0.64384040  0.67990281  -0.01215263  1
  In  In45  1  0.83092864  0.32485506  0.47464333  1
  In  In46  1  0.35145164  -0.00759497  0.68848851  1
  In  In47  1  -0.00924898  0.34584819  0.34905564  1
  In  In48  1  0.00025174  0.83434944  0.51350113  1
  In  In49  1  0.01423375  -0.01643663  0.66871082  1
  In  In50  1  0.18878418  0.17815568  0.67711066  1
  In  In51  1  0.19100343  0.66134087  0.52510827  1
  In  In52  1  0.64827813  0.46737018  0.17545549  1
  In  In53  1  0.33343575  -0.03382902  0.34798163  1
  In  In54  1  0.02953041  0.68828961  0.68909958  1
  In  In55  1  0.64352888  0.51885439  0.51441744  1
  In  In56  1  0.51475237  0.33169929  0.16714281  1
  In  In57  1  0.15233089  0.15306761  0.35224794  1
  In  In58  1  0.50361914  0.82150501  -0.00757160  1
  In  In59  1  0.83177488  -0.01349461  0.84008696  1
  In  In60  1  0.17999754  0.16178131  -0.02028063  1
  In  In61  1  0.02242077  0.17984541  0.83389200  1
  In  In62  1  0.17995704  -0.01571430  0.15525031  1
  In  In63  1  0.03063299  -0.02601522  -0.02738924  1
  In  In64  1  0.81605822  0.81396834  0.32217579  1
  In  In65  1  0.16489065  0.65223558  0.17675285  1
  In  In66  1  0.49685682  -0.00681114  0.50397095  1
  In  In67  1  0.65270486  0.84178848  0.16457781  1
  In  In68  1  0.33275833  0.83082199  0.15300938  1
  In  In69  1  0.18454041  0.33388725  0.14674302  1
  In  In70  1  0.65696316  0.35350357  -0.01988257  1
  In  In71  1  0.34422576  0.36636237  0.33515685  1
  Te  Te72  1  0.08822804  0.08495027  0.08585202  1
  Te  Te73  1  0.09969948  0.05027631  0.44259994  1
  Te  Te74  1  0.10119150  0.07754499  0.75520297  1
  Te  Te75  1  0.09585829  0.42924340  0.06533449  1
  Te  Te76  1  0.09785941  0.43398933  0.41296269  1
  Te  Te77  1  0.12593606  0.40375953  0.76907177  1
  Te  Te78  1  0.09846253  0.75868967  0.08588307  1
  Te  Te79  1  0.08647180  0.73140571  0.43645481  1
  Te  Te80  1  0.12214023  0.76816592  0.77610442  1
  Te  Te81  1  0.44461872  0.11835609  0.02451748  1
  Te  Te82  1  0.41690129  0.08434367  0.40813316  1
  Te  Te83  1  0.40915106  0.09181162  0.78348700  1
  Te  Te84  1  0.42277731  0.41230208  0.07391633  1
  Te  Te85  1  0.42882800  0.41914224  0.44299536  1
  Te  Te86  1  0.42311405  0.47361353  0.76115956  1
  Te  Te87  1  0.39898881  0.73040434  0.05640641  1
  Te  Te88  1  0.35428835  0.72453215  0.45916774  1
  Te  Te89  1  0.40581935  0.74045542  0.72988388  1
  Te  Te90  1  0.74005326  0.06977072  0.07017077  1
  Te  Te91  1  0.73105086  0.08391882  0.41330845  1
  Te  Te92  1  0.75628388  0.08118760  0.73705345  1
  Te  Te93  1  0.75501819  0.40353247  0.08531912  1
  Te  Te94  1  0.72450280  0.41748480  0.41531264  1
  Te  Te95  1  0.72958513  0.44763186  0.74205588  1
  Te  Te96  1  0.75359125  0.75256184  0.07842225  1
  Te  Te97  1  0.75008498  0.75802237  0.44037179  1
  Te  Te98  1  0.72119556  0.75049425  0.75602162  1
  Te  Te99  1  0.09545281  0.26113105  0.25129288  1
  Te  Te100  1  0.07737619  0.22927460  0.58441031  1
  Te  Te101  1  0.09352019  0.26943063  0.92535858  1
  Te  Te102  1  0.07198518  0.59085885  0.27387782  1
  Te  Te103  1  0.08657625  0.56372889  0.61106282  1
  Te  Te104  1  0.10312165  0.57617950  0.90347105  1
  Te  Te105  1  0.08362856  0.91100033  0.24794212  1
  Te  Te106  1  0.10604347  0.88678571  0.60283395  1
  Te  Te107  1  0.10100133  0.88335316  0.88247024  1
  Te  Te108  1  0.40291814  0.24861362  0.24424022  1
  Te  Te109  1  0.43608651  0.26969768  0.58031235  1
  Te  Te110  1  0.37291887  0.28276887  0.89848024  1
  Te  Te111  1  0.42948617  0.58232570  0.27000984  1
  Te  Te112  1  0.46272624  0.61050184  0.61010257  1
  Te  Te113  1  0.39027479  0.58739488  0.87607205  1
  Te  Te114  1  0.43034991  0.90567615  0.24460539  1
  Te  Te115  1  0.40791059  0.89966523  0.58022286  1
  Te  Te116  1  0.41513356  0.91559652  0.91191117  1
  Te  Te117  1  0.73673109  0.26993885  0.24645684  1
  Te  Te118  1  0.72778074  0.25335320  0.56849708  1
  Te  Te119  1  0.74960996  0.24666756  0.90102676  1
  Te  Te120  1  0.73982722  0.57923508  0.24602406  1
  Te  Te121  1  0.70903828  0.62268068  0.60154892  1
  Te  Te122  1  0.71828476  0.57642499  0.90032361  1
  Te  Te123  1  0.75815677  0.92573308  0.23604336  1
  Te  Te124  1  0.73083020  0.90529454  0.58298321  1
  Te  Te125  1  0.72644353  0.90035998  0.89613733  1
  Te  Te126  1  0.27923031  0.25946442  0.05384681  1
  Te  Te127  1  0.25725796  0.25278703  0.41430124  1
  Te  Te128  1  0.27682133  0.24588116  0.77804910  1
  Te  Te129  1  0.26054395  0.58737416  0.07479958  1
  Te  Te130  1  0.26837666  0.58006676  0.42466715  1
  Te  Te131  1  0.27706822  0.62763272  0.77355535  1
  Te  Te132  1  0.23954009  0.89368019  0.05001949  1
  Te  Te133  1  0.23408111  0.91020130  0.44001290  1
  Te  Te134  1  0.24044916  0.90947145  0.74675489  1
  Te  Te135  1  0.58695919  0.24686317  0.06331511  1
  Te  Te136  1  0.62371984  0.27668676  0.42311795  1
  Te  Te137  1  0.55786474  0.26161158  0.77339479  1
  Te  Te138  1  0.58226211  0.57574984  0.08476655  1
  Te  Te139  1  0.55191119  0.58423409  0.41319690  1
  Te  Te140  1  0.53514089  0.56804855  0.73942114  1
  Te  Te141  1  0.58358553  0.93157395  0.06489225  1
  Te  Te142  1  0.57945550  0.89210491  0.42565139  1
  Te  Te143  1  0.55351416  0.92250322  0.76197172  1
  Te  Te144  1  0.92362997  0.26662199  0.07827855  1
  Te  Te145  1  0.93761945  0.22560045  0.42349594  1
  Te  Te146  1  0.91904203  0.26245286  0.74616343  1
  Te  Te147  1  0.91550980  0.58222057  0.08208079  1
  Te  Te148  1  0.88938844  0.59890540  0.43945535  1
  Te  Te149  1  0.91095996  0.58275296  0.74795279  1
  Te  Te150  1  0.91742991  0.94185840  0.07281070  1
  Te  Te151  1  0.91523445  0.91461171  0.40719174  1
  Te  Te152  1  0.92646978  0.89722072  0.75963565  1
  Te  Te153  1  0.25409812  0.07487366  0.25371155  1
  Te  Te154  1  0.25468441  0.07208595  0.58937551  1
  Te  Te155  1  0.25350896  0.06896508  0.89160692  1
  Te  Te156  1  0.24025572  0.43505396  0.24771547  1
  Te  Te157  1  0.26073884  0.41060457  0.59027787  1
  Te  Te158  1  0.30723129  0.41526810  0.87752955  1
  Te  Te159  1  0.26954069  0.73557181  0.25381011  1
  Te  Te160  1  0.29001268  0.74679204  0.59449213  1
  Te  Te161  1  0.22246703  0.72493439  0.89362488  1
  Te  Te162  1  0.56564567  0.08642615  0.24811142  1
  Te  Te163  1  0.58185485  0.09758094  0.57389345  1
  Te  Te164  1  0.55500548  0.07399681  0.92007649  1
  Te  Te165  1  0.55265281  0.42300089  0.27823736  1
  Te  Te166  1  0.55884925  0.43015369  0.60048377  1
  Te  Te167  1  0.56489508  0.42206094  0.88875038  1
  Te  Te168  1  0.58386684  0.74850126  0.26043576  1
  Te  Te169  1  0.56921033  0.71619697  0.56160980  1
  Te  Te170  1  0.56467274  0.74267840  0.88164043  1
  Te  Te171  1  0.89628917  0.08454835  0.24471456  1
  Te  Te172  1  0.92187789  0.07454183  0.58190075  1
  Te  Te173  1  0.92832469  0.08425730  0.91146262  1
  Te  Te174  1  0.90439444  0.40925839  0.24174633  1
  Te  Te175  1  0.91131817  0.40602594  0.58245933  1
  Te  Te176  1  0.92067305  0.41496162  0.91913525  1
  Te  Te177  1  0.94068038  0.73928873  0.26982385  1
  Te  Te178  1  0.91776042  0.73333624  0.59435912  1
  Te  Te179  1  0.93078596  0.75046999  0.91008031  1
