# generated using pymatgen
data_In2Te3
_symmetry_space_group_name_H-M   'P 1'
_cell_length_a   18.79284925
_cell_length_b   18.79692053
_cell_length_c   18.79296526
_cell_angle_alpha   90.06317463
_cell_angle_beta   89.97143730
_cell_angle_gamma   90.00882914
_symmetry_Int_Tables_number   1
_chemical_formula_structural   In2Te3
_chemical_formula_sum   'In72 Te108'
_cell_volume   6638.56670244
_cell_formula_units_Z   36
loop_
 _symmetry_equiv_pos_site_id
 _symmetry_equiv_pos_as_xyz
  1  'x, y, z'
loop_
 _atom_site_type_symbol
 _atom_site_label
 _atom_site_symmetry_multiplicity
 _atom_site_fract_x
 _atom_site_fract_y
 _atom_site_fract_z
 _atom_site_occupancy
  In  In0  1  0.66319746  0.67119203  0.64651008  1
  In  In1  1  0.65772708  0.30805000  0.00872699  1
  In  In2  1  0.65931365  -0.01260946  0.31864077  1
  In  In3  1  0.63381309  0.13869486  0.79821013  1
  In  In4  1  0.16450896  0.83255949  0.33034307  1
  In  In5  1  0.15705406  0.50582614  0.67277136  1
  In  In6  1  0.16884931  0.33879544  0.16329425  1
  In  In7  1  0.49199328  0.30479979  0.82666309  1
  In  In8  1  0.83730055  0.17325204  0.00663513  1
  In  In9  1  0.00256880  0.00981320  0.34547356  1
  In  In10  1  0.35505825  0.31488646  0.66301244  1
  In  In11  1  0.50321143  -0.01071076  0.15487762  1
  In  In12  1  0.34328575  0.13450815  0.81391784  1
  In  In13  1  0.30942117  0.32167287  0.33814644  1
  In  In14  1  0.65151355  0.14809435  0.52278036  1
  In  In15  1  0.18017269  0.14507300  0.65149841  1
  In  In16  1  0.31682898  0.65467311  -0.00279902  1
  In  In17  1  0.64835101  0.50743968  0.16207144  1
  In  In18  1  0.34761791  0.02133128  0.35726950  1
  In  In19  1  0.84001006  0.67631826  0.17236295  1
  In  In20  1  0.16128824  0.15119099  0.36043533  1
  In  In21  1  0.64659408  0.15791525  0.16435335  1
  In  In22  1  0.00701548  0.50722328  0.50596276  1
  In  In23  1  0.16468400  0.31644942  0.51353249  1
  In  In24  1  0.31776373  0.82451073  0.16443487  1
  In  In25  1  0.49769341  0.50683661  0.32923227  1
  In  In26  1  0.84683950  0.65988139  0.48884083  1
  In  In27  1  0.67042906  0.66850914  0.02765718  1
  In  In28  1  0.83972490  0.33322839  0.82762358  1
  In  In29  1  0.81260194  0.01399200  0.83648381  1
  In  In30  1  0.65526040  0.66522826  0.33476060  1
  In  In31  1  0.02312470  0.83160429  0.83714163  1
  In  In32  1  0.15872234  0.51579662  0.29884820  1
  In  In33  1  0.04491378  0.13142724  0.14115487  1
  In  In34  1  0.32948474  0.88187960  0.78849821  1
  In  In35  1  0.83902559  -0.00636380  0.16357222  1
  In  In36  1  0.65966925  0.35593576  0.35394902  1
  In  In37  1  0.85051157  -0.00329590  0.51196290  1
  In  In38  1  0.00177528  0.68436799  0.01426057  1
  In  In39  1  0.65028706  0.86590321  0.81313802  1
  In  In40  1  0.32016953  0.67693645  0.67181035  1
  In  In41  1  0.00973448  0.84887023  0.48970153  1
  In  In42  1  0.33989228  0.84712219  0.51591617  1
  In  In43  1  0.49131199  0.67103826  0.18911429  1
  In  In44  1  0.16112162  0.34333245  0.85148912  1
  In  In45  1  0.65645615  0.85746690  0.49951749  1
  In  In46  1  0.82988741  0.18330959  0.34135710  1
  In  In47  1  0.00612683  0.00387655  0.66478590  1
  In  In48  1  0.50284777  0.67343761  0.49719439  1
  In  In49  1  0.32123573  -0.01347337  -0.01513866  1
  In  In50  1  0.86306921  0.66916783  0.83538631  1
  In  In51  1  0.47017152  0.66794466  0.84887532  1
  In  In52  1  -0.00004034  0.18485557  0.84110579  1
  In  In53  1  0.31449873  0.51038606  0.47473857  1
  In  In54  1  0.83126714  0.83437770  0.65289507  1
  In  In55  1  0.16491976  0.49610600  0.01560286  1
  In  In56  1  0.50058905  0.15879914  -0.02416666  1
  In  In57  1  0.82218234  0.32359766  0.49954199  1
  In  In58  1  -0.00704523  0.33369845  0.33916283  1
  In  In59  1  0.51894978  0.84719563  -0.00576163  1
  In  In60  1  0.85001787  0.33988405  0.16442645  1
  In  In61  1  0.85251010  0.51956231  0.00492536  1
  In  In62  1  0.64829185  0.48789174  0.83972592  1
  In  In63  1  -0.00289756  0.49074378  0.83152820  1
  In  In64  1  0.50612183  0.31053311  0.51470967  1
  In  In65  1  0.51216808  0.82305685  0.33908191  1
  In  In66  1  0.83677395  0.49524080  0.68517007  1
  In  In67  1  -0.01157001  0.83197279  0.17210459  1
  In  In68  1  0.15636668  0.82991820  0.00681495  1
  In  In69  1  0.31445607  0.17955729  0.17492821  1
  In  In70  1  0.17871857  0.68622998  0.83294037  1
  In  In71  1  0.50866119  0.47547959  0.65330506  1
  Te  Te72  1  0.11159991  0.05731533  0.03417644  1
  Te  Te73  1  0.08272243  0.06896563  0.45465359  1
  Te  Te74  1  0.08940792  0.08561715  0.76306413  1
  Te  Te75  1  0.06605695  0.41265077  0.08692793  1
  Te  Te76  1  0.10605600  0.41108034  0.40941223  1
  Te  Te77  1  0.07216364  0.39721082  0.73757725  1
  Te  Te78  1  0.10595420  0.73360365  0.11544318  1
  Te  Te79  1  0.06358674  0.74517634  0.39731909  1
  Te  Te80  1  0.09599925  0.75637089  0.73380947  1
  Te  Te81  1  0.40597663  0.07729428  0.07755938  1
  Te  Te82  1  0.40947940  0.12022555  0.44742865  1
  Te  Te83  1  0.44889056  0.06210303  0.73496312  1
  Te  Te84  1  0.45509664  0.45957506  0.05357867  1
  Te  Te85  1  0.41749639  0.40699011  0.42533441  1
  Te  Te86  1  0.41389607  0.41904310  0.75774217  1
  Te  Te87  1  0.42146616  0.75506107  0.07213795  1
  Te  Te88  1  0.40316175  0.74524175  0.41024592  1
  Te  Te89  1  0.42156028  0.76759584  0.74235949  1
  Te  Te90  1  0.74121739  0.07739015  0.07699767  1
  Te  Te91  1  0.74793422  0.07695827  0.41424048  1
  Te  Te92  1  0.75913612  0.09893717  0.72880119  1
  Te  Te93  1  0.74543067  0.42065016  0.06956124  1
  Te  Te94  1  0.78047107  0.42562025  0.39860399  1
  Te  Te95  1  0.73015760  0.40210031  0.74403538  1
  Te  Te96  1  0.77292270  0.76207599  0.07307878  1
  Te  Te97  1  0.74063697  0.75443901  0.42480747  1
  Te  Te98  1  0.75090297  0.74460411  0.75074964  1
  Te  Te99  1  0.08858714  0.24097387  0.25996621  1
  Te  Te100  1  0.07606234  0.23869431  0.60004381  1
  Te  Te101  1  0.08609508  0.25352729  0.94086723  1
  Te  Te102  1  0.07306182  0.59513866  0.20853480  1
  Te  Te103  1  0.10580135  0.59805866  0.57043405  1
  Te  Te104  1  0.07716487  0.59734922  0.91196111  1
  Te  Te105  1  0.08292712  0.93033670  0.24429585  1
  Te  Te106  1  0.09968997  0.91086080  0.59289934  1
  Te  Te107  1  0.09964548  0.93433140  0.91556380  1
  Te  Te108  1  0.41186653  0.25224905  0.25835498  1
  Te  Te109  1  0.41785667  0.20583655  0.58092264  1
  Te  Te110  1  0.38957666  0.24533036  0.92059128  1
  Te  Te111  1  0.39464152  0.58833874  0.26250928  1
  Te  Te112  1  0.41302822  0.58053691  0.58214340  1
  Te  Te113  1  0.40847294  0.55543644  0.92744559  1
  Te  Te114  1  0.41113784  0.91079368  0.25370171  1
  Te  Te115  1  0.40499419  0.95029138  0.60416821  1
  Te  Te116  1  0.43181114  0.92724770  0.89858288  1
  Te  Te117  1  0.74128433  0.25664434  0.23813006  1
  Te  Te118  1  0.74809124  0.23539420  0.59395225  1
  Te  Te119  1  0.74133513  0.23691598  0.90341557  1
  Te  Te120  1  0.74931000  0.57853493  0.25102987  1
  Te  Te121  1  0.75668473  0.57272845  0.57890457  1
  Te  Te122  1  0.75179130  0.58122331  0.90681445  1
  Te  Te123  1  0.76360299  0.90494752  0.25632561  1
  Te  Te124  1  0.73716480  0.94020136  0.59886147  1
  Te  Te125  1  0.74102924  0.91265406  0.91826707  1
  Te  Te126  1  0.24604383  0.25434423  0.06852869  1
  Te  Te127  1  0.26715936  0.22179159  0.44753660  1
  Te  Te128  1  0.24947644  0.24921115  0.75151259  1
  Te  Te129  1  0.25057702  0.57993832  0.10451072  1
  Te  Te130  1  0.21506595  0.59819415  0.41189203  1
  Te  Te131  1  0.25759242  0.57375107  0.76615037  1
  Te  Te132  1  0.23169479  0.93065834  0.09795073  1
  Te  Te133  1  0.24724008  0.92651232  0.42132848  1
  Te  Te134  1  0.22345567  0.94671708  0.70837229  1
  Te  Te135  1  0.54613957  0.24821679  0.09320846  1
  Te  Te136  1  0.58940710  0.23469521  0.40972842  1
  Te  Te137  1  0.57915366  0.25235867  0.72101750  1
  Te  Te138  1  0.54571302  0.57848222  0.06649236  1
  Te  Te139  1  0.59216399  0.56756580  0.43348245  1
  Te  Te140  1  0.57552047  0.58996943  0.74644147  1
  Te  Te141  1  0.60991718  0.90954703  0.09212445  1
  Te  Te142  1  0.55345071  0.94095569  0.42567642  1
  Te  Te143  1  0.56777703  0.95656304  0.72841989  1
  Te  Te144  1  0.94183936  0.24214512  0.09312329  1
  Te  Te145  1  0.93486836  0.23482699  0.43877024  1
  Te  Te146  1  0.91378560  0.24548813  0.73610953  1
  Te  Te147  1  0.94889401  0.57166259  0.11080884  1
  Te  Te148  1  0.93634834  0.58244353  0.39971221  1
  Te  Te149  1  0.94400005  0.59531521  0.73114399  1
  Te  Te150  1  0.93681828  0.92857270  0.07354491  1
  Te  Te151  1  0.90034073  0.90891787  0.39905324  1
  Te  Te152  1  0.91234286  0.91300797  0.75572396  1
  Te  Te153  1  0.24260070  0.07317514  0.25665022  1
  Te  Te154  1  0.27959665  0.04215018  0.59810626  1
  Te  Te155  1  0.23823343  0.08248644  0.90663850  1
  Te  Te156  1  0.27034578  0.42774928  0.23591224  1
  Te  Te157  1  0.26125358  0.41657012  0.58829674  1
  Te  Te158  1  0.25924362  0.42420484  0.92662906  1
  Te  Te159  1  0.25633851  0.73538505  0.26317771  1
  Te  Te160  1  0.24042319  0.75612938  0.57752548  1
  Te  Te161  1  0.27119875  0.77925477  0.90850567  1
  Te  Te162  1  0.55570192  0.08531964  0.26280361  1
  Te  Te163  1  0.56357395  0.06364408  0.61169145  1
  Te  Te164  1  0.59625785  0.06278066  0.91931003  1
  Te  Te165  1  0.56818450  0.40395792  0.24097261  1
  Te  Te166  1  0.60473877  0.40959706  0.56508670  1
  Te  Te167  1  0.56259480  0.40373414  0.93350653  1
  Te  Te168  1  0.60395365  0.76486612  0.23102926  1
  Te  Te169  1  0.56532706  0.77553069  0.59200121  1
  Te  Te170  1  0.59183116  0.74037041  0.90791680  1
  Te  Te171  1  0.91845129  0.10123140  0.24685301  1
  Te  Te172  1  0.91679118  0.09874578  0.59393869  1
  Te  Te173  1  0.92113903  0.07838839  0.92264692  1
  Te  Te174  1  0.90958989  0.43075148  0.26443445  1
  Te  Te175  1  0.91868736  0.41260960  0.58582232  1
  Te  Te176  1  0.92437910  0.40434284  0.93399474  1
  Te  Te177  1  0.92741041  0.74160557  0.27363905  1
  Te  Te178  1  0.93129514  0.74854150  0.58047999  1
  Te  Te179  1  0.91247381  0.77589020  0.93106595  1
