# generated using pymatgen
data_In2Te3
_symmetry_space_group_name_H-M   'P 1'
_cell_length_a   18.93432594
_cell_length_b   18.96555311
_cell_length_c   18.97556522
_cell_angle_alpha   89.77574717
_cell_angle_beta   90.01632012
_cell_angle_gamma   90.14281927
_symmetry_Int_Tables_number   1
_chemical_formula_structural   In2Te3
_chemical_formula_sum   'In72 Te108'
_cell_volume   6814.05116844
_cell_formula_units_Z   36
loop_
 _symmetry_equiv_pos_site_id
 _symmetry_equiv_pos_as_xyz
  1  'x, y, z'
loop_
 _atom_site_type_symbol
 _atom_site_label
 _atom_site_symmetry_multiplicity
 _atom_site_fract_x
 _atom_site_fract_y
 _atom_site_fract_z
 _atom_site_occupancy
  In  In0  1  0.64017342  0.67219741  0.00010891  1
  In  In1  1  0.81007452  0.66552499  0.83214317  1
  In  In2  1  0.00545302  0.64585027  -0.01117450  1
  In  In3  1  0.64408534  -0.01720278  0.35014789  1
  In  In4  1  0.81342263  0.15313178  -0.00517182  1
  In  In5  1  0.47824991  0.68777512  0.17460867  1
  In  In6  1  0.19492942  0.84596230  0.65335656  1
  In  In7  1  0.50088682  0.00775978  0.83901047  1
  In  In8  1  0.84581939  0.16861691  0.33975417  1
  In  In9  1  0.00867088  0.11978950  0.16681223  1
  In  In10  1  -0.01570973  0.85839130  0.15975689  1
  In  In11  1  0.16933160  0.31384663  0.16459841  1
  In  In12  1  0.69240076  0.65182466  0.35973162  1
  In  In13  1  0.16287791  0.67596594  0.79066594  1
  In  In14  1  0.52234976  0.31326790  0.82487315  1
  In  In15  1  0.19956622  0.48984126  0.00097252  1
  In  In16  1  -0.01035466  0.85661196  0.86317642  1
  In  In17  1  0.32895604  0.36543595  0.34420245  1
  In  In18  1  0.64776789  0.83715745  0.15734645  1
  In  In19  1  0.03387360  0.17912850  0.81993010  1
  In  In20  1  0.81877803  0.82294101  0.33677385  1
  In  In21  1  0.46405016  0.84045688  0.65311389  1
  In  In22  1  0.49955356  0.82321986  0.35713202  1
  In  In23  1  0.00662863  0.35833970  0.62191542  1
  In  In24  1  0.66665554  0.49558083  0.50189860  1
  In  In25  1  0.85102040  0.31062724  0.84129145  1
  In  In26  1  0.51076296  0.00683778  0.15461719  1
  In  In27  1  0.01456350  0.66267977  0.64838693  1
  In  In28  1  0.21883862  0.36538299  0.83371995  1
  In  In29  1  0.15889848  0.85525231  -0.01347041  1
  In  In30  1  -0.01006884  0.81365953  0.49505080  1
  In  In31  1  0.68060404  0.17816106  0.16624362  1
  In  In32  1  0.48690884  0.19193807  0.34712850  1
  In  In33  1  0.18108871  0.01618044  0.49287778  1
  In  In34  1  -0.02276724  0.63182891  0.35953088  1
  In  In35  1  0.64998144  0.33710157  0.00347994  1
  In  In36  1  0.68358300  0.85682860  0.86159625  1
  In  In37  1  0.84209936  0.33868548  0.16453420  1
  In  In38  1  0.30385048  0.62794958  0.34755434  1
  In  In39  1  0.33684580  0.16620627  0.49850414  1
  In  In40  1  0.32098614  0.13148796  0.83976352  1
  In  In41  1  0.64241872  0.49755230  0.83524943  1
  In  In42  1  0.32967204  0.67077870  0.65536473  1
  In  In43  1  0.80849376  0.66354241  0.18139060  1
  In  In44  1  0.35778292  0.65409574  -0.01599331  1
  In  In45  1  0.01811683  0.37044139  0.36656295  1
  In  In46  1  0.32650088  0.84881967  0.83421479  1
  In  In47  1  0.15856012  0.68508533  0.18685661  1
  In  In48  1  0.85703685  0.84996834  0.66420434  1
  In  In49  1  -0.00578332  0.52542337  0.16939732  1
  In  In50  1  0.35042776  0.49658722  0.16914105  1
  In  In51  1  0.34639611  -0.00797008  0.34519718  1
  In  In52  1  -0.01367852  0.47341353  0.83701340  1
  In  In53  1  0.49972080  0.68212625  0.50702966  1
  In  In54  1  -0.02161630  -0.00929828  0.29867384  1
  In  In55  1  0.01322282  0.00055745  -0.01479938  1
  In  In56  1  0.81765472  0.50253413  0.65714728  1
  In  In57  1  0.15526425  -0.00600649  0.14508432  1
  In  In58  1  0.67075104  0.17091879  0.50294776  1
  In  In59  1  0.35428714  0.32495902  0.65697428  1
  In  In60  1  0.32503412  0.17136417  0.14399248  1
  In  In61  1  0.00404993  0.32834764  -0.00455287  1
  In  In62  1  0.51456120  0.15874269  -0.00170275  1
  In  In63  1  0.67360474  0.31190971  0.67526544  1
  In  In64  1  0.51910703  0.50502774  0.67354131  1
  In  In65  1  0.18302549  0.50675825  0.65157902  1
  In  In66  1  -0.00267395  0.00687212  0.67230558  1
  In  In67  1  0.68155079  -0.00232946  0.67504825  1
  In  In68  1  0.82147848  0.15821800  0.66716416  1
  In  In69  1  0.62121035  0.47378440  0.19746914  1
  In  In70  1  0.16399811  0.17012222  0.33192961  1
  In  In71  1  0.00711256  0.16970728  0.51627401  1
  Te  Te72  1  0.10782310  0.10457067  0.05432821  1
  Te  Te73  1  0.06422537  0.07653236  0.39910406  1
  Te  Te74  1  0.10148624  0.09906511  0.71858452  1
  Te  Te75  1  0.07911504  0.43202107  0.08099775  1
  Te  Te76  1  0.11232755  0.45914825  0.43834002  1
  Te  Te77  1  0.09246640  0.41636139  0.74395258  1
  Te  Te78  1  0.06888180  0.75339737  0.07821710  1
  Te  Te79  1  0.07370650  0.72899425  0.41099230  1
  Te  Te80  1  0.05351327  0.77063777  0.74993749  1
  Te  Te81  1  0.40603595  0.07301804  0.06530037  1
  Te  Te82  1  0.44200429  0.07253800  0.43059278  1
  Te  Te83  1  0.40600321  0.06518328  0.73852419  1
  Te  Te84  1  0.39583124  0.40769329  0.06446334  1
  Te  Te85  1  0.44981019  0.42591051  0.39863753  1
  Te  Te86  1  0.43165051  0.41190472  0.75553925  1
  Te  Te87  1  0.42104079  0.76158955  0.06108238  1
  Te  Te88  1  0.39052511  0.73895963  0.41874750  1
  Te  Te89  1  0.40734681  0.74281673  0.76186455  1
  Te  Te90  1  0.70996057  0.07330318  0.06534782  1
  Te  Te91  1  0.74865440  0.07672011  0.41278332  1
  Te  Te92  1  0.76115469  0.07700997  0.77167490  1
  Te  Te93  1  0.73121079  0.42048602  0.10005476  1
  Te  Te94  1  0.76376128  0.45152168  0.40052357  1
  Te  Te95  1  0.75648749  0.41258414  0.76570029  1
  Te  Te96  1  0.74710378  0.75407657  0.07835740  1
  Te  Te97  1  0.73776649  0.76279883  0.44237348  1
  Te  Te98  1  0.75302662  0.77536659  0.74890449  1
  Te  Te99  1  0.06163709  0.24679590  0.24906814  1
  Te  Te100  1  0.10451815  0.26082808  0.57496070  1
  Te  Te101  1  0.11270318  0.27678185  0.90581495  1
  Te  Te102  1  0.09346905  0.57683781  0.26957398  1
  Te  Te103  1  0.07940488  0.56444507  0.55821862  1
  Te  Te104  1  0.09736009  0.56136697  0.90316208  1
  Te  Te105  1  0.09376019  0.90408251  0.25420662  1
  Te  Te106  1  0.07935803  0.91354481  0.57948030  1
  Te  Te107  1  0.11519899  0.95307138  0.87170813  1
  Te  Te108  1  0.38977758  0.25634748  0.25085993  1
  Te  Te109  1  0.43827414  0.24901026  0.56449142  1
  Te  Te110  1  0.42297242  0.23252019  0.90368624  1
  Te  Te111  1  0.42565948  0.57949572  0.26894179  1
  Te  Te112  1  0.42072543  0.57475448  0.58220475  1
  Te  Te113  1  0.45313348  0.55908292  0.93149899  1
  Te  Te114  1  0.43578661  0.91272982  0.25236779  1
  Te  Te115  1  0.43289814  0.92334218  0.53509362  1
  Te  Te116  1  0.41068928  0.92625945  0.92459530  1
  Te  Te117  1  0.75497494  0.26644642  0.26594358  1
  Te  Te118  1  0.77272997  0.26595987  0.57175158  1
  Te  Te119  1  0.72975726  0.24874070  0.90994275  1
  Te  Te120  1  0.74422944  0.54920804  0.25765976  1
  Te  Te121  1  0.70892382  0.59036776  0.61042523  1
  Te  Te122  1  0.73573792  0.57464194  0.92701917  1
  Te  Te123  1  0.73806862  0.91816751  0.24898679  1
  Te  Te124  1  0.76307908  0.92151280  0.57879563  1
  Te  Te125  1  0.78730960  0.90804020  0.94969733  1
  Te  Te126  1  0.25136736  0.26292985  0.05574699  1
  Te  Te127  1  0.24348289  0.25943327  0.42017962  1
  Te  Te128  1  0.26277759  0.24907234  0.75189791  1
  Te  Te129  1  0.25175882  0.60128553  0.09084568  1
  Te  Te130  1  0.25683878  0.51844015  0.43901044  1
  Te  Te131  1  0.26777152  0.57297596  0.75947544  1
  Te  Te132  1  0.24691599  0.89173770  0.09669183  1
  Te  Te133  1  0.24958038  0.91148256  0.41981644  1
  Te  Te134  1  0.28981066  0.93758756  0.71855094  1
  Te  Te135  1  0.56734953  0.25680048  0.10251587  1
  Te  Te136  1  0.59830843  0.26691714  0.41189983  1
  Te  Te137  1  0.58224030  0.21193042  0.73553995  1
  Te  Te138  1  0.57076005  0.58661238  0.10796831  1
  Te  Te139  1  0.57193665  0.58130159  0.41765387  1
  Te  Te140  1  0.60191479  0.60631452  0.74309272  1
  Te  Te141  1  0.55553427  0.90097969  0.06272788  1
  Te  Te142  1  0.56760540  0.91001416  0.46087189  1
  Te  Te143  1  0.57223789  0.91181727  0.74388817  1
  Te  Te144  1  0.91885803  0.23548212  0.08141646  1
  Te  Te145  1  0.92677839  0.26413806  0.42667290  1
  Te  Te146  1  0.93411519  0.26213102  0.72596641  1
  Te  Te147  1  0.89418471  0.58804076  0.07655961  1
  Te  Te148  1  0.87338249  0.55729381  0.43221596  1
  Te  Te149  1  0.91991828  0.58174497  0.75341459  1
  Te  Te150  1  0.89962830  0.92765148  0.05717823  1
  Te  Te151  1  0.91152109  0.91649225  0.41260066  1
  Te  Te152  1  0.90371005  0.94484429  0.77441196  1
  Te  Te153  1  0.25102878  0.08027748  0.24748411  1
  Te  Te154  1  0.25770499  0.08583701  0.59458888  1
  Te  Te155  1  0.22447364  0.05477898  0.91800251  1
  Te  Te156  1  0.23358531  0.42497656  0.24132621  1
  Te  Te157  1  0.27195676  0.41833888  0.57193768  1
  Te  Te158  1  0.31868328  0.42998564  0.93191781  1
  Te  Te159  1  0.26865763  0.74395867  0.26210964  1
  Te  Te160  1  0.22640471  0.73141436  0.57057293  1
  Te  Te161  1  0.22837111  0.74233540  0.90910226  1
  Te  Te162  1  0.58275783  0.09642075  0.26027181  1
  Te  Te163  1  0.59387216  0.09789976  0.60564151  1
  Te  Te164  1  0.60630613  0.06926067  0.92632998  1
  Te  Te165  1  0.55983888  0.38756435  0.30452103  1
  Te  Te166  1  0.58516735  0.39882984  0.58860579  1
  Te  Te167  1  0.55232965  0.43785513  0.94392940  1
  Te  Te168  1  0.59690349  0.74046396  0.26548897  1
  Te  Te169  1  0.57697366  0.76247843  0.60119887  1
  Te  Te170  1  0.58161573  0.75855698  0.89853572  1
  Te  Te171  1  0.87520365  0.07399656  0.22385765  1
  Te  Te172  1  0.90399682  0.07361503  0.57197767  1
  Te  Te173  1  0.93435113  0.10806130  0.91073620  1
  Te  Te174  1  0.92364395  0.42524472  0.25956316  1
  Te  Te175  1  0.90901116  0.44757388  0.55260930  1
  Te  Te176  1  0.89228010  0.41672324  0.94224686  1
  Te  Te177  1  0.92010277  0.74387830  0.24702439  1
  Te  Te178  1  0.89796188  0.72590161  0.57807857  1
  Te  Te179  1  0.90849946  0.74212041  0.92198658  1
