# generated using pymatgen
data_In2Te3
_symmetry_space_group_name_H-M   'P 1'
_cell_length_a   18.76772128
_cell_length_b   18.75703354
_cell_length_c   18.76124433
_cell_angle_alpha   89.94207635
_cell_angle_beta   90.03061598
_cell_angle_gamma   89.95186050
_symmetry_Int_Tables_number   1
_chemical_formula_structural   In2Te3
_chemical_formula_sum   'In72 Te108'
_cell_volume   6604.45373283
_cell_formula_units_Z   36
loop_
 _symmetry_equiv_pos_site_id
 _symmetry_equiv_pos_as_xyz
  1  'x, y, z'
loop_
 _atom_site_type_symbol
 _atom_site_label
 _atom_site_symmetry_multiplicity
 _atom_site_fract_x
 _atom_site_fract_y
 _atom_site_fract_z
 _atom_site_occupancy
  In  In0  1  0.50274960  0.18874780  0.66247124  1
  In  In1  1  0.83892284  0.35084451  0.48847144  1
  In  In2  1  0.33185624  0.66223313  0.35275133  1
  In  In3  1  0.35916431  0.81600179  0.50276318  1
  In  In4  1  0.32233595  0.18024288  0.49397100  1
  In  In5  1  -0.02257199  0.82046788  0.51140601  1
  In  In6  1  0.49720174  0.33064159  0.48966637  1
  In  In7  1  0.15799432  0.82473558  0.34542972  1
  In  In8  1  0.16536357  0.18414909  0.33755065  1
  In  In9  1  0.51415588  0.65835488  0.84040517  1
  In  In10  1  0.80872821  0.00673010  0.82324429  1
  In  In11  1  0.02625940  0.36988364  0.02806221  1
  In  In12  1  0.00756680  0.19823599  0.81457875  1
  In  In13  1  0.01356848  0.51767048  0.82116448  1
  In  In14  1  0.17419480  -0.01761637  0.82667643  1
  In  In15  1  0.80592693  0.79633274  0.02056907  1
  In  In16  1  0.36404737  0.83647906  0.16229156  1
  In  In17  1  0.66961871  0.51127422  0.50497484  1
  In  In18  1  0.66893575  0.66887496  0.02474494  1
  In  In19  1  0.69519571  0.16837259  0.50589578  1
  In  In20  1  0.66668361  0.49764448  0.81932439  1
  In  In21  1  0.00434361  -0.00039133  0.02146733  1
  In  In22  1  0.52502720  -0.03476869  0.46957767  1
  In  In23  1  0.00936782  0.63164362  0.00825033  1
  In  In24  1  0.84328363  0.82118815  0.63797032  1
  In  In25  1  0.84794044  0.35616706  0.18245054  1
  In  In26  1  0.64708363  0.14954628  0.80495569  1
  In  In27  1  0.21185891  0.20785336  0.03445560  1
  In  In28  1  0.67015947  0.35607426  0.34242278  1
  In  In29  1  0.33896179  0.65885604  0.66814459  1
  In  In30  1  0.00851402  0.35854779  0.63162246  1
  In  In31  1  0.16078546  0.02790882  0.49326031  1
  In  In32  1  0.47788905  0.49281460  0.01506876  1
  In  In33  1  0.82682325  0.35153807  0.80469561  1
  In  In34  1  0.17238020  0.34592590  0.85726069  1
  In  In35  1  0.48507777  0.66378456  0.16563203  1
  In  In36  1  0.16347345  0.81058484  0.68903131  1
  In  In37  1  0.34966838  0.01539394  0.00702880  1
  In  In38  1  0.48446484  0.15885138  0.31437958  1
  In  In39  1  0.62153169  -0.03647614  0.04581832  1
  In  In40  1  0.33395453  0.18407947  0.83304050  1
  In  In41  1  0.15681245  0.19249400  0.65401470  1
  In  In42  1  0.83666745  0.16276852  -0.00963073  1
  In  In43  1  0.49030482  0.00740665  0.84768703  1
  In  In44  1  0.66807803  0.65381192  0.32984865  1
  In  In45  1  0.52506832  0.80247554  0.62951037  1
  In  In46  1  0.49283037  0.49499264  0.31462239  1
  In  In47  1  0.02079649  0.80426626  0.80520170  1
  In  In48  1  0.81882344  0.82521127  0.34718343  1
  In  In49  1  0.84734045  0.67497423  0.82319335  1
  In  In50  1  0.32046381  0.34382915  0.33222576  1
  In  In51  1  0.67043426  0.82586496  0.84323630  1
  In  In52  1  0.01133266  0.19575992  0.19071677  1
  In  In53  1  0.66926333  -0.00470870  0.66182180  1
  In  In54  1  0.19091438  0.80489505  -0.00285921  1
  In  In55  1  0.00792368  0.49454524  0.17806016  1
  In  In56  1  0.17502255  0.00649068  0.19505821  1
  In  In57  1  0.47080254  0.17513546  0.00583261  1
  In  In58  1  0.65281933  0.16712800  0.16536962  1
  In  In59  1  0.66826587  0.34776110  -0.00691840  1
  In  In60  1  0.33401121  0.50530289  0.82723261  1
  In  In61  1  0.82537763  0.00091620  0.49957985  1
  In  In62  1  -0.01412464  0.81085382  0.20123509  1
  In  In63  1  0.48316619  0.50066961  0.65082086  1
  In  In64  1  0.32940787  -0.00572934  0.31084528  1
  In  In65  1  0.84348139  0.49461995  0.00825606  1
  In  In66  1  0.81731215  -0.01381798  0.19108026  1
  In  In67  1  -0.01630084  0.00360566  0.64267371  1
  In  In68  1  0.84407785  0.17528593  0.35603566  1
  In  In69  1  0.18071004  0.64138227  0.16339699  1
  In  In70  1  0.15058074  0.62677776  0.50313180  1
  In  In71  1  0.32039034  0.82175623  0.85003086  1
  Te  Te72  1  0.09485370  0.10007634  0.09770271  1
  Te  Te73  1  0.06706651  0.09378671  0.40191302  1
  Te  Te74  1  0.08434155  0.07647235  0.74406840  1
  Te  Te75  1  0.13739006  0.44051201  0.10264183  1
  Te  Te76  1  0.08575084  0.44080597  0.44992838  1
  Te  Te77  1  0.09823047  0.41702782  0.74376698  1
  Te  Te78  1  0.07981861  0.75046439  0.09247857  1
  Te  Te79  1  0.06812423  0.73214720  0.42269249  1
  Te  Te80  1  0.08074601  0.69344096  0.72891634  1
  Te  Te81  1  0.42716052  0.08289118  0.11233633  1
  Te  Te82  1  0.41349602  0.07705336  0.42603858  1
  Te  Te83  1  0.41478335  0.08850748  0.74465860  1
  Te  Te84  1  0.37641188  0.42063165  0.09556587  1
  Te  Te85  1  0.40518429  0.43208581  0.42518610  1
  Te  Te86  1  0.41208719  0.41082541  0.74412665  1
  Te  Te87  1  0.39147364  0.72766516  0.06736803  1
  Te  Te88  1  0.43915490  0.75570899  0.39527136  1
  Te  Te89  1  0.42912930  0.75512305  0.75078952  1
  Te  Te90  1  0.75087789  0.07404195  0.07964066  1
  Te  Te91  1  0.73721309  0.07236148  0.39610320  1
  Te  Te92  1  0.76357918  0.10411352  0.71536931  1
  Te  Te93  1  0.74072655  0.42920623  0.10077404  1
  Te  Te94  1  0.76521739  0.45848923  0.39821141  1
  Te  Te95  1  0.76059677  0.44943576  0.71424282  1
  Te  Te96  1  0.74204143  0.73255158  0.14173486  1
  Te  Te97  1  0.75919118  0.71730484  0.43983903  1
  Te  Te98  1  0.74448558  0.74916733  0.73796437  1
  Te  Te99  1  0.10233107  0.29617650  0.25366027  1
  Te  Te100  1  0.06023872  0.24153561  0.55401080  1
  Te  Te101  1  0.08537118  0.24643618  0.93779485  1
  Te  Te102  1  0.08242297  0.59439177  0.26708097  1
  Te  Te103  1  0.05536829  0.53558738  0.57555431  1
  Te  Te104  1  0.11092462  0.57273466  0.91968242  1
  Te  Te105  1  0.06936382  0.92341791  0.26744846  1
  Te  Te106  1  0.09020037  0.91024353  0.58371143  1
  Te  Te107  1  0.08338066  0.90291899  0.91994867  1
  Te  Te108  1  0.42477708  0.27735175  0.24477688  1
  Te  Te109  1  0.39683507  0.27355643  0.59081505  1
  Te  Te110  1  0.40927311  0.27669524  0.91913772  1
  Te  Te111  1  0.38534223  0.57302271  0.23965336  1
  Te  Te112  1  0.41404490  0.59444408  0.55854841  1
  Te  Te113  1  0.40723364  0.59924813  0.92868792  1
  Te  Te114  1  0.44710739  0.92091412  0.25388603  1
  Te  Te115  1  0.43448098  0.92003897  0.58505073  1
  Te  Te116  1  0.42173995  0.90204742  0.93411507  1
  Te  Te117  1  0.75506239  0.25061093  0.24776537  1
  Te  Te118  1  0.74273779  0.28341263  0.58204789  1
  Te  Te119  1  0.74864778  0.25136270  0.90205424  1
  Te  Te120  1  0.76836233  0.60394057  0.23143361  1
  Te  Te121  1  0.74239049  0.62808809  0.56780278  1
  Te  Te122  1  0.75304807  0.58502217  0.91962404  1
  Te  Te123  1  0.71601382  0.90308138  0.26548009  1
  Te  Te124  1  0.73187873  0.89834803  0.56367763  1
  Te  Te125  1  0.74789771  0.91964799  0.93531784  1
  Te  Te126  1  0.30131642  0.28575812  0.12316492  1
  Te  Te127  1  0.22276990  0.28768887  0.44825615  1
  Te  Te128  1  0.24919021  0.27478184  0.74281575  1
  Te  Te129  1  0.24481618  0.54779520  0.06708785  1
  Te  Te130  1  0.24540832  0.55263948  0.41243820  1
  Te  Te131  1  0.24228042  0.56348214  0.72432407  1
  Te  Te132  1  0.24259843  0.92620895  0.08300075  1
  Te  Te133  1  0.25468122  0.91846518  0.42154864  1
  Te  Te134  1  0.27220886  0.91176838  0.73482299  1
  Te  Te135  1  0.57310671  0.26582665  0.08062872  1
  Te  Te136  1  0.58880183  0.23857432  0.40809209  1
  Te  Te137  1  0.58238778  0.27130040  0.75518653  1
  Te  Te138  1  0.58364832  0.56592922  0.09822587  1
  Te  Te139  1  0.56403018  0.58147750  0.41792389  1
  Te  Te140  1  0.58586776  0.59003302  0.72708957  1
  Te  Te141  1  0.54612836  0.86794669  0.12940785  1
  Te  Te142  1  0.62001550  0.88752595  0.39024558  1
  Te  Te143  1  0.57886813  0.91660315  0.75725814  1
  Te  Te144  1  0.91632455  0.25762554  0.07962248  1
  Te  Te145  1  0.93980206  0.27708128  0.40494458  1
  Te  Te146  1  0.91283393  0.26047007  0.71696229  1
  Te  Te147  1  0.90304064  0.59244336  0.10936124  1
  Te  Te148  1  0.98226216  0.53766958  0.38173842  1
  Te  Te149  1  0.89777394  0.56338021  0.73964444  1
  Te  Te150  1  0.90638605  0.90230569  0.09472495  1
  Te  Te151  1  0.92047362  0.92136953  0.41116303  1
  Te  Te152  1  0.91375393  0.90918545  0.75136138  1
  Te  Te153  1  0.26791425  0.11715654  0.24482489  1
  Te  Te154  1  0.25483651  0.08664431  0.59709701  1
  Te  Te155  1  0.24303356  0.08638730  0.91661310  1
  Te  Te156  1  0.21296270  0.40903086  0.25067769  1
  Te  Te157  1  0.21197496  0.42302309  0.52806088  1
  Te  Te158  1  0.26774336  0.42507250  0.93939024  1
  Te  Te159  1  0.25198574  0.75796235  0.24489508  1
  Te  Te160  1  0.24080041  0.74482494  0.56629750  1
  Te  Te161  1  0.22629009  0.71250759  0.88762652  1
  Te  Te162  1  0.58566439  0.06964743  0.25329431  1
  Te  Te163  1  0.57879317  0.08398620  0.57391492  1
  Te  Te164  1  0.59050308  0.08596223  0.93181888  1
  Te  Te165  1  0.58357048  0.40900273  0.23537472  1
  Te  Te166  1  0.58906894  0.40839590  0.58348954  1
  Te  Te167  1  0.56712831  0.42428510  0.90729335  1
  Te  Te168  1  0.57325001  0.74686461  0.25515802  1
  Te  Te169  1  0.61905876  0.72578693  0.54941418  1
  Te  Te170  1  0.57608035  0.75731107  0.94060266  1
  Te  Te171  1  0.91469109  0.08964676  0.24761528  1
  Te  Te172  1  0.91052346  0.10427775  0.56436673  1
  Te  Te173  1  0.92775161  0.07751632  0.90189073  1
  Te  Te174  1  0.93281595  0.41887071  0.28923375  1
  Te  Te175  1  0.90657363  0.45511428  0.57479009  1
  Te  Te176  1  0.92505883  0.40766794  0.91024027  1
  Te  Te177  1  0.90401959  0.71899633  0.28284847  1
  Te  Te178  1  0.92092244  0.70528017  0.58621865  1
  Te  Te179  1  0.92806005  0.74778746  0.92970960  1
