# generated using pymatgen
data_In2Te3
_symmetry_space_group_name_H-M   'P 1'
_cell_length_a   18.80006485
_cell_length_b   18.77640885
_cell_length_c   18.79002979
_cell_angle_alpha   89.98050678
_cell_angle_beta   90.05477072
_cell_angle_gamma   90.12102740
_symmetry_Int_Tables_number   1
_chemical_formula_structural   In2Te3
_chemical_formula_sum   'In72 Te108'
_cell_volume   6632.81916663
_cell_formula_units_Z   36
loop_
 _symmetry_equiv_pos_site_id
 _symmetry_equiv_pos_as_xyz
  1  'x, y, z'
loop_
 _atom_site_type_symbol
 _atom_site_label
 _atom_site_symmetry_multiplicity
 _atom_site_fract_x
 _atom_site_fract_y
 _atom_site_fract_z
 _atom_site_occupancy
  In  In0  1  0.15034296  0.81840568  0.02043715  1
  In  In1  1  0.19804069  -0.03004659  0.49187259  1
  In  In2  1  0.69942514  0.77091774  0.87455479  1
  In  In3  1  0.49799493  0.66996862  0.15289705  1
  In  In4  1  0.49655442  0.83434854  0.33758158  1
  In  In5  1  0.19426496  0.15715190  -0.02017494  1
  In  In6  1  0.66639920  0.15129116  0.18328357  1
  In  In7  1  0.64575815  -0.00476190  0.33674816  1
  In  In8  1  -0.02108840  0.33941916  0.00641366  1
  In  In9  1  0.63902773  0.36736860  -0.02090600  1
  In  In10  1  0.81575004  0.51171039  0.29911929  1
  In  In11  1  0.17875231  0.32637241  0.16104769  1
  In  In12  1  0.84324493  0.66468213  0.50845514  1
  In  In13  1  0.01288811  -0.01320295  0.01512658  1
  In  In14  1  0.83079156  0.14954537  0.67191517  1
  In  In15  1  0.68446139  0.54680549  0.13792565  1
  In  In16  1  0.80936276  0.32552021  0.14548673  1
  In  In17  1  0.65961148  0.34513443  0.71566259  1
  In  In18  1  0.33859017  0.14563444  0.50306631  1
  In  In19  1  0.18827321  0.69817568  0.53163975  1
  In  In20  1  0.35169997  0.34409711  0.33434956  1
  In  In21  1  0.81816757  0.51112364  0.65984220  1
  In  In22  1  0.31784675  0.68472920  0.32338188  1
  In  In23  1  0.51176856  0.53870726  0.67897880  1
  In  In24  1  0.03206078  0.17227350  0.50997176  1
  In  In25  1  0.00943771  0.33834630  0.32800800  1
  In  In26  1  0.83727583  0.35373873  0.80887128  1
  In  In27  1  0.66177996  0.18962033  0.50258323  1
  In  In28  1  0.18364707  0.34444163  0.81278760  1
  In  In29  1  0.84098741  0.12464860  0.30694948  1
  In  In30  1  0.16812404  0.51747181  0.66978374  1
  In  In31  1  0.66755153  0.82122749  0.13652543  1
  In  In32  1  0.33017735  0.66971285  -0.00259842  1
  In  In33  1  0.18211301  0.15423061  0.34084807  1
  In  In34  1  0.48922566  0.33668771  0.15627686  1
  In  In35  1  0.48606452  0.82326141  0.67508171  1
  In  In36  1  -0.01468784  0.55273940  0.83783231  1
  In  In37  1  0.65339371  0.51648825  0.50510203  1
  In  In38  1  0.16395642  0.52027411  -0.00941434  1
  In  In39  1  0.83971316  0.16983245  -0.01398289  1
  In  In40  1  0.63922272  0.33820674  0.34913640  1
  In  In41  1  -0.00632059  0.79729801  0.82492593  1
  In  In42  1  0.00001847  0.82032019  0.49135757  1
  In  In43  1  0.15069360  0.51092903  0.35748070  1
  In  In44  1  0.31808823  0.33333188  0.67335128  1
  In  In45  1  0.49366659  0.66344614  0.50473837  1
  In  In46  1  0.14772309  -0.03159516  0.16885202  1
  In  In47  1  0.49721258  0.16049454  0.69371702  1
  In  In48  1  0.49427883  0.00186220  0.83085433  1
  In  In49  1  0.84635733  -0.02737094  0.14673880  1
  In  In50  1  0.66028519  -0.04013436  -0.02210598  1
  In  In51  1  0.34544796  0.83512303  0.82890916  1
  In  In52  1  0.66600006  0.16903293  0.81016984  1
  In  In53  1  0.31790340  0.52229200  0.81816775  1
  In  In54  1  0.03856586  0.52991919  0.50316241  1
  In  In55  1  0.66905588  -0.02300149  0.66113506  1
  In  In56  1  0.31319286  0.14285616  0.15692050  1
  In  In57  1  0.85187507  0.33088598  0.49579363  1
  In  In58  1  0.82516033  -0.03091300  0.50963059  1
  In  In59  1  0.51065002  0.48685533  0.33256223  1
  In  In60  1  0.47775791  -0.01876306  0.50223138  1
  In  In61  1  -0.00103162  0.67739442  0.33522692  1
  In  In62  1  -0.03035913  0.53912282  0.13797632  1
  In  In63  1  0.34100265  0.48873268  0.13591115  1
  In  In64  1  0.18408797  -0.00937502  0.82071733  1
  In  In65  1  0.02414979  0.14022924  0.86301844  1
  In  In66  1  0.00232137  -0.02231112  0.69242905  1
  In  In67  1  0.32577747  0.84024157  0.17299931  1
  In  In68  1  0.50976212  0.32988824  0.48108567  1
  In  In69  1  0.83859904  0.80798720  0.32637138  1
  In  In70  1  0.00976203  0.32196425  0.66322490  1
  In  In71  1  0.47747250  0.18225268  -0.00329087  1
  Te  Te72  1  0.10013922  0.09273920  0.08054371  1
  Te  Te73  1  0.08981967  0.06417738  0.42152100  1
  Te  Te74  1  0.09613035  0.09065379  0.74058871  1
  Te  Te75  1  0.08240660  0.42310342  0.08703682  1
  Te  Te76  1  0.08985813  0.39648122  0.44217479  1
  Te  Te77  1  0.06715710  0.43396856  0.76292380  1
  Te  Te78  1  0.04385293  0.76501860  0.10787499  1
  Te  Te79  1  0.10882273  0.75279849  0.40863712  1
  Te  Te80  1  0.09496562  0.71766056  0.74851223  1
  Te  Te81  1  0.41182977  0.07437418  0.07132601  1
  Te  Te82  1  0.40952175  0.06451459  0.40237402  1
  Te  Te83  1  0.39429691  0.06553267  0.74075645  1
  Te  Te84  1  0.44115666  0.42680503  0.04922800  1
  Te  Te85  1  0.41205275  0.43966837  0.43887684  1
  Te  Te86  1  0.41277206  0.43360231  0.73901258  1
  Te  Te87  1  0.41785097  0.77041532  0.07210212  1
  Te  Te88  1  0.39085064  0.76925431  0.43090355  1
  Te  Te89  1  0.42488701  0.72170834  0.76875672  1
  Te  Te90  1  0.75529491  0.08002573  0.08113566  1
  Te  Te91  1  0.74861219  0.08448430  0.42916577  1
  Te  Te92  1  0.75600218  0.05479036  0.76473842  1
  Te  Te93  1  0.75390643  0.43629980  0.05613767  1
  Te  Te94  1  0.75082761  0.42798086  0.42021687  1
  Te  Te95  1  0.73583554  0.46602016  0.78223437  1
  Te  Te96  1  0.75803858  0.72540163  0.06756618  1
  Te  Te97  1  0.75043475  0.74137590  0.42314285  1
  Te  Te98  1  0.76186497  0.70951987  0.75255139  1
  Te  Te99  1  0.09076091  0.23640967  0.24775169  1
  Te  Te100  1  0.12042852  0.24923641  0.59946148  1
  Te  Te101  1  0.08605329  0.26815382  0.92121293  1
  Te  Te102  1  0.07587104  0.57921518  0.24564850  1
  Te  Te103  1  0.06899594  0.63250095  0.61259897  1
  Te  Te104  1  0.07940681  0.62428606  0.92861401  1
  Te  Te105  1  0.03824182  0.92901819  0.25915087  1
  Te  Te106  1  0.08367600  0.90980564  0.58432961  1
  Te  Te107  1  0.08158803  0.90732876  0.90214572  1
  Te  Te108  1  0.40698808  0.24017305  0.23871070  1
  Te  Te109  1  0.43017453  0.25134255  0.58666580  1
  Te  Te110  1  0.41869761  0.25918683  0.88715857  1
  Te  Te111  1  0.41364095  0.57848872  0.24961895  1
  Te  Te112  1  0.40226028  0.59020373  0.59452526  1
  Te  Te113  1  0.41946485  0.60713841  0.89366504  1
  Te  Te114  1  0.41939230  0.92606776  0.25161427  1
  Te  Te115  1  0.38881574  0.91518133  0.60310098  1
  Te  Te116  1  0.43242028  0.90621826  0.92547488  1
  Te  Te117  1  0.75211039  0.25528136  0.27130749  1
  Te  Te118  1  0.75307966  0.26655435  0.60732977  1
  Te  Te119  1  0.74754959  0.26570603  0.90940718  1
  Te  Te120  1  0.75884850  0.63199743  0.23541637  1
  Te  Te121  1  0.72000757  0.61333268  0.60087992  1
  Te  Te122  1  0.76999165  0.64181433  0.93117248  1
  Te  Te123  1  0.74513150  0.91500989  0.25104651  1
  Te  Te124  1  0.75644133  0.87378139  0.59887422  1
  Te  Te125  1  0.77584793  0.88935599  0.92509037  1
  Te  Te126  1  0.27294158  0.26055096  0.06260061  1
  Te  Te127  1  0.26243238  0.25623807  0.42163467  1
  Te  Te128  1  0.27947196  0.23447979  0.77959820  1
  Te  Te129  1  0.24107859  0.59781476  0.09960910  1
  Te  Te130  1  0.25160057  0.59706857  0.43157439  1
  Te  Te131  1  0.22420864  0.62551887  0.75987729  1
  Te  Te132  1  0.24998409  0.92474225  0.06558625  1
  Te  Te133  1  0.26585817  0.86513977  0.41380841  1
  Te  Te134  1  0.23323585  0.87862808  0.73336817  1
  Te  Te135  1  0.60180879  0.25258751  0.08379298  1
  Te  Te136  1  0.55823006  0.21523350  0.39154073  1
  Te  Te137  1  0.54521417  0.27285362  0.79461038  1
  Te  Te138  1  0.57575425  0.59684520  0.04564091  1
  Te  Te139  1  0.59016497  0.59983153  0.39577036  1
  Te  Te140  1  0.57529851  0.60044480  0.79853222  1
  Te  Te141  1  0.57163099  0.92258709  0.08823361  1
  Te  Te142  1  0.59175494  0.89995711  0.44285975  1
  Te  Te143  1  0.58716445  0.89965644  0.76378062  1
  Te  Te144  1  0.92210495  0.23169855  0.09984748  1
  Te  Te145  1  0.92402411  0.22973289  0.40454456  1
  Te  Te146  1  0.92392363  0.23396908  0.76528437  1
  Te  Te147  1  0.88294602  0.61474675  0.04197031  1
  Te  Te148  1  0.91925479  0.56314350  0.40910738  1
  Te  Te149  1  0.88908159  0.61870444  0.74195261  1
  Te  Te150  1  0.93240938  0.87159647  0.07352874  1
  Te  Te151  1  0.91934904  0.91624858  0.40160406  1
  Te  Te152  1  0.90091889  0.89108798  0.75429150  1
  Te  Te153  1  0.24965736  0.04655505  0.25790982  1
  Te  Te154  1  0.24587521  0.07044900  0.58894997  1
  Te  Te155  1  0.28122894  0.06762207  0.90239324  1
  Te  Te156  1  0.24712078  0.42739113  0.25734032  1
  Te  Te157  1  0.24228781  0.42418435  0.58391629  1
  Te  Te158  1  0.25854813  0.42403635  0.92088464  1
  Te  Te159  1  0.22070905  0.76107652  0.24248729  1
  Te  Te160  1  0.27484843  0.79745428  0.60349226  1
  Te  Te161  1  0.23824986  0.75723221  0.91366202  1
  Te  Te162  1  0.56089487  0.06272118  0.23554383  1
  Te  Te163  1  0.58582983  0.08495348  0.58839047  1
  Te  Te164  1  0.59285660  0.09309346  0.92071905  1
  Te  Te165  1  0.60330956  0.42862191  0.22530914  1
  Te  Te166  1  0.58745297  0.40942416  0.59156777  1
  Te  Te167  1  0.59031029  0.46700002  0.88156689  1
  Te  Te168  1  0.58678559  0.74940835  0.24824783  1
  Te  Te169  1  0.58028750  0.74902071  0.58794875  1
  Te  Te170  1  0.58058882  0.71917337  0.94870156  1
  Te  Te171  1  0.94977440  0.05199330  0.23051880  1
  Te  Te172  1  0.92289490  0.07513057  0.57826569  1
  Te  Te173  1  0.91171981  0.05477076  0.91606025  1
  Te  Te174  1  0.91274232  0.41144336  0.23290554  1
  Te  Te175  1  0.92895249  0.43337827  0.58909216  1
  Te  Te176  1  0.90983924  0.43814978  0.91479702  1
  Te  Te177  1  0.93154724  0.75121625  0.22142701  1
  Te  Te178  1  0.90630010  0.76871657  0.59492439  1
  Te  Te179  1  0.91534099  0.72155183  0.92968783  1
