# generated using pymatgen
data_In2Te3
_symmetry_space_group_name_H-M   'P 1'
_cell_length_a   18.93030081
_cell_length_b   18.92499667
_cell_length_c   18.90870135
_cell_angle_alpha   90.09625199
_cell_angle_beta   89.95366941
_cell_angle_gamma   90.08915371
_symmetry_Int_Tables_number   1
_chemical_formula_structural   In2Te3
_chemical_formula_sum   'In72 Te108'
_cell_volume   6774.13347721
_cell_formula_units_Z   36
loop_
 _symmetry_equiv_pos_site_id
 _symmetry_equiv_pos_as_xyz
  1  'x, y, z'
loop_
 _atom_site_type_symbol
 _atom_site_label
 _atom_site_symmetry_multiplicity
 _atom_site_fract_x
 _atom_site_fract_y
 _atom_site_fract_z
 _atom_site_occupancy
  In  In0  1  0.50372576  -0.01901818  0.48103725  1
  In  In1  1  0.15754070  0.36004316  0.16388664  1
  In  In2  1  0.34268246  0.49979330  0.47309329  1
  In  In3  1  0.68448217  0.16213899  0.49632099  1
  In  In4  1  0.15605806  0.00897680  0.85328380  1
  In  In5  1  0.83321939  0.65809286  0.48647216  1
  In  In6  1  0.37220095  0.66023273  0.07236838  1
  In  In7  1  0.51947676  0.17607637  0.34461072  1
  In  In8  1  0.67843764  -0.00853501  0.67554141  1
  In  In9  1  0.12954659  0.54677392  0.62668338  1
  In  In10  1  0.13554572  0.14961140  0.63400028  1
  In  In11  1  -0.02714295  -0.00855983  0.63531186  1
  In  In12  1  0.34525184  0.85656078  0.83406106  1
  In  In13  1  -0.00728758  0.36245771  0.64181342  1
  In  In14  1  0.62686366  0.66469891  0.33691496  1
  In  In15  1  0.17829000  0.79967823  0.65075460  1
  In  In16  1  0.52237425  0.15035438  0.02467590  1
  In  In17  1  0.66613962  0.32674198  0.01245091  1
  In  In18  1  0.49526507  0.65958485  0.47524409  1
  In  In19  1  0.85099058  0.50030431  0.01557981  1
  In  In20  1  0.35361677  0.15998353  0.19885765  1
  In  In21  1  0.35187537  0.20144122  0.81085482  1
  In  In22  1  0.14997395  0.67696950  0.84284022  1
  In  In23  1  0.66096753  0.50530645  0.84090338  1
  In  In24  1  0.02067816  0.85082479  0.82474907  1
  In  In25  1  0.83557985  0.67558085  0.80855359  1
  In  In26  1  0.18885823  0.78404897  0.03282009  1
  In  In27  1  0.19002361  0.80565683  0.31937411  1
  In  In28  1  0.83905093  0.48644740  0.33464934  1
  In  In29  1  0.51214085  0.48747198  0.67950007  1
  In  In30  1  -0.01067862  0.81851271  0.48336527  1
  In  In31  1  0.32286070  0.66678716  0.67175701  1
  In  In32  1  -0.00251354  0.68755151  0.02540991  1
  In  In33  1  0.20029170  0.21406598  0.36559625  1
  In  In34  1  0.50420695  -0.02445039  0.17134640  1
  In  In35  1  0.17028969  0.17012860  0.01760966  1
  In  In36  1  0.16854680  0.00937103  0.49126565  1
  In  In37  1  0.68602149  0.82674294  0.82909039  1
  In  In38  1  0.82614609  0.81396447  0.02436698  1
  In  In39  1  0.35660556  0.35854004  0.02485882  1
  In  In40  1  -0.01287613  0.50768500  0.84299281  1
  In  In41  1  0.52516421  0.33477994  0.83324871  1
  In  In42  1  0.67540056  -0.02193905  0.33910137  1
  In  In43  1  0.32379848  0.51177569  0.20154763  1
  In  In44  1  0.50002754  0.65474082  0.83348256  1
  In  In45  1  0.30156683  -0.01977440  0.00522751  1
  In  In46  1  0.85737117  0.82075567  0.31652528  1
  In  In47  1  -0.01360924  0.01038425  0.33402194  1
  In  In48  1  0.84373197  0.01288745  0.83699558  1
  In  In49  1  0.65256272  0.83241852  0.50329867  1
  In  In50  1  0.51057397  -0.00018521  0.84404307  1
  In  In51  1  0.66577840  0.33126423  0.64738757  1
  In  In52  1  -0.02620156  0.18870754  0.48924601  1
  In  In53  1  -0.03009605  -0.03087828  0.00135784  1
  In  In54  1  0.34214105  -0.02270392  0.64538709  1
  In  In55  1  0.32898724  0.49313162  0.85717431  1
  In  In56  1  -0.00039715  0.35252119  0.32502904  1
  In  In57  1  0.68821275  0.19603398  0.19771440  1
  In  In58  1  0.33052525  0.33232402  0.61176611  1
  In  In59  1  0.19755774  0.35116328  0.82149044  1
  In  In60  1  0.65369023  0.65115480  0.01820739  1
  In  In61  1  0.01286420  0.34007492  0.01059870  1
  In  In62  1  0.33206506  -0.00402539  0.32689057  1
  In  In63  1  0.65141588  0.00621150  0.01489009  1
  In  In64  1  0.82191279  0.17678350  -0.00288923  1
  In  In65  1  0.47234382  0.18105583  0.62986948  1
  In  In66  1  -0.00818452  0.20467376  0.80788569  1
  In  In67  1  0.14469526  0.51909523  0.32462994  1
  In  In68  1  0.66481567  0.49640710  0.19813419  1
  In  In69  1  0.81756319  0.49141385  0.63016111  1
  In  In70  1  -0.01785617  0.15505236  0.17904286  1
  In  In71  1  0.16352376  -0.03197003  0.16380325  1
  Te  Te72  1  0.07707872  0.06733678  0.08356669  1
  Te  Te73  1  0.08206529  0.10382911  0.41123278  1
  Te  Te74  1  0.06518587  0.07497544  0.74888181  1
  Te  Te75  1  0.05357981  0.44815328  0.10503338  1
  Te  Te76  1  0.09957841  0.41091302  0.41505327  1
  Te  Te77  1  0.08224247  0.42403635  0.75444784  1
  Te  Te78  1  0.08695216  0.74383373  0.13270741  1
  Te  Te79  1  0.08274848  0.73551653  0.40277302  1
  Te  Te80  1  0.06558909  0.73718021  0.73268566  1
  Te  Te81  1  0.40385404  0.07309341  0.08224051  1
  Te  Te82  1  0.41589693  0.08558498  0.41618851  1
  Te  Te83  1  0.41393319  0.07419044  0.75097363  1
  Te  Te84  1  0.42944972  0.44401747  0.11902537  1
  Te  Te85  1  0.44981895  0.45898555  0.37545922  1
  Te  Te86  1  0.40767539  0.40485195  0.76078854  1
  Te  Te87  1  0.47231398  0.76376152  0.09269937  1
  Te  Te88  1  0.40192528  0.72931429  0.38254671  1
  Te  Te89  1  0.42035393  0.75543756  0.74977289  1
  Te  Te90  1  0.74601864  0.09179238  0.09693373  1
  Te  Te91  1  0.75679403  0.09137625  0.38669681  1
  Te  Te92  1  0.75624048  0.09021995  0.75030001  1
  Te  Te93  1  0.75406652  0.41746998  0.09794400  1
  Te  Te94  1  0.73189036  0.38797401  0.37513735  1
  Te  Te95  1  0.74270306  0.42098469  0.74797872  1
  Te  Te96  1  0.74043593  0.73023322  0.10891750  1
  Te  Te97  1  0.74007348  0.75146264  0.40554609  1
  Te  Te98  1  0.75078532  0.75423610  0.71976950  1
  Te  Te99  1  0.08779254  0.24730378  0.24049807  1
  Te  Te100  1  0.08324357  0.26909854  0.55907471  1
  Te  Te101  1  0.10207448  0.25324950  0.90460157  1
  Te  Te102  1  0.06954616  0.63410282  0.26180413  1
  Te  Te103  1  0.03715539  0.61739860  0.53613470  1
  Te  Te104  1  0.07605502  0.58640357  0.93825087  1
  Te  Te105  1  0.08074548  0.90765116  0.27357639  1
  Te  Te106  1  0.09241177  0.91372250  0.58268915  1
  Te  Te107  1  0.10379397  0.89726746  0.94578416  1
  Te  Te108  1  0.41838736  0.26249294  0.27753579  1
  Te  Te109  1  0.44069580  0.28120080  0.52533938  1
  Te  Te110  1  0.43207004  0.25140552  0.93134102  1
  Te  Te111  1  0.42198464  0.61204876  0.27567236  1
  Te  Te112  1  0.41577897  0.57213607  0.59385258  1
  Te  Te113  1  0.41307000  0.58861342  0.93845280  1
  Te  Te114  1  0.41213357  0.89682903  0.25385600  1
  Te  Te115  1  0.41891168  0.88814003  0.56077027  1
  Te  Te116  1  0.42963781  0.91784650  0.94291478  1
  Te  Te117  1  0.78234423  0.28443589  0.27119219  1
  Te  Te118  1  0.76937574  0.25766826  0.57192367  1
  Te  Te119  1  0.74153825  0.25872796  0.90677012  1
  Te  Te120  1  0.75025754  0.59487743  0.27370435  1
  Te  Te121  1  0.72960427  0.56966314  0.54363659  1
  Te  Te122  1  0.76466801  0.58982934  0.91623624  1
  Te  Te123  1  0.74774021  0.88922525  0.24528635  1
  Te  Te124  1  0.74578830  0.93064974  0.56185386  1
  Te  Te125  1  0.75773546  0.92263847  0.92883789  1
  Te  Te126  1  0.26704713  0.25530867  0.09929578  1
  Te  Te127  1  0.28012493  0.26742358  0.47839440  1
  Te  Te128  1  0.23511558  0.24177805  0.71986520  1
  Te  Te129  1  0.24901640  0.58794457  0.09772492  1
  Te  Te130  1  0.24316879  0.59226188  0.41332743  1
  Te  Te131  1  0.23932529  0.57781582  0.76434786  1
  Te  Te132  1  0.27649523  0.87698233  0.11613674  1
  Te  Te133  1  0.25154016  0.90538543  0.42084868  1
  Te  Te134  1  0.23361115  0.91828294  0.74993063  1
  Te  Te135  1  0.57482583  0.25953245  0.11616311  1
  Te  Te136  1  0.61979055  0.26536039  0.40870477  1
  Te  Te137  1  0.57337067  0.23676249  0.72942534  1
  Te  Te138  1  0.56830655  0.56222389  0.10340290  1
  Te  Te139  1  0.57774772  0.54384173  0.41719787  1
  Te  Te140  1  0.60215509  0.59738880  0.73605911  1
  Te  Te141  1  0.59361714  0.89154968  0.08854648  1
  Te  Te142  1  0.56673371  0.88226799  0.38502029  1
  Te  Te143  1  0.57836130  0.90412925  0.74892950  1
  Te  Te144  1  0.91272397  0.25707769  0.09037112  1
  Te  Te145  1  0.89956087  0.25124814  0.37504742  1
  Te  Te146  1  0.90156456  0.27231533  0.71647595  1
  Te  Te147  1  0.88836050  0.61836582  0.09893318  1
  Te  Te148  1  0.93697111  0.55550901  0.43471372  1
  Te  Te149  1  0.91002700  0.56979362  0.72942224  1
  Te  Te150  1  0.91698536  0.89146450  0.11174299  1
  Te  Te151  1  0.90098408  0.92406579  0.42435028  1
  Te  Te152  1  0.90586573  0.90914682  0.74392644  1
  Te  Te153  1  0.23230662  0.07979134  0.24571628  1
  Te  Te154  1  0.26587693  0.08871337  0.57658486  1
  Te  Te155  1  0.26271456  0.10310944  0.90655066  1
  Te  Te156  1  0.24481679  0.40585808  0.27655495  1
  Te  Te157  1  0.24164918  0.44896887  0.58332157  1
  Te  Te158  1  0.23566446  0.41958155  0.95271079  1
  Te  Te159  1  0.28960411  0.70104402  0.27597676  1
  Te  Te160  1  0.24979315  0.71767565  0.55313310  1
  Te  Te161  1  0.26754315  0.74720429  0.90990484  1
  Te  Te162  1  0.58797400  0.07999674  0.24283377  1
  Te  Te163  1  0.57202832  0.07952147  0.57674184  1
  Te  Te164  1  0.60357960  0.10214171  0.90560953  1
  Te  Te165  1  0.58031615  0.41736487  0.29327144  1
  Te  Te166  1  0.57730619  0.41811043  0.56826314  1
  Te  Te167  1  0.57403025  0.43015568  0.93891073  1
  Te  Te168  1  0.54278518  0.69742435  0.21380867  1
  Te  Te169  1  0.56103736  0.74311036  0.57651225  1
  Te  Te170  1  0.59043179  0.74549670  0.91569361  1
  Te  Te171  1  0.88199037  0.07513831  0.25166936  1
  Te  Te172  1  0.89534668  0.10121306  0.57971361  1
  Te  Te173  1  0.93893911  0.10151446  0.92149634  1
  Te  Te174  1  0.93854440  0.44898192  0.22947524  1
  Te  Te175  1  0.91091678  0.42381350  0.53366555  1
  Te  Te176  1  0.90958520  0.39914974  0.91530214  1
  Te  Te177  1  0.93110851  0.70569190  0.26297520  1
  Te  Te178  1  0.90964798  0.74400107  0.58199045  1
  Te  Te179  1  0.92333876  0.75930675  0.90628306  1
