# generated using pymatgen
data_In2Te3
_symmetry_space_group_name_H-M   'P 1'
_cell_length_a   18.77932972
_cell_length_b   18.77801612
_cell_length_c   18.78692859
_cell_angle_alpha   89.99493359
_cell_angle_beta   89.97780612
_cell_angle_gamma   90.00281256
_symmetry_Int_Tables_number   1
_chemical_formula_structural   In2Te3
_chemical_formula_sum   'In72 Te108'
_cell_volume   6624.99484310
_cell_formula_units_Z   36
loop_
 _symmetry_equiv_pos_site_id
 _symmetry_equiv_pos_as_xyz
  1  'x, y, z'
loop_
 _atom_site_type_symbol
 _atom_site_label
 _atom_site_symmetry_multiplicity
 _atom_site_fract_x
 _atom_site_fract_y
 _atom_site_fract_z
 _atom_site_occupancy
  In  In0  1  0.83362915  -0.00853758  0.84719611  1
  In  In1  1  0.81284880  0.15905810  0.32527797  1
  In  In2  1  0.20875392  0.35172564  0.19635361  1
  In  In3  1  0.19033012  0.17852467  0.68039575  1
  In  In4  1  -0.02894037  0.00634235  0.67343134  1
  In  In5  1  0.19315787  0.02105258  0.84417477  1
  In  In6  1  0.36323689  0.00754580  0.65456754  1
  In  In7  1  0.83392028  0.65705892  0.50648751  1
  In  In8  1  0.17769040  0.49655385  -0.01036234  1
  In  In9  1  -0.02130635  -0.00816222  0.30283333  1
  In  In10  1  0.33101202  0.65566617  -0.00350758  1
  In  In11  1  0.01109084  0.32510436  -0.00093627  1
  In  In12  1  0.00339305  0.85913065  0.17594183  1
  In  In13  1  0.17435186  0.64090889  0.83106860  1
  In  In14  1  0.66108442  0.66012298  -0.02388457  1
  In  In15  1  0.83782631  0.83537477  -0.00662048  1
  In  In16  1  0.51099400  0.00350437  0.81157747  1
  In  In17  1  0.66604926  0.01677723  -0.01479055  1
  In  In18  1  0.17376521  0.64462579  0.47451149  1
  In  In19  1  0.17474361  0.30268191  0.84666859  1
  In  In20  1  0.66100655  0.50519691  0.49383167  1
  In  In21  1  0.34820920  0.20172001  0.17706499  1
  In  In22  1  0.33708643  0.02898414  0.33745542  1
  In  In23  1  0.81971732  0.49484509  0.64739016  1
  In  In24  1  0.01721270  0.33190909  0.32905010  1
  In  In25  1  0.39458069  0.18545138  0.49218599  1
  In  In26  1  0.19962266  0.49433911  0.64916186  1
  In  In27  1  0.00223566  0.85374834  0.84870084  1
  In  In28  1  0.84448320  -0.01480500  0.19369864  1
  In  In29  1  0.79824054  0.69315497  0.80938573  1
  In  In30  1  0.79934568  0.30571025  0.52668076  1
  In  In31  1  0.01267069  0.50857488  0.83213387  1
  In  In32  1  0.00691013  0.20364052  0.82844277  1
  In  In33  1  -0.00647801  0.15807561  0.49996500  1
  In  In34  1  0.50305849  0.82215744  -0.01257610  1
  In  In35  1  0.15809296  0.81812109  0.33429099  1
  In  In36  1  0.63010022  0.64406069  0.36918274  1
  In  In37  1  0.16800203  0.66280764  0.15923956  1
  In  In38  1  0.17033415  0.82976461  0.01021330  1
  In  In39  1  0.18181337  0.34580216  0.49746304  1
  In  In40  1  0.68170230  0.84672468  0.17705331  1
  In  In41  1  0.64484625  0.00256633  0.64937331  1
  In  In42  1  0.50095088  0.31985640  0.83703362  1
  In  In43  1  0.17520505  0.17788054  0.32189335  1
  In  In44  1  0.66601302  0.17064664  0.83484966  1
  In  In45  1  0.33140190  0.01274060  0.01241558  1
  In  In46  1  0.64560508  0.17817078  0.16519904  1
  In  In47  1  -0.01609953  0.34559648  0.67369993  1
  In  In48  1  0.00110763  0.51627554  0.18163724  1
  In  In49  1  0.80192071  0.01437399  0.47659391  1
  In  In50  1  0.17084997  -0.00712291  0.50266608  1
  In  In51  1  0.37377232  0.81172102  0.79671918  1
  In  In52  1  0.65736324  0.49147757  0.82987836  1
  In  In53  1  0.50516076  0.01674906  0.18830425  1
  In  In54  1  0.50453720  0.34529886  0.17010060  1
  In  In55  1  0.17279320  0.83424417  0.65436783  1
  In  In56  1  0.81722858  0.85845407  0.33599875  1
  In  In57  1  0.48127604  0.48998242  0.00353347  1
  In  In58  1  0.33420699  0.63889951  0.33257377  1
  In  In59  1  0.00007755  0.67036319  0.65324369  1
  In  In60  1  0.81508077  0.33275725  0.82754571  1
  In  In61  1  0.79876315  0.46952862  0.03661166  1
  In  In62  1  0.84205996  0.16674451  0.00264623  1
  In  In63  1  0.36180287  0.83030815  0.51944330  1
  In  In64  1  0.33333389  0.50203831  0.84564342  1
  In  In65  1  0.64053192  0.81888897  0.51762980  1
  In  In66  1  0.81206708  0.48010805  0.34506289  1
  In  In67  1  0.48690379  0.65615148  0.16551672  1
  In  In68  1  0.01237073  0.66691432  0.32249670  1
  In  In69  1  0.51116843  0.51387699  0.65711214  1
  In  In70  1  0.82500515  0.63881220  0.18007712  1
  In  In71  1  0.50229462  0.84851960  0.34053098  1
  Te  Te72  1  0.03168276  0.05014917  0.13679693  1
  Te  Te73  1  0.08601629  0.08021638  0.40617824  1
  Te  Te74  1  0.08433756  0.08284720  0.74519761  1
  Te  Te75  1  0.08771850  0.42428665  0.09073575  1
  Te  Te76  1  0.08817091  0.42636541  0.41665121  1
  Te  Te77  1  0.10486298  0.41358208  0.75398629  1
  Te  Te78  1  0.06398562  0.74866488  0.08720284  1
  Te  Te79  1  0.06636303  0.75400991  0.43606274  1
  Te  Te80  1  0.08764342  0.75329316  0.75891380  1
  Te  Te81  1  0.42950682  0.10238448  0.08790494  1
  Te  Te82  1  0.44015968  0.05037368  0.44044402  1
  Te  Te83  1  0.43676482  0.10604336  0.73506226  1
  Te  Te84  1  0.39470980  0.40487235  0.08800459  1
  Te  Te85  1  0.41313236  0.36317421  0.35678245  1
  Te  Te86  1  0.42727606  0.42611507  0.75441826  1
  Te  Te87  1  0.40470474  0.75731580  0.08487201  1
  Te  Te88  1  0.42242665  0.74027723  0.41096782  1
  Te  Te89  1  0.44337918  0.73859335  0.68743665  1
  Te  Te90  1  0.75397902  0.07321372  0.09557901  1
  Te  Te91  1  0.71301691  0.12839209  0.43366826  1
  Te  Te92  1  0.74320021  0.06820361  0.75317674  1
  Te  Te93  1  0.71467502  0.38943556  0.12861217  1
  Te  Te94  1  0.72292011  0.38016274  0.41818679  1
  Te  Te95  1  0.72670625  0.40329011  0.72533661  1
  Te  Te96  1  0.75063155  0.74395094  0.08211543  1
  Te  Te97  1  0.74336016  0.74729999  0.41019920  1
  Te  Te98  1  0.69858804  0.77899756  0.74548521  1
  Te  Te99  1  0.09041280  0.25369476  0.22096307  1
  Te  Te100  1  0.07897692  0.24851086  0.59034037  1
  Te  Te101  1  0.10169872  0.21170893  0.94891367  1
  Te  Te102  1  0.11565694  0.56807445  0.26904812  1
  Te  Te103  1  0.08438958  0.56902147  0.57832298  1
  Te  Te104  1  0.07486943  0.59888188  0.93874343  1
  Te  Te105  1  0.11525089  0.93627798  0.24804541  1
  Te  Te106  1  0.06663375  0.91898707  0.58597294  1
  Te  Te107  1  0.09613403  0.94165698  0.93202264  1
  Te  Te108  1  0.45198162  0.23380841  0.28291793  1
  Te  Te109  1  0.44971770  0.28702661  0.58904437  1
  Te  Te110  1  0.38867573  0.24110917  0.89402593  1
  Te  Te111  1  0.42820740  0.55238998  0.25374004  1
  Te  Te112  1  0.42903098  0.61161351  0.57858945  1
  Te  Te113  1  0.43655398  0.59925775  0.90393048  1
  Te  Te114  1  0.40502575  0.91851319  0.24661631  1
  Te  Te115  1  0.46056608  0.92662281  0.57617632  1
  Te  Te116  1  0.41359897  0.92167614  0.90975119  1
  Te  Te117  1  0.74903627  0.26208376  0.23611273  1
  Te  Te118  1  0.70273634  0.23230014  0.61289697  1
  Te  Te119  1  0.73859424  0.25951558  0.93726033  1
  Te  Te120  1  0.71766108  0.56827179  0.25977419  1
  Te  Te121  1  0.72458387  0.60194259  0.59687719  1
  Te  Te122  1  0.76537511  0.56777154  0.91181772  1
  Te  Te123  1  0.71613651  0.95661553  0.27664277  1
  Te  Te124  1  0.74821485  0.91290143  0.57710786  1
  Te  Te125  1  0.72738060  0.89977433  0.90996586  1
  Te  Te126  1  0.24292429  0.25666174  0.08797361  1
  Te  Te127  1  0.26805133  0.24778915  0.41747739  1
  Te  Te128  1  0.28365138  0.27027393  0.74827647  1
  Te  Te129  1  0.26595826  0.56280935  0.09735804  1
  Te  Te130  1  0.27831420  0.54537742  0.43573403  1
  Te  Te131  1  0.27905619  0.59485332  0.73320150  1
  Te  Te132  1  0.25321677  0.91746658  0.09476467  1
  Te  Te133  1  0.26126606  0.90277558  0.41851108  1
  Te  Te134  1  0.25932327  0.92512886  0.74227959  1
  Te  Te135  1  0.56210837  0.25158806  0.06817636  1
  Te  Te136  1  0.52633527  0.26354233  0.46225395  1
  Te  Te137  1  0.58967193  0.25191399  0.73479227  1
  Te  Te138  1  0.58541128  0.57674636  0.07846243  1
  Te  Te139  1  0.53626597  0.54050105  0.41645686  1
  Te  Te140  1  0.58886206  0.59758997  0.75446029  1
  Te  Te141  1  0.58176140  0.91817260  0.08229647  1
  Te  Te142  1  0.59267391  0.92749834  0.42619484  1
  Te  Te143  1  0.58858579  0.89342083  0.74066499  1
  Te  Te144  1  0.90874080  0.26688166  0.08800645  1
  Te  Te145  1  0.90932035  0.25143514  0.41291279  1
  Te  Te146  1  0.89161097  0.23903154  0.73366054  1
  Te  Te147  1  0.90961257  0.57322419  0.07250932  1
  Te  Te148  1  0.91520529  0.57872893  0.40468634  1
  Te  Te149  1  0.90818004  0.57862899  0.74323324  1
  Te  Te150  1  0.92446005  0.93764288  0.06524345  1
  Te  Te151  1  0.91950318  0.92274776  0.42708074  1
  Te  Te152  1  0.89661386  0.89422851  0.74564650  1
  Te  Te153  1  0.25318135  0.08841069  0.22610208  1
  Te  Te154  1  0.25909488  0.09687156  0.57067072  1
  Te  Te155  1  0.29477338  0.11448831  0.90372379  1
  Te  Te156  1  0.29443282  0.42745291  0.29256590  1
  Te  Te157  1  0.29392151  0.40970493  0.57280748  1
  Te  Te158  1  0.27053860  0.39217878  0.93101779  1
  Te  Te159  1  0.26012611  0.74644963  0.24718257  1
  Te  Te160  1  0.25163187  0.73585710  0.57280533  1
  Te  Te161  1  0.25658956  0.75717120  0.90179948  1
  Te  Te162  1  0.56935462  0.11601673  0.28003995  1
  Te  Te163  1  0.60858199  0.11825507  0.56273720  1
  Te  Te164  1  0.55911290  0.10171993  0.92223796  1
  Te  Te165  1  0.61170299  0.41967994  0.24036133  1
  Te  Te166  1  0.57166050  0.40654232  0.56928023  1
  Te  Te167  1  0.58748102  0.40431154  0.93301814  1
  Te  Te168  1  0.58799558  0.74797425  0.24709586  1
  Te  Te169  1  0.54846070  0.71334611  0.57229834  1
  Te  Te170  1  0.58109354  0.74617432  0.88501018  1
  Te  Te171  1  0.93228392  0.12008032  0.22812438  1
  Te  Te172  1  0.88433450  0.09367745  0.58390741  1
  Te  Te173  1  0.93271237  0.09005420  0.90683278  1
  Te  Te174  1  0.91145613  0.41336018  0.24931864  1
  Te  Te175  1  0.91160398  0.41385170  0.55844871  1
  Te  Te176  1  0.92083374  0.41251994  0.90761902  1
  Te  Te177  1  0.90460312  0.75660892  0.24858740  1
  Te  Te178  1  0.89998685  0.75798749  0.59103958  1
  Te  Te179  1  0.91357055  0.73921049  0.90332507  1
