# generated using pymatgen
data_In2Te3
_symmetry_space_group_name_H-M   'P 1'
_cell_length_a   18.97211723
_cell_length_b   18.96335499
_cell_length_c   18.98187517
_cell_angle_alpha   90.17864919
_cell_angle_beta   89.75520659
_cell_angle_gamma   90.08929496
_symmetry_Int_Tables_number   1
_chemical_formula_structural   In2Te3
_chemical_formula_sum   'In72 Te108'
_cell_volume   6829.10034638
_cell_formula_units_Z   36
loop_
 _symmetry_equiv_pos_site_id
 _symmetry_equiv_pos_as_xyz
  1  'x, y, z'
loop_
 _atom_site_type_symbol
 _atom_site_label
 _atom_site_symmetry_multiplicity
 _atom_site_fract_x
 _atom_site_fract_y
 _atom_site_fract_z
 _atom_site_occupancy
  In  In0  1  0.17010164  0.31782681  0.48362594  1
  In  In1  1  0.82398855  0.86541809  0.00143840  1
  In  In2  1  0.47803431  0.13848135  0.04619159  1
  In  In3  1  0.19020810  0.15672310  0.01899744  1
  In  In4  1  0.67963953  0.67203723  0.64034146  1
  In  In5  1  0.83288373  0.00397473  0.82504943  1
  In  In6  1  0.67217950  -0.00834906  0.67714738  1
  In  In7  1  0.53376434  0.33997116  0.81453484  1
  In  In8  1  0.82575959  0.33784806  0.17480479  1
  In  In9  1  0.49491290  0.33688857  0.46866481  1
  In  In10  1  0.65378659  0.83949740  0.50578067  1
  In  In11  1  0.17567283  0.53148223  0.34147266  1
  In  In12  1  0.16270623  0.82586738  0.65954543  1
  In  In13  1  0.00142111  0.51663334  0.51519392  1
  In  In14  1  0.33936688  0.83544388  0.17111772  1
  In  In15  1  0.64433162  0.02162864  0.30248521  1
  In  In16  1  0.66405021  -0.00270716  -0.00469809  1
  In  In17  1  0.82748921  0.67351409  0.19469571  1
  In  In18  1  0.50971071  0.48466830  0.01165341  1
  In  In19  1  0.33797914  0.31452108  0.32436983  1
  In  In20  1  0.85594505  0.34813555  0.51074631  1
  In  In21  1  -0.01190898  0.12158728  0.54273950  1
  In  In22  1  -0.00482201  0.84807153  0.17651772  1
  In  In23  1  0.68424636  0.14921906  0.52072851  1
  In  In24  1  0.83839489  0.50263678  0.36553371  1
  In  In25  1  0.34092399  0.15930764  0.85647172  1
  In  In26  1  0.64633510  0.30888410  0.32060145  1
  In  In27  1  0.50313985  0.52465993  0.65898912  1
  In  In28  1  0.33954254  0.49320750  0.85339416  1
  In  In29  1  0.13059537  0.81124132  0.35659421  1
  In  In30  1  0.67408439  0.50016450  0.51177556  1
  In  In31  1  0.35141586  0.69483397  0.35679877  1
  In  In32  1  0.64754962  0.66256246  -0.00199670  1
  In  In33  1  0.83562600  0.32459384  0.82101039  1
  In  In34  1  0.67987191  0.33550535  -0.01393505  1
  In  In35  1  0.16990796  -0.00698136  0.50416574  1
  In  In36  1  0.02091478  0.34389380  0.00533694  1
  In  In37  1  0.01355638  0.18244040  0.15636126  1
  In  In38  1  0.17264982  0.33924918  0.15927458  1
  In  In39  1  0.32455674  0.34352961  0.64006976  1
  In  In40  1  0.64522189  0.81811499  0.16221355  1
  In  In41  1  0.33132731  0.66696532  0.65165694  1
  In  In42  1  -0.00900215  0.67571810  0.00783493  1
  In  In43  1  0.46867383  0.50570797  0.32377389  1
  In  In44  1  0.33201528  0.82756884  0.84370940  1
  In  In45  1  0.19386344  0.66347920  0.84434939  1
  In  In46  1  0.16846062  0.84257209  -0.00448261  1
  In  In47  1  0.33279945  0.34782484  -0.01091451  1
  In  In48  1  0.51168744  0.66461378  0.82692247  1
  In  In49  1  0.81505244  0.17889239  0.33743514  1
  In  In50  1  0.15805048  0.34117410  0.82295398  1
  In  In51  1  0.82940273  0.00264110  0.16075603  1
  In  In52  1  -0.01528718  0.14510752  0.81317902  1
  In  In53  1  0.48209864  -0.02663439  0.47877864  1
  In  In54  1  -0.00159840  -0.00223512  0.34395005  1
  In  In55  1  0.20610990  0.63443713  0.16560989  1
  In  In56  1  0.64987819  0.67678894  0.34353222  1
  In  In57  1  0.00475284  0.32994975  0.31326235  1
  In  In58  1  0.34945828  -0.02457175  0.64884411  1
  In  In59  1  0.00125980  0.86832269  0.82421600  1
  In  In60  1  0.80610829  0.70458521  0.81858211  1
  In  In61  1  0.16234271  0.16984430  0.66507610  1
  In  In62  1  0.32712721  -0.01549459  0.32256001  1
  In  In63  1  0.48585536  0.32135339  0.16632407  1
  In  In64  1  0.48504829  0.84114465  0.01105125  1
  In  In65  1  0.69030577  0.32841200  0.65790392  1
  In  In66  1  0.50380325  0.18421756  0.65672731  1
  In  In67  1  0.83118572  0.84297055  0.36093147  1
  In  In68  1  0.01586536  0.51643274  0.80802161  1
  In  In69  1  0.51569833  -0.00954204  0.82419250  1
  In  In70  1  0.83306838  0.49704183  0.00122034  1
  In  In71  1  -0.00735835  0.68962858  0.65696291  1
  Te  Te72  1  0.09473465  0.07723073  0.09778765  1
  Te  Te73  1  0.08311767  0.09152704  0.42735884  1
  Te  Te74  1  0.09343795  0.07210360  0.74788215  1
  Te  Te75  1  0.08200324  0.43948639  0.10061654  1
  Te  Te76  1  0.07703246  0.42310807  0.40853345  1
  Te  Te77  1  0.08754047  0.42014578  0.72376807  1
  Te  Te78  1  0.08553378  0.75640067  0.09376302  1
  Te  Te79  1  0.04458042  0.72777200  0.44569570  1
  Te  Te80  1  0.08932554  0.74744066  0.77529555  1
  Te  Te81  1  0.37229441  0.04544486  0.09759412  1
  Te  Te82  1  0.39003087  0.07210315  0.42409319  1
  Te  Te83  1  0.41890306  0.08822107  0.74185933  1
  Te  Te84  1  0.40066324  0.42740204  0.09975421  1
  Te  Te85  1  0.38471073  0.42635526  0.42177665  1
  Te  Te86  1  0.42221867  0.41751587  0.74483377  1
  Te  Te87  1  0.42238536  0.73933077  0.09490312  1
  Te  Te88  1  0.44733753  0.74813718  0.45776709  1
  Te  Te89  1  0.41842507  0.75064321  0.74514680  1
  Te  Te90  1  0.74304810  0.08648745  0.07973871  1
  Te  Te91  1  0.74727373  0.06478990  0.40759657  1
  Te  Te92  1  0.73380753  0.09420870  0.76170877  1
  Te  Te93  1  0.73514417  0.42764648  0.09449129  1
  Te  Te94  1  0.73983513  0.38991730  0.41419646  1
  Te  Te95  1  0.75533390  0.42250871  0.74723998  1
  Te  Te96  1  0.76030730  0.74933932  0.07708988  1
  Te  Te97  1  0.75198332  0.73954200  0.43633648  1
  Te  Te98  1  0.76001444  0.77874021  0.70340884  1
  Te  Te99  1  0.11076441  0.23802334  0.25736148  1
  Te  Te100  1  0.06676865  0.24601746  0.57782382  1
  Te  Te101  1  0.10098355  0.24453896  0.92343117  1
  Te  Te102  1  0.08859292  0.59875061  0.24578781  1
  Te  Te103  1  0.09091993  0.59529960  0.60230878  1
  Te  Te104  1  0.08303360  0.59147150  0.92205302  1
  Te  Te105  1  0.09769321  0.92566363  0.25593932  1
  Te  Te106  1  0.07474552  0.92391435  0.59398876  1
  Te  Te107  1  0.09660152  0.93765960  0.91017606  1
  Te  Te108  1  0.43835847  0.21652403  0.26216741  1
  Te  Te109  1  0.40764971  0.24715979  0.55848834  1
  Te  Te110  1  0.43385980  0.26863035  0.90729087  1
  Te  Te111  1  0.38352012  0.59788769  0.24931805  1
  Te  Te112  1  0.41176589  0.58049266  0.56191818  1
  Te  Te113  1  0.42916602  0.58804034  0.92826347  1
  Te  Te114  1  0.42979596  0.89085339  0.27279647  1
  Te  Te115  1  0.39924365  0.87191975  0.55357877  1
  Te  Te116  1  0.40993330  0.93371976  0.91746826  1
  Te  Te117  1  0.73101732  0.22877403  0.22319909  1
  Te  Te118  1  0.78758064  0.23491943  0.59018471  1
  Te  Te119  1  0.76817614  0.24076001  0.92018887  1
  Te  Te120  1  0.74394251  0.57538219  0.27137111  1
  Te  Te121  1  0.77666116  0.58412719  0.57032880  1
  Te  Te122  1  0.75648861  0.59545702  0.91565994  1
  Te  Te123  1  0.75358628  0.89791374  0.24001349  1
  Te  Te124  1  0.75278690  0.93178954  0.56756663  1
  Te  Te125  1  0.73123697  0.90812212  0.89259344  1
  Te  Te126  1  0.27906995  0.25264836  0.09424226  1
  Te  Te127  1  0.26037792  0.22625139  0.41296540  1
  Te  Te128  1  0.26724476  0.25624679  0.75435647  1
  Te  Te129  1  0.22673615  0.53429177  0.06197802  1
  Te  Te130  1  0.24682918  0.62194873  0.43546386  1
  Te  Te131  1  0.26017441  0.56775765  0.74879580  1
  Te  Te132  1  0.25952635  0.92621002  0.08281005  1
  Te  Te133  1  0.24100881  0.89264948  0.41926399  1
  Te  Te134  1  0.25255525  0.91269582  0.74754459  1
  Te  Te135  1  0.57570883  0.25180460  0.06709007  1
  Te  Te136  1  0.58628017  0.22211696  0.42788156  1
  Te  Te137  1  0.61358418  0.22799139  0.75202646  1
  Te  Te138  1  0.58647104  0.57608235  0.09765080  1
  Te  Te139  1  0.57779280  0.56382103  0.41751396  1
  Te  Te140  1  0.61019714  0.58297045  0.74647930  1
  Te  Te141  1  0.57192623  0.93218226  0.09763525  1
  Te  Te142  1  0.58586312  0.90954433  0.38693008  1
  Te  Te143  1  0.56166849  0.90329354  0.71709204  1
  Te  Te144  1  0.91329339  0.26153523  0.07701113  1
  Te  Te145  1  0.92399003  0.24907160  0.41397800  1
  Te  Te146  1  0.93756893  0.25958729  0.73811187  1
  Te  Te147  1  0.90993771  0.58597800  0.09846023  1
  Te  Te148  1  0.93610990  0.60302160  0.41235585  1
  Te  Te149  1  0.90810982  0.60843108  0.75589516  1
  Te  Te150  1  0.93634770  0.93890248  0.07189160  1
  Te  Te151  1  0.92635110  0.91924553  0.44640755  1
  Te  Te152  1  0.91748878  0.93330727  0.71967295  1
  Te  Te153  1  0.28156794  0.07192500  0.21161253  1
  Te  Te154  1  0.26142272  0.08274165  0.58686417  1
  Te  Te155  1  0.24827744  0.06581501  0.91757451  1
  Te  Te156  1  0.24850042  0.41829401  0.26251312  1
  Te  Te157  1  0.22763819  0.42332406  0.56863901  1
  Te  Te158  1  0.22031609  0.43663254  0.93327863  1
  Te  Te159  1  0.23556108  0.75321764  0.25829937  1
  Te  Te160  1  0.22626355  0.72943155  0.56580003  1
  Te  Te161  1  0.27137861  0.73827199  0.94984220  1
  Te  Te162  1  0.54530833  0.10588347  0.23936110  1
  Te  Te163  1  0.56628858  0.06962769  0.57627957  1
  Te  Te164  1  0.56441189  0.09129712  0.92842583  1
  Te  Te165  1  0.57015657  0.41615509  0.24872841  1
  Te  Te166  1  0.57297780  0.40004164  0.58520361  1
  Te  Te167  1  0.60522023  0.43789171  0.90245690  1
  Te  Te168  1  0.56007212  0.72829436  0.23965738  1
  Te  Te169  1  0.56654842  0.72804845  0.55749961  1
  Te  Te170  1  0.58105584  0.76820613  0.91329660  1
  Te  Te171  1  0.91572646  0.09318594  0.25298025  1
  Te  Te172  1  0.88731145  0.04566992  0.61586542  1
  Te  Te173  1  0.91292797  0.08006812  0.92215752  1
  Te  Te174  1  0.91452331  0.43291807  0.25092199  1
  Te  Te175  1  0.91524472  0.43899322  0.60709142  1
  Te  Te176  1  0.93443217  0.42668995  0.91132991  1
  Te  Te177  1  0.92478837  0.75757190  0.27428994  1
  Te  Te178  1  0.95751307  0.79096098  0.55336811  1
  Te  Te179  1  0.91600487  0.77008535  0.91626488  1
