# generated using pymatgen
data_In2Te3
_symmetry_space_group_name_H-M   'P 1'
_cell_length_a   18.99592285
_cell_length_b   18.94312736
_cell_length_c   18.99849257
_cell_angle_alpha   90.03701530
_cell_angle_beta   90.03638088
_cell_angle_gamma   90.04880506
_symmetry_Int_Tables_number   1
_chemical_formula_structural   In2Te3
_chemical_formula_sum   'In72 Te108'
_cell_volume   6836.45380869
_cell_formula_units_Z   36
loop_
 _symmetry_equiv_pos_site_id
 _symmetry_equiv_pos_as_xyz
  1  'x, y, z'
loop_
 _atom_site_type_symbol
 _atom_site_label
 _atom_site_symmetry_multiplicity
 _atom_site_fract_x
 _atom_site_fract_y
 _atom_site_fract_z
 _atom_site_occupancy
  In  In0  1  0.15559225  -0.03405504  0.80825266  1
  In  In1  1  0.69548982  -0.06366457  0.37098523  1
  In  In2  1  -0.03558612  -0.04939137  0.39228014  1
  In  In3  1  0.17945771  -0.00505546  0.13889905  1
  In  In4  1  0.16066379  0.13826602  0.33329696  1
  In  In5  1  -0.01410427  0.66413753  -0.01924119  1
  In  In6  1  0.51669775  0.81783687  0.02037845  1
  In  In7  1  0.15163713  0.54155947  0.63734915  1
  In  In8  1  0.00502027  0.68587166  0.35455325  1
  In  In9  1  0.32724817  0.82002799  0.50789995  1
  In  In10  1  0.14438376  0.16737870  0.67832124  1
  In  In11  1  0.34918362  0.50938516  0.18076442  1
  In  In12  1  0.82174537  0.47569995  -0.01096118  1
  In  In13  1  0.36189915  0.17713174  0.17277132  1
  In  In14  1  0.83556152  0.79837100  0.65431503  1
  In  In15  1  0.15436037  0.32785069  0.82295900  1
  In  In16  1  0.49125458  -0.01014796  0.83712112  1
  In  In17  1  0.18565846  0.68314304  0.15683358  1
  In  In18  1  0.01636613  0.50221757  0.18857046  1
  In  In19  1  0.54394603  0.53525968  0.01541285  1
  In  In20  1  0.17606608  0.31626619  0.18832001  1
  In  In21  1  -0.01259791  0.32582982  -0.01656414  1
  In  In22  1  0.66865625  0.17014693  0.82400882  1
  In  In23  1  0.68190753  -0.00478289  0.65381824  1
  In  In24  1  0.30384834  -0.03191869  0.65569239  1
  In  In25  1  -0.01394700  -0.08308754  0.63581981  1
  In  In26  1  0.33195652  -0.02044961  -0.02246303  1
  In  In27  1  0.00001101  0.14032567  0.50811647  1
  In  In28  1  -0.01404941  0.82989002  0.20032245  1
  In  In29  1  0.35331448  0.66638831  0.00328855  1
  In  In30  1  -0.00145010  0.17668322  0.18518744  1
  In  In31  1  0.00424107  -0.01624559  -0.00617574  1
  In  In32  1  0.67438629  0.16064341  0.19096022  1
  In  In33  1  0.01178420  0.36611540  0.65466910  1
  In  In34  1  0.83606706  0.52468476  0.65876309  1
  In  In35  1  0.67409638  0.18037198  0.49695689  1
  In  In36  1  0.82425611  0.53256184  0.33128231  1
  In  In37  1  0.15971453  0.83419080  0.36207708  1
  In  In38  1  0.50619733  0.15862319  -0.02171480  1
  In  In39  1  0.31309536  0.51780747  0.81437770  1
  In  In40  1  0.30584544  0.65679674  0.35398448  1
  In  In41  1  0.48577659  0.33979449  0.86537583  1
  In  In42  1  0.50192073  0.80581195  0.65010942  1
  In  In43  1  0.84990479  0.17018727  0.64439216  1
  In  In44  1  0.82800931  0.66817234  0.14253733  1
  In  In45  1  0.50392333  0.66752202  0.80918128  1
  In  In46  1  0.50816026  -0.01533540  0.17537998  1
  In  In47  1  0.34794347  0.41996099  0.61750596  1
  In  In48  1  0.66156214  0.30124186  -0.01153701  1
  In  In49  1  0.48726566  0.20257199  0.66030500  1
  In  In50  1  0.32170569  0.34085774  0.03048120  1
  In  In51  1  0.83681793  0.36453455  0.80109222  1
  In  In52  1  0.53228980  0.36299678  0.18531119  1
  In  In53  1  0.83610894  0.01903926  0.14766276  1
  In  In54  1  0.64365455  0.65614613  0.64391087  1
  In  In55  1  0.49482852  0.45316849  0.50049966  1
  In  In56  1  0.83160040  0.65158271  0.83438170  1
  In  In57  1  0.67851496  0.84391771  0.84774675  1
  In  In58  1  0.66185931  0.36560798  0.31961647  1
  In  In59  1  0.67045212  0.81625687  0.17603649  1
  In  In60  1  0.49011381  0.18021017  0.31470735  1
  In  In61  1  0.29627189  0.14796459  0.82128531  1
  In  In62  1  -0.02350706  0.15297391  0.84954071  1
  In  In63  1  0.17431747  0.83085883  0.00139032  1
  In  In64  1  0.85621090  0.34804959  0.18136848  1
  In  In65  1  0.54185120  -0.01982836  0.48449412  1
  In  In66  1  0.67297979  0.52501894  0.48711180  1
  In  In67  1  0.34455625  0.17363580  0.51306388  1
  In  In68  1  0.84765323  0.14552105  0.35724421  1
  In  In69  1  0.13396429  0.50625592  -0.01094774  1
  In  In70  1  0.28167663  0.38649261  0.38786302  1
  In  In71  1  0.36571218  -0.02702244  0.32754824  1
  Te  Te72  1  0.07204158  0.08692432  0.08563067  1
  Te  Te73  1  0.08243181  0.04588040  0.42456659  1
  Te  Te74  1  0.05746586  0.06855534  0.75170791  1
  Te  Te75  1  0.08185892  0.39443200  0.08902919  1
  Te  Te76  1  0.17862179  0.49113337  0.43037657  1
  Te  Te77  1  0.09907064  0.44558124  0.74981043  1
  Te  Te78  1  0.06757071  0.75232255  0.08988123  1
  Te  Te79  1  0.02868303  0.81356054  0.43766629  1
  Te  Te80  1  0.05400562  0.79608116  0.70184410  1
  Te  Te81  1  0.41977034  0.06683714  0.07320653  1
  Te  Te82  1  0.42777496  0.08488291  0.42051604  1
  Te  Te83  1  0.42233643  0.09643630  0.75411227  1
  Te  Te84  1  0.43697557  0.42844988  0.07742426  1
  Te  Te85  1  0.38480535  0.49354033  0.40625568  1
  Te  Te86  1  0.41211996  0.41775565  0.75781351  1
  Te  Te87  1  0.44145338  0.72349107  0.10695500  1
  Te  Te88  1  0.41142874  0.72053468  0.44009108  1
  Te  Te89  1  0.40078803  0.73329436  0.72712545  1
  Te  Te90  1  0.74129515  0.10398846  0.07481538  1
  Te  Te91  1  0.75261466  0.06385162  0.44030696  1
  Te  Te92  1  0.76373981  0.08724228  0.74153732  1
  Te  Te93  1  0.74370670  0.38609308  0.08534147  1
  Te  Te94  1  0.76246980  0.42180340  0.41551501  1
  Te  Te95  1  0.73742287  0.45459060  0.74499838  1
  Te  Te96  1  0.75027919  0.76353006  0.06449607  1
  Te  Te97  1  0.72742253  0.80090611  0.42941199  1
  Te  Te98  1  0.72708106  0.73686046  0.74926763  1
  Te  Te99  1  0.07670095  0.25795153  0.28685678  1
  Te  Te100  1  0.08183928  0.25232480  0.57214543  1
  Te  Te101  1  0.08791473  0.23195269  0.91933412  1
  Te  Te102  1  0.09501931  0.61030196  0.25792962  1
  Te  Te103  1  0.03976725  0.59475007  0.55264975  1
  Te  Te104  1  0.10428503  0.62049263  0.90329117  1
  Te  Te105  1  0.10241144  0.91749748  0.24270232  1
  Te  Te106  1  0.13415240  0.89481257  0.60990157  1
  Te  Te107  1  0.07057201  0.88263160  0.90239801  1
  Te  Te108  1  0.40960956  0.29406016  0.25557771  1
  Te  Te109  1  0.42664431  0.29403815  0.55566426  1
  Te  Te110  1  0.38594187  0.23665402  0.92394644  1
  Te  Te111  1  0.40747094  0.62791414  0.24356210  1
  Te  Te112  1  0.39940764  0.54875154  0.56613987  1
  Te  Te113  1  0.42653570  0.56823347  0.91392547  1
  Te  Te114  1  0.44889804  0.87455070  0.25536793  1
  Te  Te115  1  0.42804091  0.92859007  0.57827239  1
  Te  Te116  1  0.42358317  0.87864904  0.91335392  1
  Te  Te117  1  0.76827845  0.25047251  0.26850584  1
  Te  Te118  1  0.74565459  0.25983847  0.59596437  1
  Te  Te119  1  0.77042541  0.25843928  0.89404669  1
  Te  Te120  1  0.74899739  0.55312678  0.20293067  1
  Te  Te121  1  0.76348371  0.62111739  0.55985244  1
  Te  Te122  1  0.74669011  0.58920593  0.93833542  1
  Te  Te123  1  0.76638891  0.91794600  0.23988447  1
  Te  Te124  1  0.72254766  0.87166921  0.58047971  1
  Te  Te125  1  0.79933843  0.92144843  0.87861018  1
  Te  Te126  1  0.24297890  0.22433820  0.08825471  1
  Te  Te127  1  0.25225190  0.23553486  0.40975809  1
  Te  Te128  1  0.25376826  0.26134401  0.72995861  1
  Te  Te129  1  0.24435356  0.56686583  0.07631972  1
  Te  Te130  1  0.19701704  0.64051306  0.46295735  1
  Te  Te131  1  0.25261697  0.61260849  0.72027260  1
  Te  Te132  1  0.28112598  0.89304705  0.09131584  1
  Te  Te133  1  0.26019093  0.92999932  0.42581618  1
  Te  Te134  1  0.26894961  0.88151967  0.76675968  1
  Te  Te135  1  0.56336945  0.23864461  0.09540521  1
  Te  Te136  1  0.58594790  0.26044096  0.40221115  1
  Te  Te137  1  0.57638439  0.27205200  0.76118830  1
  Te  Te138  1  0.61668531  0.59675085  0.12718208  1
  Te  Te139  1  0.60821507  0.59497915  0.37385001  1
  Te  Te140  1  0.57311204  0.56253177  0.73350522  1
  Te  Te141  1  0.60625794  0.92398227  0.07879703  1
  Te  Te142  1  0.55986875  0.87213780  0.38527645  1
  Te  Te143  1  0.58086377  0.91191325  0.74172681  1
  Te  Te144  1  0.90814708  0.24322823  0.08293141  1
  Te  Te145  1  0.92027199  0.24204185  0.43825411  1
  Te  Te146  1  0.93801209  0.25835829  0.74496806  1
  Te  Te147  1  0.92764481  0.55743807  0.08017279  1
  Te  Te148  1  0.92590423  0.58471747  0.42947434  1
  Te  Te149  1  0.93610974  0.59130110  0.74798711  1
  Te  Te150  1  0.91489677  0.90285177  0.08789616  1
  Te  Te151  1  0.86504441  0.85693716  0.45658848  1
  Te  Te152  1  0.88198758  0.90818982  0.74784562  1
  Te  Te153  1  0.27082200  0.07314434  0.24682067  1
  Te  Te154  1  0.24396742  0.08931174  0.58938695  1
  Te  Te155  1  0.22027094  0.05917163  0.91618077  1
  Te  Te156  1  0.23158925  0.44144990  0.24989660  1
  Te  Te157  1  0.20803461  0.41780506  0.56612131  1
  Te  Te158  1  0.24676776  0.41351995  0.91953445  1
  Te  Te159  1  0.25278460  0.76886369  0.26231129  1
  Te  Te160  1  0.20411986  0.75904375  0.56650838  1
  Te  Te161  1  0.24901597  0.73103989  0.92186460  1
  Te  Te162  1  0.58747064  0.06958583  0.27373691  1
  Te  Te163  1  0.57804111  0.09862743  0.59367677  1
  Te  Te164  1  0.60243347  0.06357572  0.91136829  1
  Te  Te165  1  0.55851178  0.46835200  0.28714158  1
  Te  Te166  1  0.61128655  0.43153029  0.58377225  1
  Te  Te167  1  0.59762899  0.42323869  0.92472392  1
  Te  Te168  1  0.63208548  0.69565986  0.25595600  1
  Te  Te169  1  0.54712441  0.71257201  0.54527540  1
  Te  Te170  1  0.58984322  0.73903111  0.91365436  1
  Te  Te171  1  0.93407014  0.06295588  0.26439013  1
  Te  Te172  1  0.91250162  0.04550270  0.58556421  1
  Te  Te173  1  0.89383359  0.05995283  0.92854387  1
  Te  Te174  1  0.93378125  0.42387781  0.28573723  1
  Te  Te175  1  0.90734008  0.42610156  0.57444825  1
  Te  Te176  1  0.93534226  0.43495011  0.89471135  1
  Te  Te177  1  0.88799431  0.73513048  0.26510777  1
  Te  Te178  1  0.95354185  0.70325445  0.62402933  1
  Te  Te179  1  0.90801251  0.75900742  0.90205148  1
