# generated using pymatgen
data_In2Te3
_symmetry_space_group_name_H-M   'P 1'
_cell_length_a   18.79326305
_cell_length_b   18.80661306
_cell_length_c   18.80159744
_cell_angle_alpha   90.00702786
_cell_angle_beta   89.91764709
_cell_angle_gamma   89.98332017
_symmetry_Int_Tables_number   1
_chemical_formula_structural   In2Te3
_chemical_formula_sum   'In72 Te108'
_cell_volume   6645.18477011
_cell_formula_units_Z   36
loop_
 _symmetry_equiv_pos_site_id
 _symmetry_equiv_pos_as_xyz
  1  'x, y, z'
loop_
 _atom_site_type_symbol
 _atom_site_label
 _atom_site_symmetry_multiplicity
 _atom_site_fract_x
 _atom_site_fract_y
 _atom_site_fract_z
 _atom_site_occupancy
  In  In0  1  0.68703438  0.35055659  0.35565268  1
  In  In1  1  0.00910872  0.49576545  0.85015373  1
  In  In2  1  0.17251909  0.83621423  -0.02381187  1
  In  In3  1  0.84103643  0.16762324  0.65742236  1
  In  In4  1  0.50169227  0.01177573  0.49222188  1
  In  In5  1  0.15269738  0.31867879  0.82527417  1
  In  In6  1  0.50919672  0.51028084  0.65114657  1
  In  In7  1  0.34304465  0.47967455  0.16586542  1
  In  In8  1  0.53519706  0.52598714  0.36624035  1
  In  In9  1  0.15689385  0.85619748  0.66799684  1
  In  In10  1  0.65842635  0.65939456  0.66757320  1
  In  In11  1  0.31313609  0.29608514  0.02629775  1
  In  In12  1  0.50056579  0.79497087  0.66184335  1
  In  In13  1  0.19051149  0.35324100  0.52052250  1
  In  In14  1  0.34609298  0.65426272  0.67543793  1
  In  In15  1  0.34685015  0.32597243  0.34811180  1
  In  In16  1  0.15621470  0.65576853  0.16296514  1
  In  In17  1  0.51897138  0.65860446  0.15870204  1
  In  In18  1  -0.00528780  0.34314710  0.66074577  1
  In  In19  1  0.34205075  0.16356750  0.50151073  1
  In  In20  1  -0.00312131  0.66339634  -0.01214663  1
  In  In21  1  0.65859494  0.84060924  0.16497020  1
  In  In22  1  0.00525585  0.84868623  0.49038724  1
  In  In23  1  0.49583649  0.14546955  -0.00323436  1
  In  In24  1  0.67795270  0.33100747  0.66553627  1
  In  In25  1  0.33198031  0.84139104  0.47288181  1
  In  In26  1  0.14523449  0.49260910  -0.00832763  1
  In  In27  1  -0.00333610  0.34138558  0.02281473  1
  In  In28  1  0.50036565  0.82177531  0.31825389  1
  In  In29  1  0.16281143  0.15683416  0.67985506  1
  In  In30  1  0.83898506  -0.00823144  0.84638847  1
  In  In31  1  0.81789127  0.84678310  0.66266543  1
  In  In32  1  0.84786670  0.48174666  0.67190504  1
  In  In33  1  0.15290917  0.68071297  0.49769179  1
  In  In34  1  -0.00218994  0.16140679  0.83153658  1
  In  In35  1  0.31711030  0.16210407  0.85079035  1
  In  In36  1  0.30895946  0.02040486  0.01066465  1
  In  In37  1  0.83812244  0.84140108  0.01993847  1
  In  In38  1  0.82088873  0.66632593  0.48955011  1
  In  In39  1  0.15710305  0.84113982  0.35155409  1
  In  In40  1  0.67704819  0.34261026  -0.01200729  1
  In  In41  1  -0.00354706  0.83185759  0.83965582  1
  In  In42  1  0.13878455  0.16904062  0.29596890  1
  In  In43  1  0.33234301  0.51035753  0.83322480  1
  In  In44  1  0.00277243  0.64691534  0.65864666  1
  In  In45  1  0.50305603  0.18111502  0.32407426  1
  In  In46  1  0.51213802  0.33521701  0.48003207  1
  In  In47  1  0.32321526  -0.00861987  0.67720077  1
  In  In48  1  -0.01990275  0.16118349  0.49014866  1
  In  In49  1  -0.01458659  0.49231096  0.49685378  1
  In  In50  1  0.82359411  0.50421627  -0.00191765  1
  In  In51  1  0.49941904  -0.00329397  0.85000579  1
  In  In52  1  0.83761541  0.18754835  0.01346237  1
  In  In53  1  -0.03596817  0.46991990  0.19529714  1
  In  In54  1  0.15879498  0.50297511  0.33447025  1
  In  In55  1  0.83898176  0.00009091  0.16765025  1
  In  In56  1  0.69924387  0.50884736  0.19642210  1
  In  In57  1  0.50740474  0.35619146  0.82071812  1
  In  In58  1  -0.02678585  0.82183519  0.19367491  1
  In  In59  1  0.50981207  0.84755106  -0.00267459  1
  In  In60  1  0.50108126  0.18990018  0.66022619  1
  In  In61  1  -0.02429181  0.00143850  0.34584856  1
  In  In62  1  0.32723385  0.66718490  0.34188577  1
  In  In63  1  0.48878598  0.34043310  0.16086153  1
  In  In64  1  0.68646846  -0.00016725  0.65183619  1
  In  In65  1  0.66724493  0.83109180  0.82467011  1
  In  In66  1  0.33749567  0.85474965  0.15719132  1
  In  In67  1  0.33490219  0.66579058  -0.03068530  1
  In  In68  1  0.66545378  0.66079194  0.00043356  1
  In  In69  1  0.83264702  0.16068887  0.32203765  1
  In  In70  1  0.67062197  0.15770557  0.17748218  1
  In  In71  1  0.67781092  0.00882572  0.34354807  1
  Te  Te72  1  0.14529163  0.09221904  0.09772821  1
  Te  Te73  1  0.08725245  0.08368538  0.41207171  1
  Te  Te74  1  0.08028146  0.06375724  0.75735885  1
  Te  Te75  1  0.09152828  0.42312888  0.11388788  1
  Te  Te76  1  0.08443358  0.40152756  0.42058242  1
  Te  Te77  1  0.09237864  0.42915324  0.73975021  1
  Te  Te78  1  0.07485704  0.75572006  0.08187407  1
  Te  Te79  1  0.05542611  0.73610781  0.39639169  1
  Te  Te80  1  0.08127055  0.74654759  0.74386671  1
  Te  Te81  1  0.40754158  0.08642247  0.09856022  1
  Te  Te82  1  0.40802732  0.08026655  0.39298552  1
  Te  Te83  1  0.41948468  0.09213439  0.74739920  1
  Te  Te84  1  0.41721264  0.41587863  0.05078883  1
  Te  Te85  1  0.41804773  0.43989901  0.42079795  1
  Te  Te86  1  0.40097178  0.41725004  0.72831588  1
  Te  Te87  1  0.41500073  0.74289832  0.08416830  1
  Te  Te88  1  0.43314641  0.73541202  0.42716700  1
  Te  Te89  1  0.40759087  0.75418868  0.76682374  1
  Te  Te90  1  0.74698697  0.07685919  0.07439942  1
  Te  Te91  1  0.76514075  0.08813503  0.43164672  1
  Te  Te92  1  0.75588966  0.08410075  0.75753960  1
  Te  Te93  1  0.76338320  0.40805777  0.09993270  1
  Te  Te94  1  0.78388950  0.45374982  0.39843905  1
  Te  Te95  1  0.74958287  0.41763257  0.76074856  1
  Te  Te96  1  0.75423077  0.73929424  0.09748717  1
  Te  Te97  1  0.71992435  0.73692064  0.40797290  1
  Te  Te98  1  0.76193251  0.73788401  0.75181146  1
  Te  Te99  1  0.06895790  0.26841378  0.21089003  1
  Te  Te100  1  0.08480630  0.24758150  0.58102166  1
  Te  Te101  1  0.07779939  0.24566916  0.93446254  1
  Te  Te102  1  0.05889009  0.58329523  0.25252984  1
  Te  Te103  1  0.09717502  0.56091133  0.57658648  1
  Te  Te104  1  0.10638602  0.60540722  0.89875883  1
  Te  Te105  1  0.07158810  0.92142802  0.25520014  1
  Te  Te106  1  0.08842958  0.94095201  0.56889982  1
  Te  Te107  1  0.07123349  0.92869920  0.92189543  1
  Te  Te108  1  0.39756607  0.24050959  0.23098045  1
  Te  Te109  1  0.40765673  0.27767295  0.57779625  1
  Te  Te110  1  0.42232634  0.25470677  0.91278173  1
  Te  Te111  1  0.42113055  0.58126033  0.25264867  1
  Te  Te112  1  0.42904024  0.60051280  0.56519747  1
  Te  Te113  1  0.43789568  0.57623931  0.91321026  1
  Te  Te114  1  0.41128255  0.92493209  0.26173510  1
  Te  Te115  1  0.42138796  0.91681156  0.58405792  1
  Te  Te116  1  0.39520435  0.91729175  0.92562280  1
  Te  Te117  1  0.75168794  0.26555868  0.24256033  1
  Te  Te118  1  0.75469038  0.24916600  0.56793998  1
  Te  Te119  1  0.75879924  0.25086127  0.90673864  1
  Te  Te120  1  0.79882706  0.59562344  0.26524319  1
  Te  Te121  1  0.75448479  0.56935099  0.58739458  1
  Te  Te122  1  0.74914602  0.58800221  0.90279639  1
  Te  Te123  1  0.75888211  0.90968508  0.25889913  1
  Te  Te124  1  0.74811274  0.91148204  0.55017968  1
  Te  Te125  1  0.73650028  0.91528956  0.93140423  1
  Te  Te126  1  0.20412247  0.23384480  0.11187684  1
  Te  Te127  1  0.23881188  0.24073937  0.41514722  1
  Te  Te128  1  0.26221001  0.25406280  0.74113639  1
  Te  Te129  1  0.25632230  0.57653160  0.07942786  1
  Te  Te130  1  0.24847989  0.57560335  0.43425127  1
  Te  Te131  1  0.23879447  0.57404639  0.73810628  1
  Te  Te132  1  0.21606776  0.91961257  0.09742512  1
  Te  Te133  1  0.25132370  0.94179088  0.40244604  1
  Te  Te134  1  0.23794923  0.92189845  0.77382217  1
  Te  Te135  1  0.58577825  0.24989092  0.08448748  1
  Te  Te136  1  0.60771869  0.23326724  0.41915729  1
  Te  Te137  1  0.59475134  0.24352406  0.76545515  1
  Te  Te138  1  0.59702626  0.55174594  0.08672438  1
  Te  Te139  1  0.63931460  0.60652572  0.43222479  1
  Te  Te140  1  0.57498848  0.58116619  0.76243796  1
  Te  Te141  1  0.57471666  0.93802330  0.09197762  1
  Te  Te142  1  0.58392663  0.91043100  0.41476312  1
  Te  Te143  1  0.57854685  0.92166968  0.73705776  1
  Te  Te144  1  0.93143585  0.24444109  0.11728969  1
  Te  Te145  1  0.92917318  0.25764187  0.38600686  1
  Te  Te146  1  0.91058946  0.26200613  0.75783375  1
  Te  Te147  1  0.92369211  0.57691617  0.08693245  1
  Te  Te148  1  0.91211358  0.58293898  0.40230855  1
  Te  Te149  1  0.91619813  0.58310946  0.76551434  1
  Te  Te150  1  0.94523701  0.92717894  0.08373595  1
  Te  Te151  1  0.88996869  0.90265813  0.41484677  1
  Te  Te152  1  0.92416784  0.92406609  0.73914040  1
  Te  Te153  1  0.23413159  0.08450872  0.21823428  1
  Te  Te154  1  0.24437372  0.07497882  0.57737136  1
  Te  Te155  1  0.20982675  0.09307188  0.92440125  1
  Te  Te156  1  0.24882249  0.40507018  0.25824183  1
  Te  Te157  1  0.28653011  0.41236801  0.61208124  1
  Te  Te158  1  0.24550083  0.40113804  0.92176505  1
  Te  Te159  1  0.24201474  0.75144369  0.24778452  1
  Te  Te160  1  0.25216853  0.76360141  0.57867580  1
  Te  Te161  1  0.24788781  0.74824720  0.88459685  1
  Te  Te162  1  0.57254000  0.06692574  0.24874976  1
  Te  Te163  1  0.59189703  0.09895876  0.57859073  1
  Te  Te164  1  0.59946900  0.08376411  0.91273787  1
  Te  Te165  1  0.57565288  0.41522281  0.26146725  1
  Te  Te166  1  0.60150643  0.42157337  0.56602415  1
  Te  Te167  1  0.59686365  0.43684399  0.90579611  1
  Te  Te168  1  0.60730561  0.72699546  0.26118520  1
  Te  Te169  1  0.60611533  0.75679620  0.56729708  1
  Te  Te170  1  0.57358178  0.74341988  0.90810036  1
  Te  Te171  1  0.93856996  0.09556295  0.22992419  1
  Te  Te172  1  0.91910368  0.06570305  0.58439931  1
  Te  Te173  1  0.92221412  0.08140401  0.93780782  1
  Te  Te174  1  0.89065666  0.39557755  0.30271211  1
  Te  Te175  1  0.89101254  0.38735583  0.55838834  1
  Te  Te176  1  0.90816641  0.40391943  0.91634300  1
  Te  Te177  1  0.86562034  0.73621830  0.24391871  1
  Te  Te178  1  0.92048454  0.75085547  0.58504397  1
  Te  Te179  1  0.89324006  0.74596981  0.91377656  1
