# generated using pymatgen
data_In2Te3
_symmetry_space_group_name_H-M   'P 1'
_cell_length_a   18.78798998
_cell_length_b   18.79104491
_cell_length_c   18.78443768
_cell_angle_alpha   89.95539911
_cell_angle_beta   89.97449041
_cell_angle_gamma   90.16030091
_symmetry_Int_Tables_number   1
_chemical_formula_structural   In2Te3
_chemical_formula_sum   'In72 Te108'
_cell_volume   6631.74127275
_cell_formula_units_Z   36
loop_
 _symmetry_equiv_pos_site_id
 _symmetry_equiv_pos_as_xyz
  1  'x, y, z'
loop_
 _atom_site_type_symbol
 _atom_site_label
 _atom_site_symmetry_multiplicity
 _atom_site_fract_x
 _atom_site_fract_y
 _atom_site_fract_z
 _atom_site_occupancy
  In  In0  1  0.50949978  0.36976211  0.15010130  1
  In  In1  1  0.81661388  0.85186038  0.71432927  1
  In  In2  1  0.83477102  0.82493025  -0.01325232  1
  In  In3  1  0.52120948  -0.02503709  0.14874933  1
  In  In4  1  0.14604916  0.82695614  0.68150419  1
  In  In5  1  0.51814143  0.67576610  0.51402875  1
  In  In6  1  0.84508247  0.31395911  0.50586909  1
  In  In7  1  0.52686382  -0.05208326  0.82453492  1
  In  In8  1  0.31139757  0.16441318  0.83913946  1
  In  In9  1  0.47863940  0.17341080  0.30041970  1
  In  In10  1  0.32838960  0.34421666  0.02098913  1
  In  In11  1  -0.00179557  -0.00951382  0.33699484  1
  In  In12  1  0.13968888  0.20201842  0.30670631  1
  In  In13  1  -0.00343745  0.50439051  0.15368855  1
  In  In14  1  0.67344116  0.69122389  0.68625452  1
  In  In15  1  0.32851074  0.81924869  0.15217732  1
  In  In16  1  0.00323521  0.33932941  0.66983619  1
  In  In17  1  0.67024594  0.34548844  -0.01804735  1
  In  In18  1  0.84736321  0.81523644  0.34326588  1
  In  In19  1  0.66149570  0.15901218  0.51688449  1
  In  In20  1  0.02649704  0.49939091  0.51912653  1
  In  In21  1  0.83372478  0.51433479  -0.00829112  1
  In  In22  1  0.35109513  0.17643119  0.15144035  1
  In  In23  1  0.33602945  0.65816822  0.01043030  1
  In  In24  1  0.16055345  0.15146685  -0.00593441  1
  In  In25  1  0.82589950  0.67870469  0.50465957  1
  In  In26  1  -0.02246416  0.51833025  0.84119686  1
  In  In27  1  0.67014518  0.50793534  0.83755643  1
  In  In28  1  0.34628808  0.32449206  0.69380617  1
  In  In29  1  0.30525508  -0.01151165  0.33290324  1
  In  In30  1  0.65029548  0.51431801  0.50721352  1
  In  In31  1  0.13342574  -0.03688462  0.84883357  1
  In  In32  1  0.17269712  0.49417739  0.01287028  1
  In  In33  1  0.84306255  0.34348852  0.14282893  1
  In  In34  1  0.67768661  0.15163295  0.81696747  1
  In  In35  1  0.34041135  0.67427748  0.67595520  1
  In  In36  1  0.82969803  -0.00836751  0.17055511  1
  In  In37  1  0.68712668  0.82233291  0.14689447  1
  In  In38  1  0.33550965  0.85166733  0.49516108  1
  In  In39  1  0.15151603  0.33350059  0.49095351  1
  In  In40  1  0.00376354  0.82950028  0.51580588  1
  In  In41  1  0.35223281  0.80941901  0.84648717  1
  In  In42  1  0.83314567  0.13982604  0.66462611  1
  In  In43  1  0.80995448  0.51098304  0.32822332  1
  In  In44  1  0.16046503  -0.00418542  0.15266001  1
  In  In45  1  0.33360059  0.00959213  0.67273637  1
  In  In46  1  -0.01872088  0.14594623  0.49782554  1
  In  In47  1  0.01741113  0.81204919  0.14435107  1
  In  In48  1  0.49850202  0.35852378  0.49007314  1
  In  In49  1  0.33689565  0.50614189  0.48900399  1
  In  In50  1  0.30520409  0.15825387  0.49188927  1
  In  In51  1  0.83573436  0.35560725  0.84049649  1
  In  In52  1  0.50572631  0.36286591  0.84612976  1
  In  In53  1  0.63405646  0.35142634  0.32444128  1
  In  In54  1  0.71278014  0.17150922  0.14437672  1
  In  In55  1  0.00499241  0.14494461  0.83998486  1
  In  In56  1  0.14225530  0.67719904  0.83269119  1
  In  In57  1  0.65928362  0.02285962  0.35149669  1
  In  In58  1  0.49941104  0.15252557  0.00103000  1
  In  In59  1  0.18174049  0.48698552  0.29515354  1
  In  In60  1  0.52220187  0.67688166  0.86135886  1
  In  In61  1  0.18130635  0.31730617  0.83873879  1
  In  In62  1  0.33694661  0.65782008  0.29125987  1
  In  In63  1  0.83605117  0.16150949  0.33786959  1
  In  In64  1  0.50791694  0.17197783  0.66587461  1
  In  In65  1  0.13348285  0.65629807  0.50650249  1
  In  In66  1  0.85926930  0.14286370  0.00521393  1
  In  In67  1  -0.00083693  0.65145888  0.31683926  1
  In  In68  1  0.49956602  0.01341518  0.52428900  1
  In  In69  1  0.50840049  0.81816665  0.33539832  1
  In  In70  1  0.66236516  0.66443526  0.31409468  1
  In  In71  1  0.17236993  0.51863841  0.66378875  1
  Te  Te72  1  0.06314420  0.06833436  0.06829919  1
  Te  Te73  1  0.09035265  0.09200809  0.40476682  1
  Te  Te74  1  0.09951723  0.07074045  0.75429116  1
  Te  Te75  1  0.09087545  0.39936446  0.09972848  1
  Te  Te76  1  0.07718873  0.42605418  0.39605882  1
  Te  Te77  1  0.09232365  0.42321449  0.76203215  1
  Te  Te78  1  0.11626507  0.76182045  0.04655186  1
  Te  Te79  1  0.07475544  0.75294451  0.40364215  1
  Te  Te80  1  0.03718514  0.76612901  0.76984227  1
  Te  Te81  1  0.40853057  0.05696313  0.07700160  1
  Te  Te82  1  0.41724793  0.07842338  0.41135899  1
  Te  Te83  1  0.42754769  0.08831764  0.76620070  1
  Te  Te84  1  0.40833223  0.45626128  0.08048968  1
  Te  Te85  1  0.41985667  0.43246769  0.39142861  1
  Te  Te86  1  0.41968888  0.43645866  0.75164866  1
  Te  Te87  1  0.43227777  0.75678832  0.06693729  1
  Te  Te88  1  0.40492389  0.73696435  0.41801262  1
  Te  Te89  1  0.45032234  0.75348707  0.74427193  1
  Te  Te90  1  0.74248296  0.05131083  0.05891833  1
  Te  Te91  1  0.76830228  0.07580918  0.44551698  1
  Te  Te92  1  0.78262130  0.05032390  0.77809583  1
  Te  Te93  1  0.73798946  0.43619777  0.08458642  1
  Te  Te94  1  0.74299553  0.40957172  0.42652042  1
  Te  Te95  1  0.74592938  0.42025350  0.74601208  1
  Te  Te96  1  0.76201999  0.72104463  0.06981351  1
  Te  Te97  1  0.72773148  0.75731123  0.41789698  1
  Te  Te98  1  0.76756016  0.73419470  0.79672029  1
  Te  Te99  1  0.06657941  0.27881967  0.20436113  1
  Te  Te100  1  0.07498609  0.23772536  0.58173656  1
  Te  Te101  1  0.07202741  0.25557651  0.92338960  1
  Te  Te102  1  0.10315832  0.59807333  0.21988196  1
  Te  Te103  1  0.04646544  0.60986176  0.63161872  1
  Te  Te104  1  0.07442326  0.58685106  0.93687012  1
  Te  Te105  1  0.08618200  0.90224571  0.24984720  1
  Te  Te106  1  0.07764391  0.92894936  0.59802691  1
  Te  Te107  1  0.06333634  0.86622270  0.93978726  1
  Te  Te108  1  0.40024420  0.29626788  0.24133054  1
  Te  Te109  1  0.41067614  0.24464928  0.57269403  1
  Te  Te110  1  0.41422948  0.25370044  0.92125850  1
  Te  Te111  1  0.41914566  0.56859108  0.20413285  1
  Te  Te112  1  0.42511409  0.57939920  0.58980331  1
  Te  Te113  1  0.41741186  0.58395909  0.91130779  1
  Te  Te114  1  0.42476472  0.92272155  0.25850158  1
  Te  Te115  1  0.42536876  0.90589448  0.60470276  1
  Te  Te116  1  0.42151150  0.91620144  0.92140571  1
  Te  Te117  1  0.75035571  0.26501756  0.26083033  1
  Te  Te118  1  0.74564881  0.25181414  0.60404625  1
  Te  Te119  1  0.75982973  0.23639973  0.92367316  1
  Te  Te120  1  0.76475083  0.60530077  0.22451191  1
  Te  Te121  1  0.74834964  0.58673950  0.59848266  1
  Te  Te122  1  0.76494160  0.60872451  0.89674661  1
  Te  Te123  1  0.73751339  0.91488406  0.26652357  1
  Te  Te124  1  0.72671054  0.89891308  0.60457043  1
  Te  Te125  1  0.72151184  0.89612770  0.91426461  1
  Te  Te126  1  0.23120667  0.24890455  0.08901926  1
  Te  Te127  1  0.25050357  0.26438501  0.39769581  1
  Te  Te128  1  0.23202547  0.22801919  0.72481732  1
  Te  Te129  1  0.24328295  0.58790076  0.10505079  1
  Te  Te130  1  0.23298656  0.58638286  0.41158935  1
  Te  Te131  1  0.25410321  0.59048074  0.77039945  1
  Te  Te132  1  0.25427754  0.91772245  0.06991774  1
  Te  Te133  1  0.22095589  0.91605418  0.42962167  1
  Te  Te134  1  0.25699702  0.90092871  0.75833559  1
  Te  Te135  1  0.58421728  0.25073121  0.08366783  1
  Te  Te136  1  0.58000946  0.23384189  0.41210064  1
  Te  Te137  1  0.58678892  0.26196117  0.76097502  1
  Te  Te138  1  0.55192638  0.60155124  0.13878915  1
  Te  Te139  1  0.56514365  0.58331017  0.40108509  1
  Te  Te140  1  0.57735600  0.58879576  0.74720824  1
  Te  Te141  1  0.59347265  0.88913683  0.04861237  1
  Te  Te142  1  0.57683482  0.92008858  0.42853203  1
  Te  Te143  1  0.62912099  0.90467061  0.72704987  1
  Te  Te144  1  0.93503244  0.23597075  0.09615916  1
  Te  Te145  1  0.93765760  0.25833298  0.39963039  1
  Te  Te146  1  0.91470406  0.24479942  0.75421601  1
  Te  Te147  1  0.92256484  0.60248503  0.07175204  1
  Te  Te148  1  0.91765261  0.58145106  0.42728802  1
  Te  Te149  1  0.92440357  0.58418963  0.72331285  1
  Te  Te150  1  0.92410095  0.91542772  0.07988465  1
  Te  Te151  1  0.90470618  0.91986352  0.43515189  1
  Te  Te152  1  0.90822178  0.94995436  0.78040243  1
  Te  Te153  1  0.24851519  0.09998359  0.24484619  1
  Te  Te154  1  0.23524836  0.05825681  0.57379277  1
  Te  Te155  1  0.24534134  0.05258031  0.91561258  1
  Te  Te156  1  0.27255506  0.38943283  0.23711430  1
  Te  Te157  1  0.24940883  0.41140251  0.58401534  1
  Te  Te158  1  0.26283907  0.42497155  0.90770957  1
  Te  Te159  1  0.24235964  0.76397710  0.25854911  1
  Te  Te160  1  0.24113862  0.74352602  0.58169474  1
  Te  Te161  1  0.23439044  0.75530506  0.92908143  1
  Te  Te162  1  0.59465616  0.09022362  0.23024436  1
  Te  Te163  1  0.60746224  0.06281487  0.62280161  1
  Te  Te164  1  0.58474087  0.07013157  0.90718974  1
  Te  Te165  1  0.59986632  0.46134867  0.22902285  1
  Te  Te166  1  0.58538624  0.41295954  0.59341929  1
  Te  Te167  1  0.57327196  0.45707608  0.94641542  1
  Te  Te168  1  0.56230154  0.73981119  0.21369722  1
  Te  Te169  1  0.60489596  0.77693105  0.58226356  1
  Te  Te170  1  0.61628846  0.79131156  0.91268217  1
  Te  Te171  1  0.92710140  0.08661966  0.24119236  1
  Te  Te172  1  0.92813593  0.04935207  0.59699226  1
  Te  Te173  1  0.91774226  0.04139876  0.91006202  1
  Te  Te174  1  0.91082022  0.42333066  0.25453312  1
  Te  Te175  1  0.90820176  0.42606649  0.58881428  1
  Te  Te176  1  0.93269659  0.40799724  0.94245548  1
  Te  Te177  1  0.90847547  0.73907172  0.22952860  1
  Te  Te178  1  0.89475203  0.77047357  0.60298518  1
  Te  Te179  1  0.94630737  0.76869681  0.90005876  1
