# generated using pymatgen
data_In2Te3
_symmetry_space_group_name_H-M   'P 1'
_cell_length_a   18.93015773
_cell_length_b   18.95219232
_cell_length_c   18.96141420
_cell_angle_alpha   90.18206804
_cell_angle_beta   89.96411891
_cell_angle_gamma   89.91788042
_symmetry_Int_Tables_number   1
_chemical_formula_structural   In2Te3
_chemical_formula_sum   'In72 Te108'
_cell_volume   6802.70577608
_cell_formula_units_Z   36
loop_
 _symmetry_equiv_pos_site_id
 _symmetry_equiv_pos_as_xyz
  1  'x, y, z'
loop_
 _atom_site_type_symbol
 _atom_site_label
 _atom_site_symmetry_multiplicity
 _atom_site_fract_x
 _atom_site_fract_y
 _atom_site_fract_z
 _atom_site_occupancy
  In  In0  1  0.45094806  0.50801689  0.65110258  1
  In  In1  1  0.64564709  0.50863430  0.49048686  1
  In  In2  1  0.33123876  0.83349101  0.15848409  1
  In  In3  1  0.22505222  0.47594829  0.33501058  1
  In  In4  1  0.34923610  0.80690853  0.49226186  1
  In  In5  1  0.01718839  0.33858591  0.31615770  1
  In  In6  1  0.49924704  0.65830398  0.83987708  1
  In  In7  1  0.50436833  0.82946068  0.32115270  1
  In  In8  1  0.31998023  0.17342006  0.83024825  1
  In  In9  1  0.84520710  0.81852721  0.33624053  1
  In  In10  1  0.84320906  0.66466884  0.18329258  1
  In  In11  1  0.18490888  0.83767523  0.64726952  1
  In  In12  1  0.69632488  0.66236080  0.69192108  1
  In  In13  1  -0.00398268  0.82868268  0.82392911  1
  In  In14  1  0.66466262  0.19022204  0.15648171  1
  In  In15  1  0.66640491  0.01372347  0.31348723  1
  In  In16  1  0.46943986  -0.01070140  0.87564366  1
  In  In17  1  0.17850308  0.19583929  0.32491097  1
  In  In18  1  0.83491635  -0.01944776  0.84319099  1
  In  In19  1  0.02793208  -0.01393384  0.33484789  1
  In  In20  1  0.17083203  0.50769434  -0.01034452  1
  In  In21  1  0.63339764  0.18434937  0.50902940  1
  In  In22  1  0.46057681  0.33002726  0.49234080  1
  In  In23  1  0.03261182  0.51860201  0.16362653  1
  In  In24  1  0.19247512  0.50385773  0.65196085  1
  In  In25  1  0.00130794  0.81818353  0.50755964  1
  In  In26  1  0.15473046  -0.00653835  0.82029033  1
  In  In27  1  0.19703660  0.02854354  0.47214840  1
  In  In28  1  0.66592721  0.49081174  0.18180884  1
  In  In29  1  0.81238455  -0.00161760  0.52773481  1
  In  In30  1  0.01012624  0.33663534  0.01380729  1
  In  In31  1  0.85471319  0.17004957  0.34655307  1
  In  In32  1  0.14769869  0.13576003  0.01932090  1
  In  In33  1  0.45274499  0.04975753  0.46510152  1
  In  In34  1  -0.01568902  0.83764199  0.16575232  1
  In  In35  1  0.64423761  0.83255795  0.50876029  1
  In  In36  1  0.48079619  0.80909355  0.66891401  1
  In  In37  1  -0.00549839  0.18115278  0.81308377  1
  In  In38  1  0.68433259  -0.00960490  -0.00953313  1
  In  In39  1  0.17204436  0.34836159  0.82604183  1
  In  In40  1  0.50198337  0.65675657  0.18338377  1
  In  In41  1  0.64841688  0.49058133  0.84116297  1
  In  In42  1  0.82551985  0.48793324  0.36075714  1
  In  In43  1  0.82881102  0.16789206  -0.01048696  1
  In  In44  1  0.82915891  0.17252616  0.67341020  1
  In  In45  1  0.83704557  0.66366361  0.50646326  1
  In  In46  1  0.33229672  0.00478485  0.65129022  1
  In  In47  1  0.35395989  0.33991404  0.02947291  1
  In  In48  1  0.68119508  0.84564744  0.15585112  1
  In  In49  1  0.82545391  0.49411169  -0.01865746  1
  In  In50  1  0.52248491  0.17980154  0.01135752  1
  In  In51  1  0.17525761  0.83506962  0.00715255  1
  In  In52  1  0.64352340  0.67067770  0.01886992  1
  In  In53  1  0.49541982  0.18784091  0.65888179  1
  In  In54  1  0.00415419  0.47716889  0.52237362  1
  In  In55  1  0.90897558  0.01481828  0.11709235  1
  In  In56  1  0.33853408  0.17511072  0.18263279  1
  In  In57  1  0.34518496  0.66083416  -0.01400831  1
  In  In58  1  0.65032981  -0.01158955  0.70491037  1
  In  In59  1  0.66883562  0.34997281  0.67066180  1
  In  In60  1  0.16744136  0.82729831  0.34223120  1
  In  In61  1  0.49433552  0.49256493  0.32530533  1
  In  In62  1  -0.03128958  0.63144769  0.67605284  1
  In  In63  1  0.82723725  0.31097832  0.83576687  1
  In  In64  1  0.18309807  0.68389628  0.18024626  1
  In  In65  1  0.51728952  0.01441633  0.15894324  1
  In  In66  1  0.49593255  0.34631809  0.80806171  1
  In  In67  1  -0.01850711  0.68319067  -0.02999303  1
  In  In68  1  0.83252114  0.33556747  0.16721800  1
  In  In69  1  0.01309581  0.02122089  0.65627971  1
  In  In70  1  0.07071840  0.25239439  0.49185609  1
  In  In71  1  0.16581306  0.64090683  0.81498251  1
  Te  Te72  1  0.05530622  0.05116839  0.09186961  1
  Te  Te73  1  0.07543765  0.10372257  0.42076506  1
  Te  Te74  1  0.10557569  0.11142926  0.73461249  1
  Te  Te75  1  0.11411659  0.41140886  0.09485083  1
  Te  Te76  1  0.09377707  0.43311156  0.40567171  1
  Te  Te77  1  0.08810643  0.43416384  0.73865236  1
  Te  Te78  1  0.07742980  0.73336766  0.08032699  1
  Te  Te79  1  0.09978429  0.73828863  0.43602601  1
  Te  Te80  1  0.09298995  0.75203958  0.73552567  1
  Te  Te81  1  0.41831591  0.09340006  0.07784565  1
  Te  Te82  1  0.37153866  0.11497515  0.35794145  1
  Te  Te83  1  0.42184855  0.08467144  0.75275066  1
  Te  Te84  1  0.38204707  0.42725169  0.14517110  1
  Te  Te85  1  0.38984614  0.44531667  0.42647867  1
  Te  Te86  1  0.38828704  0.38934136  0.71599608  1
  Te  Te87  1  0.42798502  0.74497702  0.08315095  1
  Te  Te88  1  0.45116068  0.72893478  0.41618957  1
  Te  Te89  1  0.39806656  0.72981920  0.75886630  1
  Te  Te90  1  0.75355709  0.07733972  0.09637913  1
  Te  Te91  1  0.74330695  0.08840872  0.42473565  1
  Te  Te92  1  0.75116576  0.08482034  0.76777451  1
  Te  Te93  1  0.74032848  0.40882521  0.07268859  1
  Te  Te94  1  0.73021815  0.40386919  0.43051385  1
  Te  Te95  1  0.76763174  0.43241524  0.75343298  1
  Te  Te96  1  0.76612433  0.74415772  0.08038624  1
  Te  Te97  1  0.74321139  0.75005800  0.42373437  1
  Te  Te98  1  0.74816177  0.76545239  0.78104898  1
  Te  Te99  1  0.08732481  0.25038042  0.22379366  1
  Te  Te100  1  0.11352508  0.32460200  0.61893745  1
  Te  Te101  1  0.09027124  0.24547816  0.91802689  1
  Te  Te102  1  0.12301087  0.57679637  0.26843455  1
  Te  Te103  1  0.08166218  0.59167188  0.58565630  1
  Te  Te104  1  0.06280520  0.57279575  0.90391882  1
  Te  Te105  1  0.10439532  0.90787507  0.22966979  1
  Te  Te106  1  0.09831805  0.93320170  0.56432021  1
  Te  Te107  1  0.07542916  0.91332653  0.92185733  1
  Te  Te108  1  0.38176399  0.25910335  0.29984864  1
  Te  Te109  1  0.39361283  0.21154041  0.55421490  1
  Te  Te110  1  0.42209002  0.24954615  0.91361892  1
  Te  Te111  1  0.39689722  0.56736702  0.23821842  1
  Te  Te112  1  0.37561298  0.59781853  0.56266855  1
  Te  Te113  1  0.42826671  0.55625528  0.92126865  1
  Te  Te114  1  0.42272489  0.92627757  0.23967863  1
  Te  Te115  1  0.42631102  0.92005109  0.56760692  1
  Te  Te116  1  0.37257351  0.91222636  0.94921152  1
  Te  Te117  1  0.75528488  0.25174071  0.26601712  1
  Te  Te118  1  0.74672135  0.25790538  0.57777248  1
  Te  Te119  1  0.72953263  0.25716634  0.93012262  1
  Te  Te120  1  0.74859024  0.58390310  0.26951890  1
  Te  Te121  1  0.75158826  0.56715953  0.58441444  1
  Te  Te122  1  0.73018650  0.59222236  0.91794064  1
  Te  Te123  1  0.77175103  0.92169516  0.25184458  1
  Te  Te124  1  0.73466855  0.90009650  0.61157949  1
  Te  Te125  1  0.73275013  0.88532513  0.89523009  1
  Te  Te126  1  0.25233662  0.23661917  0.07331953  1
  Te  Te127  1  0.21423833  0.27661578  0.44623045  1
  Te  Te128  1  0.26609290  0.27367888  0.73628838  1
  Te  Te129  1  0.25522134  0.58882669  0.08552206  1
  Te  Te130  1  0.28375430  0.56518067  0.44067341  1
  Te  Te131  1  0.27650498  0.56284225  0.75839990  1
  Te  Te132  1  0.27053713  0.93559226  0.06550281  1
  Te  Te133  1  0.27186133  0.91396870  0.41087585  1
  Te  Te134  1  0.26538310  0.91330875  0.75178448  1
  Te  Te135  1  0.55763327  0.28251131  0.11267234  1
  Te  Te136  1  0.55830551  0.25661405  0.40818145  1
  Te  Te137  1  0.59838284  0.24622611  0.75500673  1
  Te  Te138  1  0.56841795  0.55868965  0.08710142  1
  Te  Te139  1  0.56310631  0.59795787  0.40779844  1
  Te  Te140  1  0.57474160  0.56474251  0.73089496  1
  Te  Te141  1  0.57859189  0.91072216  0.06658838  1
  Te  Te142  1  0.58211596  0.93267820  0.40995708  1
  Te  Te143  1  0.54691009  0.90159991  0.77131721  1
  Te  Te144  1  0.92056583  0.24054146  0.08856026  1
  Te  Te145  1  0.93042790  0.27511433  0.42498708  1
  Te  Te146  1  0.93159339  0.28248065  0.71572232  1
  Te  Te147  1  0.91709896  0.57688791  0.07370276  1
  Te  Te148  1  0.92888735  0.57671975  0.42459167  1
  Te  Te149  1  0.86726233  0.55394534  0.74256826  1
  Te  Te150  1  0.90161491  0.88314565  0.05403043  1
  Te  Te151  1  0.91290372  0.92581287  0.42839882  1
  Te  Te152  1  0.92337084  0.92625703  0.73058755  1
  Te  Te153  1  0.24512854  0.08165101  0.25402395  1
  Te  Te154  1  0.25367203  0.10951100  0.58176436  1
  Te  Te155  1  0.24252124  0.07507058  0.91344644  1
  Te  Te156  1  0.28287135  0.36945090  0.24527405  1
  Te  Te157  1  0.23048004  0.39460848  0.55545666  1
  Te  Te158  1  0.26957850  0.41396521  0.92228573  1
  Te  Te159  1  0.28101747  0.74845974  0.27430997  1
  Te  Te160  1  0.27071849  0.72878168  0.59167301  1
  Te  Te161  1  0.23869046  0.73937660  0.90984615  1
  Te  Te162  1  0.57249551  0.11665273  0.25664729  1
  Te  Te163  1  0.58181543  0.07135809  0.59487894  1
  Te  Te164  1  0.58654176  0.07896567  0.91587418  1
  Te  Te165  1  0.58051448  0.39428414  0.25328128  1
  Te  Te166  1  0.56021529  0.41103973  0.58422514  1
  Te  Te167  1  0.54824058  0.42126746  0.92443450  1
  Te  Te168  1  0.60883586  0.74870701  0.24607525  1
  Te  Te169  1  0.58704773  0.72629991  0.59850787  1
  Te  Te170  1  0.56574640  0.75493042  0.92880957  1
  Te  Te171  1  0.93401142  0.07974651  0.25591389  1
  Te  Te172  1  0.91694724  0.10160426  0.57115580  1
  Te  Te173  1  0.92649229  0.08460122  0.90850405  1
  Te  Te174  1  0.92030074  0.43831565  0.23769683  1
  Te  Te175  1  0.92339845  0.37763621  0.59092831  1
  Te  Te176  1  0.92471835  0.40431872  0.90930703  1
  Te  Te177  1  0.94984561  0.73108937  0.26929132  1
  Te  Te178  1  0.90683376  0.75442882  0.60570735  1
  Te  Te179  1  0.88902047  0.73224867  0.86449820  1
