# generated using pymatgen
data_In2Te3
_symmetry_space_group_name_H-M   'P 1'
_cell_length_a   18.81120326
_cell_length_b   18.82493747
_cell_length_c   18.83344425
_cell_angle_alpha   90.04353800
_cell_angle_beta   89.98920663
_cell_angle_gamma   90.03474949
_symmetry_Int_Tables_number   1
_chemical_formula_structural   In2Te3
_chemical_formula_sum   'In72 Te108'
_cell_volume   6669.29082999
_cell_formula_units_Z   36
loop_
 _symmetry_equiv_pos_site_id
 _symmetry_equiv_pos_as_xyz
  1  'x, y, z'
loop_
 _atom_site_type_symbol
 _atom_site_label
 _atom_site_symmetry_multiplicity
 _atom_site_fract_x
 _atom_site_fract_y
 _atom_site_fract_z
 _atom_site_occupancy
  In  In0  1  0.17373055  0.84499268  0.33308369  1
  In  In1  1  0.82740326  0.19524592  -0.00988902  1
  In  In2  1  0.80606512  0.83409343  0.02517950  1
  In  In3  1  0.31544172  0.50611947  0.83822486  1
  In  In4  1  0.18822200  -0.02704087  0.17326988  1
  In  In5  1  0.66748330  0.16994264  0.15757784  1
  In  In6  1  0.17501889  0.17244247  -0.01873585  1
  In  In7  1  0.83802941  0.52087323  0.33289634  1
  In  In8  1  -0.04024651  0.66130885  -0.00607454  1
  In  In9  1  0.52180750  0.51297918  0.01605037  1
  In  In10  1  -0.02056495  0.66324592  0.65549032  1
  In  In11  1  0.36771041  0.52130173  0.16368285  1
  In  In12  1  -0.02430818  0.86320252  0.83906616  1
  In  In13  1  -0.02190891  0.51443925  0.16479246  1
  In  In14  1  -0.00862745  0.46961744  0.49654131  1
  In  In15  1  0.80784320  0.00074468  0.19631288  1
  In  In16  1  0.50475649  0.32555305  0.81674985  1
  In  In17  1  0.82449726  0.67332904  0.49251141  1
  In  In18  1  0.65123530  0.47831387  0.51180284  1
  In  In19  1  0.78383312  -0.02236778  0.49953351  1
  In  In20  1  0.37619358  0.85570157  0.86075877  1
  In  In21  1  0.19563474  0.83291886  0.00107513  1
  In  In22  1  0.16541636  0.50440225  0.35763396  1
  In  In23  1  0.81100301  0.31610874  0.81982726  1
  In  In24  1  0.52795423  0.86616247  0.64658592  1
  In  In25  1  0.15577114  0.15479542  0.65388531  1
  In  In26  1  0.17319897  0.32515648  0.18408480  1
  In  In27  1  0.66114698  0.32092199  0.33440021  1
  In  In28  1  0.51443935  0.13538764  0.63925753  1
  In  In29  1  -0.00124548  0.34434236  -0.02187040  1
  In  In30  1  0.82244496  0.85269203  0.32942208  1
  In  In31  1  0.35104411  0.71263500  -0.00804691  1
  In  In32  1  0.65800855  0.68615680  0.31596769  1
  In  In33  1  0.53763928  0.51448974  0.68290576  1
  In  In34  1  -0.01890982  0.13742356  0.18272168  1
  In  In35  1  0.63021987  0.00815174  -0.00669250  1
  In  In36  1  0.16718790  0.79826980  0.66142325  1
  In  In37  1  0.34169338  0.49597712  0.49112647  1
  In  In38  1  0.17863641  0.15952490  0.32494897  1
  In  In39  1  0.34914134  0.31310786  0.65783456  1
  In  In40  1  0.36553773  0.84563011  0.18291356  1
  In  In41  1  0.34857864  0.36710941  -0.01020665  1
  In  In42  1  0.33148699  0.67290378  0.66458002  1
  In  In43  1  0.19035883  0.00970093  0.50366436  1
  In  In44  1  -0.00194521  0.82042444  0.49933538  1
  In  In45  1  0.66607986  0.31965301  -0.00442852  1
  In  In46  1  0.80356512  0.15950064  0.67039095  1
  In  In47  1  0.34604188  0.16240640  0.81378133  1
  In  In48  1  0.47703257  0.68881258  0.47055613  1
  In  In49  1  0.17979185  0.00403386  0.82040044  1
  In  In50  1  0.50818997  0.49449964  0.31580650  1
  In  In51  1  0.35596560  0.16015885  0.16929104  1
  In  In52  1  0.34431631  -0.01540428  0.64398960  1
  In  In53  1  0.80555659  0.00384807  0.85405801  1
  In  In54  1  0.81355749  0.48303150  0.67183126  1
  In  In55  1  -0.02653611  0.50035754  0.83797227  1
  In  In56  1  0.16332409  0.47662296  0.67454921  1
  In  In57  1  0.83331903  0.31107035  0.51798263  1
  In  In58  1  0.15870699  0.50121915  -0.01521315  1
  In  In59  1  0.50061865  -0.00022729  0.16822736  1
  In  In60  1  0.33977547  0.32431341  0.33183878  1
  In  In61  1  0.51590173  0.68630144  0.83952732  1
  In  In62  1  0.82453843  0.35103614  0.16962102  1
  In  In63  1  -0.00038081  0.82511566  0.18871220  1
  In  In64  1  0.79938814  0.70303999  0.16523347  1
  In  In65  1  0.16943966  0.65617891  0.15512286  1
  In  In66  1  0.67083332  0.70314392  0.69575148  1
  In  In67  1  0.00116643  0.17592184  0.50288240  1
  In  In68  1  0.19168263  0.66330953  0.50212123  1
  In  In69  1  -0.00837100  0.02523241  0.00771523  1
  In  In70  1  -0.01639673  -0.00418869  0.66608603  1
  In  In71  1  0.50171650  0.14029548  0.36357798  1
  Te  Te72  1  0.10734917  0.08691510  0.09675531  1
  Te  Te73  1  0.08646014  0.07901750  0.41839871  1
  Te  Te74  1  0.06727618  0.08438324  0.75790141  1
  Te  Te75  1  0.08347936  0.42264368  0.09261596  1
  Te  Te76  1  0.08900457  0.39435211  0.41658930  1
  Te  Te77  1  0.06623897  0.41178902  0.76462449  1
  Te  Te78  1  0.07978999  0.75429358  0.07517035  1
  Te  Te79  1  0.09330263  0.74123975  0.41166754  1
  Te  Te80  1  0.05235748  0.75819901  0.75404095  1
  Te  Te81  1  0.43973654  0.09202621  0.06855267  1
  Te  Te82  1  0.41300750  0.04399093  0.43289566  1
  Te  Te83  1  0.43228501  0.05322561  0.74937522  1
  Te  Te84  1  0.44443463  0.40631419  0.10039392  1
  Te  Te85  1  0.43873049  0.40442161  0.41832183  1
  Te  Te86  1  0.41031429  0.43278729  0.74467363  1
  Te  Te87  1  0.45023610  0.76188461  0.08955823  1
  Te  Te88  1  0.42367939  0.79832078  0.38899818  1
  Te  Te89  1  0.42888710  0.76596586  0.74192515  1
  Te  Te90  1  0.76401798  0.07724256  0.07114823  1
  Te  Te91  1  0.71374683  0.09264070  0.42956493  1
  Te  Te92  1  0.71533717  0.06836999  0.75250718  1
  Te  Te93  1  0.71646472  0.41895558  0.09549134  1
  Te  Te94  1  0.76003914  0.42135827  0.42048155  1
  Te  Te95  1  0.71629140  0.40495739  0.74953684  1
  Te  Te96  1  0.70042074  0.71819244  0.04709033  1
  Te  Te97  1  0.72996408  0.76881201  0.42195861  1
  Te  Te98  1  0.77940456  0.75089432  0.77970118  1
  Te  Te99  1  0.06948643  0.24373849  0.25603864  1
  Te  Te100  1  0.08863582  0.26385464  0.58216796  1
  Te  Te101  1  0.07197033  0.24167327  0.90262000  1
  Te  Te102  1  0.07968788  0.58548493  0.25474631  1
  Te  Te103  1  0.08797397  0.58108263  0.58057508  1
  Te  Te104  1  0.07153725  0.59919645  0.90922913  1
  Te  Te105  1  0.07017424  0.93647883  0.26402197  1
  Te  Te106  1  0.09072105  0.91531708  0.58957410  1
  Te  Te107  1  0.08890273  0.92658250  0.92725237  1
  Te  Te108  1  0.44528013  0.24422398  0.25812715  1
  Te  Te109  1  0.42868973  0.23235095  0.56374955  1
  Te  Te110  1  0.41745751  0.25163754  0.91748838  1
  Te  Te111  1  0.43245706  0.61381955  0.26203696  1
  Te  Te112  1  0.42671636  0.58009122  0.58763358  1
  Te  Te113  1  0.41972318  0.58529840  0.91671518  1
  Te  Te114  1  0.45091716  0.91474187  0.28712513  1
  Te  Te115  1  0.44387909  0.93500620  0.54118129  1
  Te  Te116  1  0.49138583  0.92013807  0.93395382  1
  Te  Te117  1  0.76348756  0.23935388  0.25419658  1
  Te  Te118  1  0.71897146  0.24825787  0.58574922  1
  Te  Te119  1  0.71479437  0.21796275  0.89200836  1
  Te  Te120  1  0.73619967  0.57990273  0.23980670  1
  Te  Te121  1  0.73878331  0.58753709  0.58462645  1
  Te  Te122  1  0.81674950  0.56192371  0.93133760  1
  Te  Te123  1  0.71461008  0.88811774  0.22924582  1
  Te  Te124  1  0.69659251  0.91168395  0.61104096  1
  Te  Te125  1  0.71489694  0.89869209  0.91847669  1
  Te  Te126  1  0.26456635  0.25951712  0.08140582  1
  Te  Te127  1  0.25409631  0.24405319  0.41877717  1
  Te  Te128  1  0.24228755  0.24894941  0.74649701  1
  Te  Te129  1  0.26543588  0.58343810  0.06054113  1
  Te  Te130  1  0.28049931  0.59856511  0.39614493  1
  Te  Te131  1  0.22997026  0.59488982  0.74913694  1
  Te  Te132  1  0.29218705  0.92582013  0.07159286  1
  Te  Te133  1  0.27108040  0.92771708  0.41007702  1
  Te  Te134  1  0.25829662  0.90091748  0.74200082  1
  Te  Te135  1  0.56950473  0.23004924  0.06543597  1
  Te  Te136  1  0.59285604  0.23685772  0.43528224  1
  Te  Te137  1  0.58037946  0.22795213  0.73644498  1
  Te  Te138  1  0.58500564  0.61889730  0.09679774  1
  Te  Te139  1  0.58836249  0.58496039  0.42000636  1
  Te  Te140  1  0.62108248  0.58706867  0.78664686  1
  Te  Te141  1  0.60715291  0.91252673  0.10699534  1
  Te  Te142  1  0.64228996  0.95260481  0.43855684  1
  Te  Te143  1  0.62436806  0.92664511  0.74312940  1
  Te  Te144  1  0.92904020  0.25367726  0.09021201  1
  Te  Te145  1  0.90469546  0.24037080  0.41086867  1
  Te  Te146  1  0.90765035  0.23856055  0.74163135  1
  Te  Te147  1  0.86616362  0.57782167  0.08107995  1
  Te  Te148  1  0.93573965  0.59288803  0.42561845  1
  Te  Te149  1  0.88479352  0.59306380  0.75322742  1
  Te  Te150  1  0.91868189  0.91878406  0.09110548  1
  Te  Te151  1  0.91428020  0.92385274  0.42691972  1
  Te  Te152  1  0.87485300  0.92146864  0.74085672  1
  Te  Te153  1  0.27787317  0.06453465  0.25771522  1
  Te  Te154  1  0.27986893  0.10728999  0.57911835  1
  Te  Te155  1  0.27287304  0.07290743  0.91856651  1
  Te  Te156  1  0.26091030  0.43526417  0.24446999  1
  Te  Te157  1  0.25315775  0.40461453  0.57422238  1
  Te  Te158  1  0.22867939  0.39631773  0.89937202  1
  Te  Te159  1  0.25246260  0.75473603  0.23553959  1
  Te  Te160  1  0.27968786  0.77340838  0.56033306  1
  Te  Te161  1  0.25175166  0.75344494  0.88604543  1
  Te  Te162  1  0.59646773  0.07977581  0.25632503  1
  Te  Te163  1  0.61621222  0.06243133  0.54880228  1
  Te  Te164  1  0.53455394  0.05875519  0.89135724  1
  Te  Te165  1  0.60114853  0.41217777  0.23313478  1
  Te  Te166  1  0.56900614  0.39568694  0.60127195  1
  Te  Te167  1  0.58279490  0.41929981  0.91238968  1
  Te  Te168  1  0.54580828  0.72364034  0.22513358  1
  Te  Te169  1  0.57518271  0.73699503  0.58027793  1
  Te  Te170  1  0.60238299  0.76182775  0.93049416  1
  Te  Te171  1  0.89547749  0.07797244  0.28635308  1
  Te  Te172  1  0.89748477  0.07644313  0.57063375  1
  Te  Te173  1  0.91413372  0.10063027  0.90267527  1
  Te  Te174  1  0.92511627  0.41358205  0.26658950  1
  Te  Te175  1  0.92356590  0.39745213  0.61042076  1
  Te  Te176  1  0.86969393  0.41909736  0.93257813  1
  Te  Te177  1  0.90662735  0.73809233  0.27039596  1
  Te  Te178  1  0.88878576  0.77020253  0.59259760  1
  Te  Te179  1  0.87982160  0.75977976  0.90587931  1
