# generated using pymatgen
data_In2Te3
_symmetry_space_group_name_H-M   'P 1'
_cell_length_a   18.92644388
_cell_length_b   18.91580804
_cell_length_c   18.92692054
_cell_angle_alpha   90.30454260
_cell_angle_beta   89.77238065
_cell_angle_gamma   89.98534365
_symmetry_Int_Tables_number   1
_chemical_formula_structural   In2Te3
_chemical_formula_sum   'In72 Te108'
_cell_volume   6775.85805563
_cell_formula_units_Z   36
loop_
 _symmetry_equiv_pos_site_id
 _symmetry_equiv_pos_as_xyz
  1  'x, y, z'
loop_
 _atom_site_type_symbol
 _atom_site_label
 _atom_site_symmetry_multiplicity
 _atom_site_fract_x
 _atom_site_fract_y
 _atom_site_fract_z
 _atom_site_occupancy
  In  In0  1  0.16748445  -0.00010358  0.49431244  1
  In  In1  1  0.16237829  0.49525126  0.64940529  1
  In  In2  1  0.32114945  0.65386777  -0.00909217  1
  In  In3  1  0.35254797  0.00786706  0.33251196  1
  In  In4  1  -0.02866174  0.69146315  -0.02073244  1
  In  In5  1  0.81557070  0.36055967  0.82972260  1
  In  In6  1  0.63196585  0.48240392  0.52992225  1
  In  In7  1  0.20796705  0.14909311  0.68686008  1
  In  In8  1  0.83782164  0.66432392  0.50293560  1
  In  In9  1  0.51410921  0.32873630  0.82755972  1
  In  In10  1  0.83139252  0.01197769  0.85480011  1
  In  In11  1  0.00768703  0.14715895  0.51424728  1
  In  In12  1  0.81711037  0.34168519  0.49707687  1
  In  In13  1  -0.01810816  0.83621486  0.16442802  1
  In  In14  1  0.50100779  0.18216375  0.32996811  1
  In  In15  1  0.18608444  0.68109721  0.83041148  1
  In  In16  1  0.23368492  0.85007633  0.68898922  1
  In  In17  1  0.67304276  0.67992316  -0.00401124  1
  In  In18  1  -0.02997408  0.31098430  -0.01473780  1
  In  In19  1  0.00927399  0.16024645  0.82618705  1
  In  In20  1  0.16442426  0.50735322  0.34243007  1
  In  In21  1  0.12711412  0.85617771  -0.03760130  1
  In  In22  1  0.18502647  0.28424290  0.81754286  1
  In  In23  1  0.38346241  0.16745675  0.52562543  1
  In  In24  1  0.00293108  0.32760026  0.65776179  1
  In  In25  1  0.46405392  0.69082868  0.78647864  1
  In  In26  1  0.32691277  0.64419662  0.33020470  1
  In  In27  1  0.49308424  0.64719428  0.18610276  1
  In  In28  1  0.00174413  0.81751296  0.48124485  1
  In  In29  1  0.13957894  0.66700633  0.19134135  1
  In  In30  1  0.81473123  0.17507791  0.31984135  1
  In  In31  1  0.63483101  0.30575452  0.00923025  1
  In  In32  1  0.14951132  0.82939996  0.32374323  1
  In  In33  1  0.37457097  0.14502269  0.81451552  1
  In  In34  1  0.29817798  0.01584559  -0.00439428  1
  In  In35  1  -0.00603315  0.32046411  0.31615270  1
  In  In36  1  0.64836079  0.51653787  0.81073268  1
  In  In37  1  0.63473366  0.12268467  0.84860433  1
  In  In38  1  0.63993162  0.46753304  0.17369054  1
  In  In39  1  0.82389425  0.86202361  0.68720624  1
  In  In40  1  0.38544547  0.51566885  0.52890659  1
  In  In41  1  0.32425413  0.86335998  0.13557527  1
  In  In42  1  0.66724330  0.81564511  0.16849548  1
  In  In43  1  0.51195882  0.83363966  0.39022073  1
  In  In44  1  0.82062916  0.16452554  -0.00333551  1
  In  In45  1  0.33677958  0.16922579  0.17795100  1
  In  In46  1  0.82939188  0.01563333  0.49532617  1
  In  In47  1  -0.02521838  -0.00028032  0.66780889  1
  In  In48  1  0.34891904  0.50450011  0.80304574  1
  In  In49  1  0.49293520  0.83726467  -0.00625154  1
  In  In50  1  0.82210696  0.00219899  0.15148916  1
  In  In51  1  0.15585626  0.17791561  0.32392615  1
  In  In52  1  0.00791636  0.52620236  0.81163402  1
  In  In53  1  0.18200132  0.47885152  0.00030885  1
  In  In54  1  0.37344725  0.33818439  -0.00719302  1
  In  In55  1  0.36310292  0.31977158  0.34177424  1
  In  In56  1  0.64638722  0.00395354  0.66200736  1
  In  In57  1  0.81597978  0.66648518  0.17284571  1
  In  In58  1  -0.01006151  0.68222870  0.71691507  1
  In  In59  1  0.80329439  0.49867726  0.00260555  1
  In  In60  1  0.67472603  0.21197018  0.49969374  1
  In  In61  1  -0.00504198  0.51452116  0.50405419  1
  In  In62  1  -0.04016414  0.46227190  0.16423500  1
  In  In63  1  0.82587847  0.83679818  0.31753763  1
  In  In64  1  0.35744632  0.85311942  0.52588568  1
  In  In65  1  0.19684486  0.32997975  0.49446038  1
  In  In66  1  0.16206130  0.30417898  0.17547530  1
  In  In67  1  0.34353631  0.47310762  0.16913607  1
  In  In68  1  0.65763937  0.87231949  0.82924514  1
  In  In69  1  0.65325488  0.63264280  0.36555437  1
  In  In70  1  0.50843076  0.01319624  0.18091463  1
  In  In71  1  0.65206075  0.70910737  0.62896485  1
  Te  Te72  1  0.18119411  0.06603777  0.07478523  1
  Te  Te73  1  0.07419747  0.07245337  0.40013104  1
  Te  Te74  1  0.09854788  0.05662777  0.74701808  1
  Te  Te75  1  0.08265290  0.40357056  0.08813582  1
  Te  Te76  1  0.08143870  0.39787827  0.42261860  1
  Te  Te77  1  0.09662234  0.40479408  0.75940678  1
  Te  Te78  1  0.08609204  0.73933786  0.07036389  1
  Te  Te79  1  0.09028019  0.72528598  0.40783914  1
  Te  Te80  1  0.11012424  0.77686764  0.74436835  1
  Te  Te81  1  0.41276398  0.07642408  0.08438034  1
  Te  Te82  1  0.45275099  0.07227750  0.42413690  1
  Te  Te83  1  0.41574243  0.04364461  0.71008362  1
  Te  Te84  1  0.44390791  0.44419907  0.06602207  1
  Te  Te85  1  0.43428039  0.39342673  0.44731450  1
  Te  Te86  1  0.45251968  0.42416528  0.72889903  1
  Te  Te87  1  0.41987286  0.73434162  0.08491974  1
  Te  Te88  1  0.39848901  0.73890288  0.42528284  1
  Te  Te89  1  0.36428380  0.79429769  0.75419297  1
  Te  Te90  1  0.72668971  0.08695820  0.07783287  1
  Te  Te91  1  0.72894053  0.09323824  0.41410673  1
  Te  Te92  1  0.74613519  0.08097981  0.75192569  1
  Te  Te93  1  0.74024461  0.39214916  0.08562859  1
  Te  Te94  1  0.74093628  0.44977756  0.43457827  1
  Te  Te95  1  0.72189402  0.41419987  0.73026123  1
  Te  Te96  1  0.77343224  0.76774546  0.06882393  1
  Te  Te97  1  0.74742900  0.74430002  0.41061035  1
  Te  Te98  1  0.73315089  0.75867275  0.74724603  1
  Te  Te99  1  0.04994644  0.21292189  0.21979263  1
  Te  Te100  1  0.11033270  0.23600361  0.58990340  1
  Te  Te101  1  0.09146041  0.23917562  0.93132715  1
  Te  Te102  1  0.05668662  0.55333008  0.24768323  1
  Te  Te103  1  0.07071830  0.60369119  0.59928592  1
  Te  Te104  1  0.10601156  0.58135704  0.91828159  1
  Te  Te105  1  0.06838243  0.92272954  0.24696829  1
  Te  Te106  1  0.06785481  0.91992589  0.57558899  1
  Te  Te107  1  0.11656804  0.97531634  0.88034345  1
  Te  Te108  1  0.44140431  0.27812240  0.21324316  1
  Te  Te109  1  0.48479993  0.24053677  0.60908237  1
  Te  Te110  1  0.44740914  0.22713415  0.92346534  1
  Te  Te111  1  0.42815322  0.54283631  0.27530782  1
  Te  Te112  1  0.43090762  0.61536132  0.62948033  1
  Te  Te113  1  0.42611170  0.59168743  0.90066884  1
  Te  Te114  1  0.42455292  0.90205069  0.24918926  1
  Te  Te115  1  0.45399168  0.93471206  0.60270852  1
  Te  Te116  1  0.41455629  0.94005143  0.91852377  1
  Te  Te117  1  0.74037474  0.29520604  0.28122559  1
  Te  Te118  1  0.74617909  0.27926880  0.61132665  1
  Te  Te119  1  0.73702594  0.25264200  0.90259743  1
  Te  Te120  1  0.73210456  0.56829757  0.24867285  1
  Te  Te121  1  0.73535069  0.58997308  0.58545354  1
  Te  Te122  1  0.75254588  0.59343037  0.89848534  1
  Te  Te123  1  0.72453974  0.92653370  0.25453022  1
  Te  Te124  1  0.74208457  0.91548184  0.57037111  1
  Te  Te125  1  0.74690725  0.92129724  0.93348886  1
  Te  Te126  1  0.26834602  0.26154395  0.07786735  1
  Te  Te127  1  0.27335528  0.21536976  0.42005271  1
  Te  Te128  1  0.30402155  0.25792604  0.72964763  1
  Te  Te129  1  0.24579211  0.57361410  0.10760739  1
  Te  Te130  1  0.26125000  0.56421062  0.44212531  1
  Te  Te131  1  0.25342496  0.59236313  0.72590204  1
  Te  Te132  1  0.18577077  0.91851221  0.09508031  1
  Te  Te133  1  0.25883779  0.91216481  0.40694417  1
  Te  Te134  1  0.31062254  0.94745466  0.77260259  1
  Te  Te135  1  0.56474884  0.24249291  0.12129774  1
  Te  Te136  1  0.57322476  0.28583925  0.41357244  1
  Te  Te137  1  0.57651060  0.21688502  0.74928901  1
  Te  Te138  1  0.59393090  0.58791958  0.08599274  1
  Te  Te139  1  0.54687442  0.57525953  0.45011281  1
  Te  Te140  1  0.56380186  0.60073932  0.70949391  1
  Te  Te141  1  0.58307036  0.91296016  0.08849325  1
  Te  Te142  1  0.60867159  0.91780532  0.46173054  1
  Te  Te143  1  0.55764848  0.89828850  0.72188849  1
  Te  Te144  1  0.89118352  0.25394848  0.09229320  1
  Te  Te145  1  0.92441476  0.24412334  0.43218031  1
  Te  Te146  1  0.91608668  0.26000857  0.76193975  1
  Te  Te147  1  0.91487503  0.58575484  0.07570252  1
  Te  Te148  1  0.90536599  0.57471690  0.40678144  1
  Te  Te149  1  0.89475268  0.56972600  0.73083757  1
  Te  Te150  1  0.91815052  0.92379151  0.06787913  1
  Te  Te151  1  0.91361493  0.91951040  0.41067458  1
  Te  Te152  1  0.92825426  0.91462839  0.78376567  1
  Te  Te153  1  0.24304990  0.07273473  0.25026223  1
  Te  Te154  1  0.27490249  0.06801439  0.57562665  1
  Te  Te155  1  0.25113653  0.11594343  0.89346161  1
  Te  Te156  1  0.24434323  0.39665945  0.27028806  1
  Te  Te157  1  0.27655120  0.41316916  0.58959933  1
  Te  Te158  1  0.26836132  0.40873625  0.89667682  1
  Te  Te159  1  0.26076029  0.74741965  0.23792348  1
  Te  Te160  1  0.24597065  0.76782029  0.56677917  1
  Te  Te161  1  0.25658884  0.77384533  0.92879070  1
  Te  Te162  1  0.59805232  0.12194509  0.23215742  1
  Te  Te163  1  0.58897190  0.11179055  0.57664276  1
  Te  Te164  1  0.55181630  0.01435844  0.90112137  1
  Te  Te165  1  0.60768078  0.37831550  0.28839469  1
  Te  Te166  1  0.54646668  0.38524005  0.60696828  1
  Te  Te167  1  0.59180144  0.42418279  0.91733627  1
  Te  Te168  1  0.58096441  0.73961258  0.26960718  1
  Te  Te169  1  0.57278657  0.77918695  0.52333373  1
  Te  Te170  1  0.57502154  0.74830332  0.90140991  1
  Te  Te171  1  0.89886505  0.07418240  0.25576465  1
  Te  Te172  1  0.89005646  0.10713694  0.60224424  1
  Te  Te173  1  0.93742914  0.08482416  0.93662003  1
  Te  Te174  1  0.87529635  0.39454758  0.26527701  1
  Te  Te175  1  0.91125120  0.42638430  0.59434322  1
  Te  Te176  1  0.92404249  0.43860849  0.91763456  1
  Te  Te177  1  0.92193732  0.73334252  0.25799221  1
  Te  Te178  1  0.90731171  0.76793586  0.59448002  1
  Te  Te179  1  0.92679021  0.73480521  0.84917052  1
