# generated using pymatgen
data_In2Te3
_symmetry_space_group_name_H-M   'P 1'
_cell_length_a   18.91174065
_cell_length_b   18.90446940
_cell_length_c   18.90342589
_cell_angle_alpha   89.80619717
_cell_angle_beta   90.00572565
_cell_angle_gamma   89.91718310
_symmetry_Int_Tables_number   1
_chemical_formula_structural   In2Te3
_chemical_formula_sum   'In72 Te108'
_cell_volume   6758.23943847
_cell_formula_units_Z   36
loop_
 _symmetry_equiv_pos_site_id
 _symmetry_equiv_pos_as_xyz
  1  'x, y, z'
loop_
 _atom_site_type_symbol
 _atom_site_label
 _atom_site_symmetry_multiplicity
 _atom_site_fract_x
 _atom_site_fract_y
 _atom_site_fract_z
 _atom_site_occupancy
  In  In0  1  0.15749257  0.81187552  0.00478790  1
  In  In1  1  0.34163710  0.83321640  0.52566301  1
  In  In2  1  -0.01386346  0.86197292  0.83029618  1
  In  In3  1  0.84737185  0.65729362  0.50154469  1
  In  In4  1  0.34390492  0.84398568  0.19395918  1
  In  In5  1  0.49582807  0.33552843  0.52588455  1
  In  In6  1  0.49538361  0.83860611  -0.01442934  1
  In  In7  1  0.00117974  0.02316859  0.66252565  1
  In  In8  1  0.15167240  -0.01180090  0.16216917  1
  In  In9  1  0.51500370  0.65990690  0.16530533  1
  In  In10  1  0.64597989  0.01292555  -0.04950564  1
  In  In11  1  0.00344560  0.66140878  0.66713497  1
  In  In12  1  0.00673664  0.33474596  -0.00426788  1
  In  In13  1  0.79065768  -0.00564718  0.82375858  1
  In  In14  1  0.17820222  0.67044107  0.82932126  1
  In  In15  1  0.49085049  -0.00359695  0.53613709  1
  In  In16  1  0.35911992  -0.00091081  0.34427942  1
  In  In17  1  0.83028157  0.81918847  0.33174733  1
  In  In18  1  0.52991964  0.50100011  0.32768450  1
  In  In19  1  0.63041565  0.71152380  0.64956715  1
  In  In20  1  0.18463258  0.32043272  0.16312131  1
  In  In21  1  0.18109378  0.02944212  0.55263429  1
  In  In22  1  0.34411495  0.66068229  0.36980892  1
  In  In23  1  0.35966994  0.62631639  -0.05271166  1
  In  In24  1  0.38319512  0.34711843  -0.01388993  1
  In  In25  1  0.83661453  0.86688724  -0.00584064  1
  In  In26  1  0.63904267  0.50030246  0.52621624  1
  In  In27  1  0.81069340  0.47901533  -0.03480193  1
  In  In28  1  0.65650980  0.49552529  0.12385492  1
  In  In29  1  0.19519979  0.81706435  0.36855661  1
  In  In30  1  0.50698851  0.31957061  0.80973079  1
  In  In31  1  -0.01527780  0.02132206  0.00853747  1
  In  In32  1  0.63708155  0.66507407  -0.00484520  1
  In  In33  1  0.84992090  0.50557127  0.33711483  1
  In  In34  1  0.66008618  0.15835917  0.51059012  1
  In  In35  1  0.84658809  0.64542656  0.15460530  1
  In  In36  1  0.34559584  0.02540335  -0.01076637  1
  In  In37  1  0.21124085  0.02394009  0.76684425  1
  In  In38  1  0.19037857  0.49358585  0.00130915  1
  In  In39  1  0.78637011  -0.00639348  0.53556075  1
  In  In40  1  0.00675588  0.79121943  0.14468525  1
  In  In41  1  0.68549831  0.65798159  0.35429039  1
  In  In42  1  0.65007044  0.51731030  0.81460695  1
  In  In43  1  0.82281381  0.18886941  0.67987810  1
  In  In44  1  0.63499093  0.01314065  0.38346276  1
  In  In45  1  0.82781084  0.49290104  0.67681142  1
  In  In46  1  0.16679248  0.64720953  0.50745108  1
  In  In47  1  0.17328958  0.46396624  0.68624987  1
  In  In48  1  0.83329953  0.17862528  -0.02397542  1
  In  In49  1  0.83017231  0.32226154  0.48527326  1
  In  In50  1  0.00743539  0.47224272  0.82108644  1
  In  In51  1  0.49608221  0.16193064  0.32916631  1
  In  In52  1  0.30006488  0.33105423  0.34532353  1
  In  In53  1  0.67528127  0.18134149  0.16286197  1
  In  In54  1  0.16667650  0.34243178  0.84798139  1
  In  In55  1  0.32569718  0.17171230  0.15293668  1
  In  In56  1  0.17233593  0.15735211  0.35404423  1
  In  In57  1  0.02562913  0.16927090  0.15701853  1
  In  In58  1  0.00261493  0.85365101  0.50474109  1
  In  In59  1  0.35565685  0.68916066  0.66912231  1
  In  In60  1  0.81878290  0.02404906  0.18110029  1
  In  In61  1  0.01909172  0.44307145  0.47194822  1
  In  In62  1  0.64458645  0.31684088  -0.00232256  1
  In  In63  1  0.65736564  0.82222471  0.15059889  1
  In  In64  1  0.34507548  0.32587738  0.67445904  1
  In  In65  1  0.66578782  0.34847334  0.31492856  1
  In  In66  1  0.34526946  0.49976889  0.51744080  1
  In  In67  1  0.01112697  -0.01797378  0.32540875  1
  In  In68  1  0.03652308  0.48289799  0.24084513  1
  In  In69  1  0.01474984  0.19658710  0.52073629  1
  In  In70  1  -0.00584308  0.67833764  -0.00350190  1
  In  In71  1  0.51559592  0.00936725  0.79483461  1
  Te  Te72  1  0.11092821  0.09297114  0.05942731  1
  Te  Te73  1  0.08008638  0.06318099  0.43422533  1
  Te  Te74  1  0.07950544  0.09490001  0.76203251  1
  Te  Te75  1  0.08626025  0.42362084  0.08952991  1
  Te  Te76  1  0.10796221  0.42086203  0.35882603  1
  Te  Te77  1  0.05554808  0.36429350  0.71825885  1
  Te  Te78  1  0.11792616  0.69054108  0.09343480  1
  Te  Te79  1  0.07596404  0.74460079  0.42822689  1
  Te  Te80  1  0.07571337  0.75881893  0.75914598  1
  Te  Te81  1  0.41810506  0.06732030  0.10896150  1
  Te  Te82  1  0.41611394  0.09823427  0.44247927  1
  Te  Te83  1  0.40124045  0.07453102  0.71869555  1
  Te  Te84  1  0.43494492  0.43895600  0.08723107  1
  Te  Te85  1  0.42835506  0.41770924  0.41173227  1
  Te  Te86  1  0.42562231  0.43578276  0.74128981  1
  Te  Te87  1  0.42268129  0.75729583  0.09345471  1
  Te  Te88  1  0.41440984  0.78342567  0.40746347  1
  Te  Te89  1  0.40273522  0.80554130  0.74675188  1
  Te  Te90  1  0.75053276  0.07240068  0.05423779  1
  Te  Te91  1  0.75830270  0.09091710  0.41497984  1
  Te  Te92  1  0.71667250  0.09772696  0.73986726  1
  Te  Te93  1  0.75652322  0.39250617  0.07721133  1
  Te  Te94  1  0.73931762  0.44057378  0.41999303  1
  Te  Te95  1  0.73233604  0.41217747  0.75231076  1
  Te  Te96  1  0.76420186  0.74610653  0.07312527  1
  Te  Te97  1  0.74641041  0.76264727  0.44539061  1
  Te  Te98  1  0.73155726  0.78361909  0.72921139  1
  Te  Te99  1  0.09143586  0.25032922  0.26493840  1
  Te  Te100  1  0.10504146  0.27858323  0.59724063  1
  Te  Te101  1  0.08329122  0.24115554  0.91452192  1
  Te  Te102  1  0.08693905  0.61908795  0.23003129  1
  Te  Te103  1  0.08078296  0.55286838  0.59361855  1
  Te  Te104  1  0.08718551  0.57275883  0.90663304  1
  Te  Te105  1  0.09793896  0.87816326  0.25608849  1
  Te  Te106  1  0.09511855  0.91541102  0.60737360  1
  Te  Te107  1  0.07726158  0.92083997  0.93536313  1
  Te  Te108  1  0.40123099  0.25407465  0.25501148  1
  Te  Te109  1  0.44448222  0.23111310  0.61604588  1
  Te  Te110  1  0.41885474  0.23352158  0.89571906  1
  Te  Te111  1  0.42311116  0.58542887  0.26076745  1
  Te  Te112  1  0.42911016  0.60919659  0.56829870  1
  Te  Te113  1  0.42762343  0.56312014  0.83367703  1
  Te  Te114  1  0.44916707  0.92544587  0.25572338  1
  Te  Te115  1  0.37598200  0.94218147  0.63356816  1
  Te  Te116  1  0.42039807  0.93404953  0.89495859  1
  Te  Te117  1  0.75927195  0.25044062  0.25994664  1
  Te  Te118  1  0.72854420  0.27172849  0.58527983  1
  Te  Te119  1  0.72326626  0.23841321  0.89479153  1
  Te  Te120  1  0.73303200  0.57399045  0.23129352  1
  Te  Te121  1  0.74145368  0.59398652  0.59336794  1
  Te  Te122  1  0.74292419  0.60136330  0.90577536  1
  Te  Te123  1  0.74154613  0.91041752  0.24760138  1
  Te  Te124  1  0.71311590  0.90810737  0.63396837  1
  Te  Te125  1  0.71661201  0.88396767  0.90652391  1
  Te  Te126  1  0.26498934  0.26329525  0.04948697  1
  Te  Te127  1  0.26642320  0.22616610  0.44234996  1
  Te  Te128  1  0.26511319  0.25764153  0.77849973  1
  Te  Te129  1  0.29905625  0.56831104  0.06893251  1
  Te  Te130  1  0.24289899  0.55750046  0.41415557  1
  Te  Te131  1  0.25195924  0.58635391  0.72746528  1
  Te  Te132  1  0.25182032  0.90549064  0.08206256  1
  Te  Te133  1  0.25012230  0.93878630  0.44078975  1
  Te  Te134  1  0.27506337  0.88569495  0.74795795  1
  Te  Te135  1  0.56252616  0.23450497  0.08789669  1
  Te  Te136  1  0.58561731  0.26020189  0.41356038  1
  Te  Te137  1  0.60836243  0.20717624  0.78948151  1
  Te  Te138  1  0.53473310  0.55401127  0.04818632  1
  Te  Te139  1  0.56931505  0.60258836  0.43696867  1
  Te  Te140  1  0.56227550  0.62353218  0.75106286  1
  Te  Te141  1  0.58668056  0.92703887  0.06869296  1
  Te  Te142  1  0.56728320  0.89957854  0.44921645  1
  Te  Te143  1  0.59472129  0.89150063  0.73628957  1
  Te  Te144  1  0.91719528  0.24678576  0.08387486  1
  Te  Te145  1  0.93898758  0.25787773  0.41059229  1
  Te  Te146  1  0.90068222  0.28103051  0.76160557  1
  Te  Te147  1  0.91338888  0.55995179  0.05043131  1
  Te  Te148  1  0.94929241  0.57617358  0.42450738  1
  Te  Te149  1  0.91540835  0.58212875  0.76325069  1
  Te  Te150  1  0.92408234  0.92230862  0.11224628  1
  Te  Te151  1  0.89920863  0.92720667  0.41727575  1
  Te  Te152  1  0.89816051  0.93241562  0.73098130  1
  Te  Te153  1  0.24610791  0.06810069  0.25164445  1
  Te  Te154  1  0.26411601  0.11077744  0.64583320  1
  Te  Te155  1  0.24340087  0.07964468  0.90059002  1
  Te  Te156  1  0.25755417  0.42299969  0.23841209  1
  Te  Te157  1  0.24767267  0.39681146  0.57180476  1
  Te  Te158  1  0.27991921  0.42739254  0.90006739  1
  Te  Te159  1  0.26050543  0.73544306  0.25966257  1
  Te  Te160  1  0.23211329  0.75139389  0.59323870  1
  Te  Te161  1  0.27118768  0.74745108  0.92107076  1
  Te  Te162  1  0.59751744  0.07840257  0.25315039  1
  Te  Te163  1  0.59451415  0.07188423  0.61202147  1
  Te  Te164  1  0.54044191  0.11164081  0.90883048  1
  Te  Te165  1  0.56729910  0.40447398  0.21407408  1
  Te  Te166  1  0.55737662  0.42815085  0.62611879  1
  Te  Te167  1  0.57662674  0.41583848  0.90512534  1
  Te  Te168  1  0.59336340  0.74467248  0.26459416  1
  Te  Te169  1  0.54444377  0.82355439  0.59982150  1
  Te  Te170  1  0.54868359  0.73109582  0.89820963  1
  Te  Te171  1  0.93380754  0.09157054  0.25327611  1
  Te  Te172  1  0.89973075  0.10049757  0.57606774  1
  Te  Te173  1  0.90610134  0.07606244  0.89150391  1
  Te  Te174  1  0.90778394  0.41286676  0.24191744  1
  Te  Te175  1  0.91258358  0.41420500  0.57381121  1
  Te  Te176  1  0.89830278  0.38039054  0.88516158  1
  Te  Te177  1  0.92326839  0.72509410  0.25871055  1
  Te  Te178  1  0.91547613  0.76059510  0.59058302  1
  Te  Te179  1  0.90201691  0.76009957  0.90590463  1
