# generated using pymatgen
data_In2Te3
_symmetry_space_group_name_H-M   'P 1'
_cell_length_a   18.94371543
_cell_length_b   18.91995966
_cell_length_c   18.91376955
_cell_angle_alpha   90.07999746
_cell_angle_beta   90.05062256
_cell_angle_gamma   90.05859279
_symmetry_Int_Tables_number   1
_chemical_formula_structural   In2Te3
_chemical_formula_sum   'In72 Te108'
_cell_volume   6778.95326868
_cell_formula_units_Z   36
loop_
 _symmetry_equiv_pos_site_id
 _symmetry_equiv_pos_as_xyz
  1  'x, y, z'
loop_
 _atom_site_type_symbol
 _atom_site_label
 _atom_site_symmetry_multiplicity
 _atom_site_fract_x
 _atom_site_fract_y
 _atom_site_fract_z
 _atom_site_occupancy
  In  In0  1  0.34685543  0.64150122  -0.00034263  1
  In  In1  1  0.51266798  0.61659959  0.13455276  1
  In  In2  1  0.32390312  0.80827874  0.80914622  1
  In  In3  1  0.36208183  0.03527688  0.00094718  1
  In  In4  1  -0.00423648  0.83920672  0.83834150  1
  In  In5  1  -0.01765297  0.69086312  0.01369126  1
  In  In6  1  0.65608271  0.18752032  0.14341925  1
  In  In7  1  0.85512976  0.83222669  0.34272254  1
  In  In8  1  0.51012180  0.36361342  0.83800652  1
  In  In9  1  0.00397697  0.51707165  0.82120172  1
  In  In10  1  -0.00603101  0.31074703  0.35861096  1
  In  In11  1  0.83423876  0.33288722  0.49548108  1
  In  In12  1  0.80606482  0.34282201  0.15085533  1
  In  In13  1  0.53643146  0.48594331  0.63181148  1
  In  In14  1  0.18613095  0.48336344  -0.00348706  1
  In  In15  1  0.82638469  0.16024315  0.00236079  1
  In  In16  1  0.31483686  0.84809025  0.16492895  1
  In  In17  1  0.47692517  0.81552991  -0.01605806  1
  In  In18  1  0.32626401  0.66327744  0.34290775  1
  In  In19  1  0.15962839  0.68051793  0.84340239  1
  In  In20  1  0.65216916  0.84854855  0.14820441  1
  In  In21  1  0.33937929  0.03124590  0.33620720  1
  In  In22  1  0.83352636  -0.00728015  0.84427578  1
  In  In23  1  -0.00414681  0.51604701  0.17945750  1
  In  In24  1  0.16862057  0.16488221  0.33616080  1
  In  In25  1  0.35035384  0.20310308  0.85619955  1
  In  In26  1  0.19134695  0.32779481  0.17665755  1
  In  In27  1  0.52220559  0.42416735  0.35538575  1
  In  In28  1  0.84621807  0.17442145  0.65306314  1
  In  In29  1  0.16909367  0.16216876  0.02107485  1
  In  In30  1  0.65227221  0.16841650  0.83703613  1
  In  In31  1  -0.01471613  0.16905363  0.49608961  1
  In  In32  1  0.82919432  0.49201607  0.64907472  1
  In  In33  1  0.15262216  0.82272434  0.36144847  1
  In  In34  1  0.15246818  -0.00763667  0.16536354  1
  In  In35  1  -0.01677065  0.82204955  0.17291557  1
  In  In36  1  0.17148126  0.30482002  0.51419100  1
  In  In37  1  0.01633868  0.49603115  0.49396707  1
  In  In38  1  0.83154158  0.51223545  0.32839840  1
  In  In39  1  0.65712805  0.63549107  0.32187158  1
  In  In40  1  -0.03476649  0.66493634  0.64913452  1
  In  In41  1  0.48692466  0.03384937  0.83126813  1
  In  In42  1  0.70703973  0.01208658  0.34698214  1
  In  In43  1  0.66946908  0.01014508  0.64071432  1
  In  In44  1  0.52310854  0.61676120  0.85556856  1
  In  In45  1  0.82920259  0.85106368  0.00222624  1
  In  In46  1  -0.01940426  0.32878244  0.01529827  1
  In  In47  1  0.50546002  0.22747224  0.31401773  1
  In  In48  1  0.34294655  0.31711516  0.66047137  1
  In  In49  1  0.31851060  -0.02067751  0.66883233  1
  In  In50  1  0.69391954  0.66673441  0.64856256  1
  In  In51  1  0.17202916  0.49129032  0.69456301  1
  In  In52  1  -0.00324247  0.17459899  0.84384759  1
  In  In53  1  -0.00446814  0.02680544  0.66524401  1
  In  In54  1  0.19251643  0.50751240  0.31421299  1
  In  In55  1  0.14919409  -0.00085321  0.50329351  1
  In  In56  1  0.46333403  0.83377849  0.65752553  1
  In  In57  1  0.83789050  0.03619477  0.18861283  1
  In  In58  1  0.16539648  0.16936074  0.69780830  1
  In  In59  1  0.51108891  0.16358282  0.64859604  1
  In  In60  1  0.49905515  0.01330638  0.18743740  1
  In  In61  1  -0.00875936  0.72608841  0.43371882  1
  In  In62  1  0.50344033  0.66436218  0.49373920  1
  In  In63  1  0.80462017  0.36211214  0.84054024  1
  In  In64  1  0.79648196  0.64692500  0.15037892  1
  In  In65  1  0.39002988  0.47920222  0.15522837  1
  In  In66  1  0.13876675  0.66113436  0.14972706  1
  In  In67  1  0.51588870  0.81017399  0.34703814  1
  In  In68  1  0.34979685  0.16937730  0.50064786  1
  In  In69  1  0.65060358  0.83495607  0.80581442  1
  In  In70  1  0.31884560  0.67353732  0.64922020  1
  In  In71  1  0.68556632  0.83819086  0.48723781  1
  Te  Te72  1  0.06791644  0.09321514  0.10204718  1
  Te  Te73  1  0.06479763  0.07564601  0.40110738  1
  Te  Te74  1  0.08694389  0.06932008  0.78011176  1
  Te  Te75  1  0.08337517  0.42055500  0.09951108  1
  Te  Te76  1  0.10486341  0.40505888  0.40762968  1
  Te  Te77  1  0.08502476  0.40523568  0.77426366  1
  Te  Te78  1  0.09546252  0.78598417  0.06545638  1
  Te  Te79  1  0.13786148  0.72490308  0.47534565  1
  Te  Te80  1  0.06352493  0.74000659  0.74435599  1
  Te  Te81  1  0.43398320  0.11972416  0.10170416  1
  Te  Te82  1  0.44907579  0.11127195  0.40133077  1
  Te  Te83  1  0.39681269  0.10874111  0.73237481  1
  Te  Te84  1  0.44296548  0.37659898  0.06238689  1
  Te  Te85  1  0.40427672  0.39295921  0.43571783  1
  Te  Te86  1  0.42962131  0.42467119  0.72456913  1
  Te  Te87  1  0.40960873  0.74416654  0.10251602  1
  Te  Te88  1  0.40132211  0.76053815  0.43329848  1
  Te  Te89  1  0.44085802  0.72371711  0.76211490  1
  Te  Te90  1  0.73532658  0.06873920  0.08250184  1
  Te  Te91  1  0.75838659  0.07972903  0.46673967  1
  Te  Te92  1  0.75451879  0.08872674  0.75256488  1
  Te  Te93  1  0.75301740  0.42309166  0.04063071  1
  Te  Te94  1  0.75241632  0.41127357  0.40084834  1
  Te  Te95  1  0.73122227  0.40850765  0.72250704  1
  Te  Te96  1  0.72937014  0.74925658  0.06240340  1
  Te  Te97  1  0.74578507  0.73432459  0.39496111  1
  Te  Te98  1  0.75795688  0.75634407  0.74581394  1
  Te  Te99  1  0.08000272  0.24970361  0.24732953  1
  Te  Te100  1  0.06769370  0.24102352  0.60495958  1
  Te  Te101  1  0.08597552  0.26012840  0.93163282  1
  Te  Te102  1  0.07740687  0.60081268  0.27564374  1
  Te  Te103  1  0.08174704  0.57650331  0.60445490  1
  Te  Te104  1  0.08206360  0.59038985  0.93989369  1
  Te  Te105  1  0.07196649  0.90680069  0.26249322  1
  Te  Te106  1  0.07447429  0.92066620  0.60101279  1
  Te  Te107  1  0.06829377  0.88960068  0.95249681  1
  Te  Te108  1  0.41854453  0.24251437  0.19773198  1
  Te  Te109  1  0.44470639  0.29031748  0.54133009  1
  Te  Te110  1  0.46007166  0.26180113  0.93646165  1
  Te  Te111  1  0.42795517  0.58751297  0.26083639  1
  Te  Te112  1  0.41908568  0.57984018  0.58638121  1
  Te  Te113  1  0.40642428  0.53426417  0.91388428  1
  Te  Te114  1  0.41598475  0.90698693  0.26369425  1
  Te  Te115  1  0.41626649  0.94048123  0.56834536  1
  Te  Te116  1  0.40574542  0.91671555  0.89273776  1
  Te  Te117  1  0.75074841  0.24295424  0.24219309  1
  Te  Te118  1  0.74727591  0.26258399  0.59146092  1
  Te  Te119  1  0.73512288  0.25623567  0.92978616  1
  Te  Te120  1  0.71661505  0.53760027  0.22037940  1
  Te  Te121  1  0.75361961  0.57411554  0.55320054  1
  Te  Te122  1  0.72580475  0.54216217  0.94390383  1
  Te  Te123  1  0.75533573  0.90249135  0.24520384  1
  Te  Te124  1  0.75808879  0.90212388  0.59731849  1
  Te  Te125  1  0.72254984  0.91820619  0.91465683  1
  Te  Te126  1  0.26326666  0.26653566  0.06519378  1
  Te  Te127  1  0.26763113  0.25642465  0.40515937  1
  Te  Te128  1  0.24645381  0.27513835  0.77087901  1
  Te  Te129  1  0.25573766  0.57254965  0.10738219  1
  Te  Te130  1  0.25933266  0.56678527  0.43063508  1
  Te  Te131  1  0.25776607  0.59466700  0.76444637  1
  Te  Te132  1  0.25800423  0.94168257  0.06292737  1
  Te  Te133  1  0.24889712  0.93232600  0.40938959  1
  Te  Te134  1  0.22716027  0.90330409  0.75318089  1
  Te  Te135  1  0.57507165  0.31472923  0.11918933  1
  Te  Te136  1  0.60497891  0.30108752  0.39939269  1
  Te  Te137  1  0.57786851  0.25950545  0.74238170  1
  Te  Te138  1  0.58654900  0.56089845  0.01817909  1
  Te  Te139  1  0.58190807  0.55620524  0.42375081  1
  Te  Te140  1  0.60693991  0.57420396  0.73641080  1
  Te  Te141  1  0.54570416  0.92183877  0.07075719  1
  Te  Te142  1  0.59066608  0.92568815  0.40785296  1
  Te  Te143  1  0.56047729  0.94100837  0.73340417  1
  Te  Te144  1  0.90864711  0.23357652  0.10729107  1
  Te  Te145  1  0.88418847  0.21051383  0.38563209  1
  Te  Te146  1  0.89855278  0.25894135  0.76803912  1
  Te  Te147  1  0.90509394  0.57343974  0.07313169  1
  Te  Te148  1  0.91682908  0.58752745  0.42828907  1
  Te  Te149  1  0.88804217  0.58700710  0.75455160  1
  Te  Te150  1  0.91244525  0.93272498  0.09800397  1
  Te  Te151  1  0.95496792  0.87355841  0.44397720  1
  Te  Te152  1  0.91170559  0.91925062  0.73967305  1
  Te  Te153  1  0.25210655  0.09233744  0.23163276  1
  Te  Te154  1  0.23762958  0.10083201  0.57946867  1
  Te  Te155  1  0.25837898  0.09485494  0.90988294  1
  Te  Te156  1  0.29202775  0.41024185  0.25439839  1
  Te  Te157  1  0.24858409  0.41247434  0.58731459  1
  Te  Te158  1  0.28979816  0.43412647  0.90968938  1
  Te  Te159  1  0.23208160  0.74965294  0.24647357  1
  Te  Te160  1  0.24016342  0.77337500  0.58277513  1
  Te  Te161  1  0.26020057  0.74811885  0.93606998  1
  Te  Te162  1  0.60776503  0.09174735  0.25921568  1
  Te  Te163  1  0.60483049  0.10768244  0.54895176  1
  Te  Te164  1  0.57633252  0.08783929  0.93369216  1
  Te  Te165  1  0.58281004  0.43088749  0.21982161  1
  Te  Te166  1  0.58138629  0.37371146  0.54620154  1
  Te  Te167  1  0.61489202  0.43548231  0.91997648  1
  Te  Te168  1  0.58314050  0.73853223  0.23052793  1
  Te  Te169  1  0.57855117  0.76427925  0.58131617  1
  Te  Te170  1  0.58826341  0.74253058  0.91273276  1
  Te  Te171  1  0.91019929  0.06713609  0.31037950  1
  Te  Te172  1  0.88907393  0.05948337  0.55222854  1
  Te  Te173  1  0.92819619  0.07174307  0.93253588  1
  Te  Te174  1  0.92210983  0.40849669  0.25826815  1
  Te  Te175  1  0.93658232  0.40330189  0.58288923  1
  Te  Te176  1  0.92160892  0.42578306  0.91601086  1
  Te  Te177  1  0.89524133  0.72109904  0.24175098  1
  Te  Te178  1  0.90312664  0.75733344  0.55208753  1
  Te  Te179  1  0.89022083  0.74650357  0.90998654  1
