# generated using pymatgen
data_In2Te3
_symmetry_space_group_name_H-M   'P 1'
_cell_length_a   18.93661658
_cell_length_b   18.92442401
_cell_length_c   18.94496636
_cell_angle_alpha   90.08245323
_cell_angle_beta   89.91854138
_cell_angle_gamma   90.13821446
_symmetry_Int_Tables_number   1
_chemical_formula_structural   In2Te3
_chemical_formula_sum   'In72 Te108'
_cell_volume   6789.17094865
_cell_formula_units_Z   36
loop_
 _symmetry_equiv_pos_site_id
 _symmetry_equiv_pos_as_xyz
  1  'x, y, z'
loop_
 _atom_site_type_symbol
 _atom_site_label
 _atom_site_symmetry_multiplicity
 _atom_site_fract_x
 _atom_site_fract_y
 _atom_site_fract_z
 _atom_site_occupancy
  In  In0  1  0.86365512  0.30216354  0.14653212  1
  In  In1  1  -0.00971442  0.02127828  0.69756574  1
  In  In2  1  0.52004661  0.00538374  0.52185508  1
  In  In3  1  0.17409705  0.67297306  0.17583827  1
  In  In4  1  -0.01071159  0.51448895  0.16352344  1
  In  In5  1  0.48572280  0.33758447  0.16461233  1
  In  In6  1  0.67184555  0.33792261  -0.00844409  1
  In  In7  1  0.13701954  0.19048563  -0.00666169  1
  In  In8  1  0.34643520  0.80344982  0.17325667  1
  In  In9  1  0.82189073  0.35717290  0.81943853  1
  In  In10  1  0.65909331  0.83467169  0.11727483  1
  In  In11  1  -0.01555768  0.49002986  0.50108493  1
  In  In12  1  0.32078916  -0.00809695  0.32723169  1
  In  In13  1  -0.00027324  0.31335202  0.62536498  1
  In  In14  1  0.61651458  0.66717688  0.36059944  1
  In  In15  1  0.63600629  0.01450780  0.67302748  1
  In  In16  1  0.01047983  0.47394897  0.82257055  1
  In  In17  1  0.31147769  0.17096370  0.48999897  1
  In  In18  1  0.51275387  0.34005153  0.51134577  1
  In  In19  1  0.16056942  0.48508272  0.00477594  1
  In  In20  1  0.66900129  0.67754949  -0.03188279  1
  In  In21  1  -0.00120857  0.67511177  0.33178668  1
  In  In22  1  0.68007545  -0.00056233  0.35216215  1
  In  In23  1  0.50470029  0.67270530  0.15820439  1
  In  In24  1  0.82638384  0.48729749  0.34707408  1
  In  In25  1  0.01740744  0.85946655  0.15713012  1
  In  In26  1  0.83657828  0.65060559  0.15597366  1
  In  In27  1  0.37275879  0.16319694  0.83212794  1
  In  In28  1  0.35422556  0.67306925  0.66126023  1
  In  In29  1  0.17849884  0.35320297  0.19290307  1
  In  In30  1  0.18080577  0.64756672  0.48172313  1
  In  In31  1  0.51067710  0.83032685  0.68853804  1
  In  In32  1  0.34025846  0.51070902  0.86062147  1
  In  In33  1  0.32820638  0.02194040  0.64365701  1
  In  In34  1  0.17072147  0.16005880  0.33352396  1
  In  In35  1  0.82448379  0.85094960  0.33736781  1
  In  In36  1  0.17873285  0.00798238  0.13618715  1
  In  In37  1  0.34266495  0.31642582  -0.01302291  1
  In  In38  1  0.65716592  0.82590354  0.51669495  1
  In  In39  1  0.17250795  0.02519162  0.82104680  1
  In  In40  1  0.32681839  0.48561936  0.50926753  1
  In  In41  1  0.34325358  0.85281598  0.84921980  1
  In  In42  1  -0.01805381  0.03144084  0.32589404  1
  In  In43  1  0.47254649  0.17853621  0.32031748  1
  In  In44  1  0.79110804  0.64921666  0.54552993  1
  In  In45  1  0.67730090  0.16347303  0.16182562  1
  In  In46  1  0.68144506  0.47878979  0.17197222  1
  In  In47  1  0.64198545  0.13772529  0.84642352  1
  In  In48  1  0.14677849  0.47672083  0.65538500  1
  In  In49  1  0.52533291  0.47526552  -0.00051618  1
  In  In50  1  0.16283018  0.01345419  0.51786295  1
  In  In51  1  0.83149767  0.01412224  0.49239021  1
  In  In52  1  -0.03583946  0.67019342  0.66586972  1
  In  In53  1  0.52340331  0.50583270  0.69145445  1
  In  In54  1  0.15401310  0.80639447  -0.01559932  1
  In  In55  1  0.14624279  0.82200945  0.67302338  1
  In  In56  1  0.15675679  0.64950271  0.79376617  1
  In  In57  1  -0.01368920  0.30592958  0.36887784  1
  In  In58  1  0.47998427  0.53667276  0.35243913  1
  In  In59  1  0.49948012  -0.00663058  0.15803149  1
  In  In60  1  0.81449529  -0.00181745  0.87572555  1
  In  In61  1  0.17416105  0.82381646  0.32596774  1
  In  In62  1  0.83216571  0.65811548  0.84199279  1
  In  In63  1  0.84010243  0.02238919  0.14812224  1
  In  In64  1  0.82982852  0.83361561  0.68841424  1
  In  In65  1  0.35116058  0.00006897  0.00643539  1
  In  In66  1  0.80139200  0.19061323  0.65326559  1
  In  In67  1  0.35824684  0.66979269  -0.00187909  1
  In  In68  1  0.39490268  0.79966609  0.46467660  1
  In  In69  1  0.34310415  0.32749196  0.68133679  1
  In  In70  1  0.68010936  0.33500070  0.36180838  1
  In  In71  1  0.00909501  0.01451872  -0.00138225  1
  Te  Te72  1  0.06930230  0.10467017  0.10500280  1
  Te  Te73  1  0.07046669  0.09918209  0.43135980  1
  Te  Te74  1  0.07078535  0.11855096  0.77406829  1
  Te  Te75  1  0.07050073  0.40502847  0.09549584  1
  Te  Te76  1  0.07555288  0.40830665  0.42324960  1
  Te  Te77  1  0.09169524  0.37257252  0.74717213  1
  Te  Te78  1  0.06651144  0.73448215  0.08523342  1
  Te  Te79  1  0.08366829  0.75605810  0.42750578  1
  Te  Te80  1  0.04501435  0.75635526  0.77348352  1
  Te  Te81  1  0.41901506  0.09662433  0.09240399  1
  Te  Te82  1  0.41303624  0.06974795  0.42237285  1
  Te  Te83  1  0.43882947  0.08195714  0.72356032  1
  Te  Te84  1  0.40197989  0.42708769  0.07402460  1
  Te  Te85  1  0.41891283  0.40866123  0.41589232  1
  Te  Te86  1  0.42525047  0.42057170  0.77218600  1
  Te  Te87  1  0.44344616  0.77806334  0.05880951  1
  Te  Te88  1  0.46592038  0.68720548  0.39920225  1
  Te  Te89  1  0.42286583  0.74257495  0.77760164  1
  Te  Te90  1  0.76433065  0.10913439  0.05399096  1
  Te  Te91  1  0.77617346  0.10703382  0.39049589  1
  Te  Te92  1  0.75456444  0.07463714  0.75135359  1
  Te  Te93  1  0.77630339  0.40869451  0.07823786  1
  Te  Te94  1  0.73724347  0.43673175  0.45649617  1
  Te  Te95  1  0.71220208  0.41321766  0.73446705  1
  Te  Te96  1  0.77126151  0.75011856  0.06169424  1
  Te  Te97  1  0.74508470  0.74775618  0.41616360  1
  Te  Te98  1  0.74204908  0.72143500  0.73638975  1
  Te  Te99  1  0.07836250  0.25432774  0.25850450  1
  Te  Te100  1  0.10140408  0.22730813  0.56758545  1
  Te  Te101  1  0.02123914  0.27730388  0.95617362  1
  Te  Te102  1  0.08898058  0.57703307  0.26072002  1
  Te  Te103  1  0.08267245  0.59822289  0.58908715  1
  Te  Te104  1  0.08700150  0.57684457  0.90653983  1
  Te  Te105  1  0.09674154  0.93879976  0.26099142  1
  Te  Te106  1  0.06660561  0.92688952  0.59960312  1
  Te  Te107  1  0.09718207  0.92443395  0.91142437  1
  Te  Te108  1  0.38405287  0.27245860  0.25109037  1
  Te  Te109  1  0.41452828  0.24172474  0.57673986  1
  Te  Te110  1  0.45723012  0.25721361  0.91203114  1
  Te  Te111  1  0.42235430  0.56880788  0.22028935  1
  Te  Te112  1  0.42955318  0.56769377  0.58419634  1
  Te  Te113  1  0.45778942  0.58915054  0.91844914  1
  Te  Te114  1  0.42290347  0.90318578  0.25851819  1
  Te  Te115  1  0.41876966  0.90456913  0.58836206  1
  Te  Te116  1  0.44125153  0.95551642  0.89562806  1
  Te  Te117  1  0.75261674  0.26527794  0.24548310  1
  Te  Te118  1  0.76591885  0.28784686  0.54667246  1
  Te  Te119  1  0.73806795  0.24619699  0.89099950  1
  Te  Te120  1  0.74727376  0.58767735  0.26124602  1
  Te  Te121  1  0.72781277  0.56057668  0.64927341  1
  Te  Te122  1  0.73651126  0.56196728  0.90585220  1
  Te  Te123  1  0.74613117  0.92458143  0.22976847  1
  Te  Te124  1  0.74812474  0.92485077  0.58726093  1
  Te  Te125  1  0.72636212  0.87760627  0.88812630  1
  Te  Te126  1  0.23888460  0.26041869  0.08245369  1
  Te  Te127  1  0.26129368  0.26380019  0.38820441  1
  Te  Te128  1  0.26530188  0.24274897  0.77335983  1
  Te  Te129  1  0.25007363  0.59242223  0.07019603  1
  Te  Te130  1  0.24766795  0.54451593  0.39471417  1
  Te  Te131  1  0.26359832  0.56083322  0.73082278  1
  Te  Te132  1  0.24609083  0.88099479  0.08551245  1
  Te  Te133  1  0.24395025  0.91437951  0.43321936  1
  Te  Te134  1  0.25520173  0.91531410  0.73899343  1
  Te  Te135  1  0.58246499  0.25322752  0.08296914  1
  Te  Te136  1  0.57639005  0.23650887  0.41529706  1
  Te  Te137  1  0.53139656  0.20590744  0.77272685  1
  Te  Te138  1  0.60765140  0.58034919  0.08547001  1
  Te  Te139  1  0.60046080  0.54395475  0.44085515  1
  Te  Te140  1  0.60902317  0.62546185  0.72601484  1
  Te  Te141  1  0.60881129  0.96227880  0.05754975  1
  Te  Te142  1  0.57681810  0.90759493  0.41742552  1
  Te  Te143  1  0.61272723  0.90372855  0.77176285  1
  Te  Te144  1  0.90147064  0.21458118  0.03077467  1
  Te  Te145  1  0.87234467  0.25054003  0.44271332  1
  Te  Te146  1  0.90532356  0.25877511  0.73905761  1
  Te  Te147  1  0.91827742  0.58340763  0.05608276  1
  Te  Te148  1  0.90596081  0.59734968  0.42457518  1
  Te  Te149  1  0.90843814  0.55626319  0.74518600  1
  Te  Te150  1  0.91248878  0.91484041  0.06476718  1
  Te  Te151  1  0.93076941  0.92202118  0.41817214  1
  Te  Te152  1  0.91211351  0.92058625  0.78138390  1
  Te  Te153  1  0.26413896  0.09080331  0.22948046  1
  Te  Te154  1  0.21500437  0.12773846  0.60988869  1
  Te  Te155  1  0.24425527  0.08660307  0.94095142  1
  Te  Te156  1  0.24085919  0.46874894  0.25640440  1
  Te  Te157  1  0.23930564  0.38441605  0.57929202  1
  Te  Te158  1  0.24340189  0.40287951  0.90812213  1
  Te  Te159  1  0.27626523  0.72200023  0.28041807  1
  Te  Te160  1  0.24578394  0.74625324  0.58390444  1
  Te  Te161  1  0.24913264  0.73147652  0.89173644  1
  Te  Te162  1  0.58268296  0.08281298  0.26041465  1
  Te  Te163  1  0.61773726  0.10771783  0.56130542  1
  Te  Te164  1  0.56281778  0.05654854  0.94014490  1
  Te  Te165  1  0.58467771  0.40447537  0.26009140  1
  Te  Te166  1  0.59275524  0.38500918  0.63164461  1
  Te  Te167  1  0.61890854  0.43576651  0.88953067  1
  Te  Te168  1  0.60035513  0.76058229  0.23588237  1
  Te  Te169  1  0.57481774  0.73175233  0.59581886  1
  Te  Te170  1  0.59874109  0.79374506  0.91342215  1
  Te  Te171  1  0.89635702  0.11868533  0.24631302  1
  Te  Te172  1  0.90917800  0.09670578  0.59193827  1
  Te  Te173  1  0.92559191  0.09556535  0.90617277  1
  Te  Te174  1  0.91429598  0.41162685  0.25074945  1
  Te  Te175  1  0.91121154  0.43061542  0.61253689  1
  Te  Te176  1  0.92106601  0.40636763  0.92120186  1
  Te  Te177  1  0.91909018  0.76960771  0.24321044  1
  Te  Te178  1  0.89706692  0.76326676  0.56988513  1
  Te  Te179  1  0.93468937  0.75392234  0.88229529  1
