# generated using pymatgen
data_In2Te3
_symmetry_space_group_name_H-M   'P 1'
_cell_length_a   18.90365316
_cell_length_b   18.89581650
_cell_length_c   18.91962090
_cell_angle_alpha   90.12340423
_cell_angle_beta   89.83772433
_cell_angle_gamma   89.98833607
_symmetry_Int_Tables_number   1
_chemical_formula_structural   In2Te3
_chemical_formula_sum   'In72 Te108'
_cell_volume   6758.04492392
_cell_formula_units_Z   36
loop_
 _symmetry_equiv_pos_site_id
 _symmetry_equiv_pos_as_xyz
  1  'x, y, z'
loop_
 _atom_site_type_symbol
 _atom_site_label
 _atom_site_symmetry_multiplicity
 _atom_site_fract_x
 _atom_site_fract_y
 _atom_site_fract_z
 _atom_site_occupancy
  In  In0  1  -0.00198020  0.02480604  0.01350394  1
  In  In1  1  0.64990539  0.85588530  0.15461709  1
  In  In2  1  0.46708113  0.83401044  0.30076326  1
  In  In3  1  -0.00621307  0.86347483  0.17134862  1
  In  In4  1  0.14809151  0.65095975  0.18338702  1
  In  In5  1  0.16488272  0.49023600  0.66687414  1
  In  In6  1  0.83205319  0.49631747  -0.00351420  1
  In  In7  1  0.16289048  0.16627158  0.01351405  1
  In  In8  1  0.67718286  0.33094609  -0.00810907  1
  In  In9  1  0.18052050  0.49829448  -0.00796968  1
  In  In10  1  0.01024450  0.66501964  -0.01139594  1
  In  In11  1  0.01114443  0.34771895  0.66805222  1
  In  In12  1  0.84067590  0.81862336  0.34696842  1
  In  In13  1  0.35712047  0.19348283  0.49268419  1
  In  In14  1  0.80551543  0.16392924  0.34661079  1
  In  In15  1  0.67879750  0.48753959  0.82199273  1
  In  In16  1  0.33512376  0.85156280  0.16601717  1
  In  In17  1  0.81453766  0.67939091  0.17657695  1
  In  In18  1  0.83470025  0.49837229  0.66731917  1
  In  In19  1  0.34900267  0.49991305  0.82570746  1
  In  In20  1  0.46971275  0.66298316  0.17529944  1
  In  In21  1  0.32866597  0.67103793  0.65276422  1
  In  In22  1  0.66258515  0.00203519  0.66751410  1
  In  In23  1  0.48318562  0.66189183  0.80599350  1
  In  In24  1  0.48939459  0.17795249  -0.01251800  1
  In  In25  1  0.49828099  -0.00492660  0.49454705  1
  In  In26  1  0.02553453  0.36469061  0.36131392  1
  In  In27  1  -0.00995536  0.35129929  0.00204948  1
  In  In28  1  0.52368527  0.66035565  0.50697225  1
  In  In29  1  0.32437362  0.35516043  0.33870624  1
  In  In30  1  -0.00186706  -0.00560935  0.67022594  1
  In  In31  1  0.17563792  -0.00486756  0.49940133  1
  In  In32  1  0.65132423  0.63655653  0.33746799  1
  In  In33  1  0.32151534  0.32509512  0.00210455  1
  In  In34  1  0.17540217  0.82948294  -0.01719923  1
  In  In35  1  0.65928341  0.01072954  0.34069969  1
  In  In36  1  0.52842119  0.86559895  -0.02310183  1
  In  In37  1  0.31325322  0.46848013  0.51698922  1
  In  In38  1  0.82775879  0.01567877  0.15623506  1
  In  In39  1  -0.01253980  0.64674700  0.65691660  1
  In  In40  1  0.85156854  0.64518412  0.49693502  1
  In  In41  1  0.31535720  0.64800275  0.35755362  1
  In  In42  1  -0.00419410  0.17519593  0.83320029  1
  In  In43  1  0.78417026  0.85000488  -0.10755341  1
  In  In44  1  0.52148261  0.33828525  0.82894188  1
  In  In45  1  -0.00034533  0.18700550  0.18417112  1
  In  In46  1  0.82354274  0.15726465  -0.02703806  1
  In  In47  1  0.67066297  0.84288724  0.51903903  1
  In  In48  1  0.19566691  0.15370749  0.31149736  1
  In  In49  1  0.52889301  0.18102052  0.67666912  1
  In  In50  1  0.70744569  0.67349906  0.67028114  1
  In  In51  1  0.50998486  0.18060156  0.34036062  1
  In  In52  1  0.01482941  0.18616372  0.51751016  1
  In  In53  1  -0.00952481  0.48097125  0.17736340  1
  In  In54  1  0.33884078  0.49715856  0.18081948  1
  In  In55  1  0.17021997  0.82742434  0.66173554  1
  In  In56  1  0.65789341  0.65835428  -0.00045832  1
  In  In57  1  0.33512025  0.01151923  0.66177114  1
  In  In58  1  0.82870242  0.32766719  0.50287193  1
  In  In59  1  0.16289752  0.04400899  0.82782335  1
  In  In60  1  0.82426086  0.15235675  0.66596447  1
  In  In61  1  0.33445812  0.68863729  -0.01966813  1
  In  In62  1  0.67943964  0.49708497  0.17625815  1
  In  In63  1  -0.00693299  0.83457644  0.82530197  1
  In  In64  1  0.53294899  0.46267914  0.63057804  1
  In  In65  1  -0.00009746  -0.02520909  0.35020876  1
  In  In66  1  0.49978886  0.33502856  0.16499335  1
  In  In67  1  0.14961834  0.80480116  0.35567450  1
  In  In68  1  0.68114823  0.33055348  0.34211176  1
  In  In69  1  0.49830710  0.00616397  0.82902233  1
  In  In70  1  0.36518323  0.00619302  0.01499265  1
  In  In71  1  0.33053456  0.83355513  0.52017072  1
  Te  Te72  1  0.08971972  0.08078624  0.11873215  1
  Te  Te73  1  0.08820903  0.08868046  0.41310798  1
  Te  Te74  1  0.08800542  0.11624731  0.71008649  1
  Te  Te75  1  0.09724807  0.41527812  0.08930475  1
  Te  Te76  1  0.10359184  0.44805719  0.45788155  1
  Te  Te77  1  0.07181116  0.43629806  0.76960980  1
  Te  Te78  1  0.08711126  0.76204653  0.09107362  1
  Te  Te79  1  0.04471925  0.72493439  0.41579483  1
  Te  Te80  1  0.07951007  0.74027016  0.74512588  1
  Te  Te81  1  0.39544388  0.12924105  0.09207873  1
  Te  Te82  1  0.40889808  0.07839150  0.40723864  1
  Te  Te83  1  0.41516481  0.10448326  0.74995832  1
  Te  Te84  1  0.41553213  0.42213382  0.07355176  1
  Te  Te85  1  0.42037103  0.41047255  0.43482020  1
  Te  Te86  1  0.43069109  0.41119794  0.73111364  1
  Te  Te87  1  0.43225658  0.77060779  0.07369930  1
  Te  Te88  1  0.42094504  0.74330131  0.42497385  1
  Te  Te89  1  0.39636532  0.76287369  0.74507810  1
  Te  Te90  1  0.73583683  0.07989130  0.06355929  1
  Te  Te91  1  0.74954599  0.06799134  0.44048483  1
  Te  Te92  1  0.75326493  0.06906693  0.76939197  1
  Te  Te93  1  0.76556691  0.40205647  0.09487231  1
  Te  Te94  1  0.77122479  0.42607147  0.40984688  1
  Te  Te95  1  0.74547966  0.39694544  0.72844679  1
  Te  Te96  1  0.74109952  0.76328605  0.07299230  1
  Te  Te97  1  0.73375495  0.73751649  0.42144233  1
  Te  Te98  1  0.74841125  0.76678651  0.77585281  1
  Te  Te99  1  0.09866630  0.26550135  0.26438051  1
  Te  Te100  1  0.11184331  0.27910314  0.58015996  1
  Te  Te101  1  0.08476659  0.25939169  0.92174774  1
  Te  Te102  1  0.05795668  0.57641098  0.27398535  1
  Te  Te103  1  0.07372193  0.55784226  0.56795832  1
  Te  Te104  1  0.08319463  0.56884342  0.90601377  1
  Te  Te105  1  0.10664133  0.91442486  0.25920977  1
  Te  Te106  1  0.07618584  0.90623175  0.57205309  1
  Te  Te107  1  0.07952841  0.93035562  0.91770953  1
  Te  Te108  1  0.40811038  0.25653900  0.25592421  1
  Te  Te109  1  0.42793472  0.25959540  0.60302108  1
  Te  Te110  1  0.40593385  0.26009222  0.89195596  1
  Te  Te111  1  0.42428355  0.56925198  0.28476748  1
  Te  Te112  1  0.42007024  0.57251732  0.58161323  1
  Te  Te113  1  0.42827682  0.58221504  0.92596668  1
  Te  Te114  1  0.41349793  0.95899235  0.23709820  1
  Te  Te115  1  0.43280372  0.91017252  0.60172599  1
  Te  Te116  1  0.40325783  0.90948795  0.90400953  1
  Te  Te117  1  0.73502860  0.23477896  0.24182537  1
  Te  Te118  1  0.73477299  0.24699259  0.58767812  1
  Te  Te119  1  0.75108674  0.25545657  0.88748158  1
  Te  Te120  1  0.77351678  0.56974504  0.27217066  1
  Te  Te121  1  0.74053606  0.56882573  0.56867817  1
  Te  Te122  1  0.75579990  0.59070235  0.90533790  1
  Te  Te123  1  0.75637071  0.91220076  0.25289027  1
  Te  Te124  1  0.76594547  0.91785681  0.59941277  1
  Te  Te125  1  0.70271211  0.97382805  0.88513173  1
  Te  Te126  1  0.25264701  0.24309838  0.10352058  1
  Te  Te127  1  0.24059726  0.25387169  0.41688487  1
  Te  Te128  1  0.20986889  0.17626844  0.77832904  1
  Te  Te129  1  0.25709337  0.60184677  0.08281668  1
  Te  Te130  1  0.22438814  0.54945266  0.42350442  1
  Te  Te131  1  0.24993035  0.58619448  0.75087960  1
  Te  Te132  1  0.24375391  0.92885920  0.07398841  1
  Te  Te133  1  0.25930964  0.90518827  0.40938596  1
  Te  Te134  1  0.23703264  0.93295468  0.74634627  1
  Te  Te135  1  0.59006094  0.24617157  0.08196165  1
  Te  Te136  1  0.58813630  0.26181049  0.43834792  1
  Te  Te137  1  0.61944491  0.23700141  0.78135016  1
  Te  Te138  1  0.57649555  0.57984677  0.10057031  1
  Te  Te139  1  0.58389026  0.54826029  0.43274744  1
  Te  Te140  1  0.58459959  0.57189681  0.73340416  1
  Te  Te141  1  0.56870283  0.95576789  0.08565700  1
  Te  Te142  1  0.57190023  0.89394393  0.40535092  1
  Te  Te143  1  0.57873173  0.91179169  0.74912258  1
  Te  Te144  1  0.91422156  0.23793356  0.07124402  1
  Te  Te145  1  0.92667806  0.24485340  0.40870319  1
  Te  Te146  1  0.91001553  0.25510214  0.73872081  1
  Te  Te147  1  0.91513887  0.59141086  0.08940959  1
  Te  Te148  1  0.95368041  0.59942656  0.40140496  1
  Te  Te149  1  0.90301729  0.58744803  0.76215938  1
  Te  Te150  1  0.90109807  0.91763687  0.06505406  1
  Te  Te151  1  0.91014705  0.90575477  0.44213842  1
  Te  Te152  1  0.89850220  0.90806400  0.73787955  1
  Te  Te153  1  0.28962669  0.05448876  0.25998539  1
  Te  Te154  1  0.25603479  0.10120941  0.57049444  1
  Te  Te155  1  0.26702338  0.09219172  0.93111041  1
  Te  Te156  1  0.23115163  0.43235272  0.25350596  1
  Te  Te157  1  0.24830690  0.37725505  0.61496346  1
  Te  Te158  1  0.25036984  0.40558326  0.89272868  1
  Te  Te159  1  0.25993359  0.74107456  0.24950249  1
  Te  Te160  1  0.22546712  0.72996953  0.55751920  1
  Te  Te161  1  0.23721395  0.74055505  0.88448008  1
  Te  Te162  1  0.58920578  0.09740539  0.24709784  1
  Te  Te163  1  0.58848549  0.09019322  0.56652787  1
  Te  Te164  1  0.58761644  0.08694136  0.91838502  1
  Te  Te165  1  0.58026243  0.41964788  0.26006199  1
  Te  Te166  1  0.61757601  0.35496379  0.57364867  1
  Te  Te167  1  0.58499146  0.43379447  0.92955660  1
  Te  Te168  1  0.58855110  0.74444864  0.24390164  1
  Te  Te169  1  0.59051845  0.75017461  0.60944959  1
  Te  Te170  1  0.57563581  0.74163968  0.90369276  1
  Te  Te171  1  0.92108876  0.07590539  0.25972867  1
  Te  Te172  1  0.91928237  0.08055869  0.57083215  1
  Te  Te173  1  0.91496636  0.06292037  0.89242198  1
  Te  Te174  1  0.91585775  0.39124088  0.26596590  1
  Te  Te175  1  0.92512205  0.42461368  0.56856286  1
  Te  Te176  1  0.91479588  0.42384134  0.89958411  1
  Te  Te177  1  0.93132725  0.74806134  0.24714162  1
  Te  Te178  1  0.89153217  0.74301754  0.59826407  1
  Te  Te179  1  0.90995053  0.76235299  0.93021239  1
