# generated using pymatgen
data_In2Te3
_symmetry_space_group_name_H-M   'P 1'
_cell_length_a   18.76985937
_cell_length_b   18.77824762
_cell_length_c   18.76911964
_cell_angle_alpha   89.99749631
_cell_angle_beta   89.99622014
_cell_angle_gamma   89.98843158
_symmetry_Int_Tables_number   1
_chemical_formula_structural   In2Te3
_chemical_formula_sum   'In72 Te108'
_cell_volume   6615.45885516
_cell_formula_units_Z   36
loop_
 _symmetry_equiv_pos_site_id
 _symmetry_equiv_pos_as_xyz
  1  'x, y, z'
loop_
 _atom_site_type_symbol
 _atom_site_label
 _atom_site_symmetry_multiplicity
 _atom_site_fract_x
 _atom_site_fract_y
 _atom_site_fract_z
 _atom_site_occupancy
  In  In0  1  0.85309027  0.64288352  0.15917873  1
  In  In1  1  0.68630694  0.82808692  0.51834247  1
  In  In2  1  0.14476836  0.16061964  0.67324575  1
  In  In3  1  0.68590351  0.49608367  0.15571908  1
  In  In4  1  -0.01225829  0.17261571  0.50487273  1
  In  In5  1  0.33030853  0.02395101  -0.00006721  1
  In  In6  1  0.35309671  -0.02680459  0.34140221  1
  In  In7  1  0.84829130  0.50386484  0.33973535  1
  In  In8  1  0.33878144  0.81847743  0.18281377  1
  In  In9  1  0.31594231  0.81272639  0.83615846  1
  In  In10  1  0.30954056  0.49125233  0.16091785  1
  In  In11  1  0.17873857  0.83566222  0.66822629  1
  In  In12  1  0.48976457  0.68069902  0.15719937  1
  In  In13  1  0.33377700  0.66358609  0.67217293  1
  In  In14  1  0.49964953  0.87157204  0.34900051  1
  In  In15  1  0.49260527  0.68628926  0.51268195  1
  In  In16  1  0.68045079  0.84646744  0.82158155  1
  In  In17  1  0.65216342  0.32121356  0.33975821  1
  In  In18  1  0.15928611  0.17162893  0.34707066  1
  In  In19  1  0.34543218  0.16518672  0.84945904  1
  In  In20  1  0.35206981  0.35491573  0.67636228  1
  In  In21  1  0.82814806  0.33154367  0.14080167  1
  In  In22  1  0.00136239  0.83238486  0.51887424  1
  In  In23  1  0.16429527  0.49910141  -0.00097641  1
  In  In24  1  0.16268561  0.32174162  0.84458876  1
  In  In25  1  -0.01317729  -0.00395332  -0.01236098  1
  In  In26  1  0.01304373  0.66554962  0.65835291  1
  In  In27  1  0.83424828  0.67301234  0.83870805  1
  In  In28  1  0.66697450  0.70081707  0.35910126  1
  In  In29  1  0.49808282  0.17586201  0.33639779  1
  In  In30  1  0.17508534  0.00496955  0.16276455  1
  In  In31  1  0.82170044  0.15188913  0.66679360  1
  In  In32  1  0.49089999  0.33008270  0.48665188  1
  In  In33  1  0.00800073  0.63298602  0.34343420  1
  In  In34  1  0.65372930  0.85596170  0.13857083  1
  In  In35  1  0.29687203  0.64548325  0.35195357  1
  In  In36  1  0.84431345  0.80339891  0.32088229  1
  In  In37  1  0.83798964  0.83975346  -0.01620930  1
  In  In38  1  0.32783412  0.18452344  0.51089980  1
  In  In39  1  0.33941780  0.33041892  -0.00443171  1
  In  In40  1  0.18037773  0.51384085  0.65968053  1
  In  In41  1  0.82984698  0.34469838  0.82737187  1
  In  In42  1  0.82922385  -0.00026816  0.16384716  1
  In  In43  1  0.67336303  0.31342330  0.67450209  1
  In  In44  1  0.68076352  0.50626394  0.50740539  1
  In  In45  1  0.33414164  0.83747678  0.51818335  1
  In  In46  1  -0.02510771  0.85259083  0.80522431  1
  In  In47  1  0.47741059  0.48439938  0.34619017  1
  In  In48  1  0.14055929  0.81180471  0.00803151  1
  In  In49  1  0.82934566  0.47867077  0.65811258  1
  In  In50  1  0.01542052  0.35160300  0.35611882  1
  In  In51  1  -0.01672973  0.15538435  0.15586824  1
  In  In52  1  -0.00474788  0.34082221  0.63844974  1
  In  In53  1  0.83071063  0.00010176  0.50551601  1
  In  In54  1  0.34461442  0.17547507  0.16407658  1
  In  In55  1  0.00830601  0.01306914  0.32024114  1
  In  In56  1  0.49829016  0.84934569  0.02014574  1
  In  In57  1  0.49618145  0.50955916  0.68051523  1
  In  In58  1  0.67242933  0.66084607  -0.01295289  1
  In  In59  1  0.48558847  0.66735155  0.82712641  1
  In  In60  1  0.67004628  0.16622708  0.14448087  1
  In  In61  1  0.00402862  0.15205140  0.84000720  1
  In  In62  1  0.49663381  0.30556431  0.15982958  1
  In  In63  1  0.18114964  0.82752931  0.33492459  1
  In  In64  1  0.00691817  0.52023264  0.14811316  1
  In  In65  1  0.00690322  0.49701364  0.85336155  1
  In  In66  1  0.34718599  -0.00324551  0.66545964  1
  In  In67  1  0.68287459  0.03477690  0.33694544  1
  In  In68  1  0.66157425  0.15791980  0.82406297  1
  In  In69  1  0.50905406  0.48132032  -0.05156943  1
  In  In70  1  0.51828187  -0.00533994  0.82408804  1
  In  In71  1  0.18438538  0.34039246  0.16697095  1
  Te  Te72  1  0.08717442  0.08361057  0.06878431  1
  Te  Te73  1  0.08596294  0.07245167  0.43589392  1
  Te  Te74  1  0.07581898  0.05631515  0.75174318  1
  Te  Te75  1  0.07726461  0.40155812  0.07812843  1
  Te  Te76  1  0.09053105  0.45708283  0.42741873  1
  Te  Te77  1  0.08383998  0.41141199  0.74402314  1
  Te  Te78  1  0.05089834  0.75015750  0.10642781  1
  Te  Te79  1  0.08148217  0.74755083  0.41857680  1
  Te  Te80  1  0.08672937  0.75347736  0.75791080  1
  Te  Te81  1  0.43315384  0.09872942  0.07526194  1
  Te  Te82  1  0.42471357  0.07732160  0.43485110  1
  Te  Te83  1  0.43257957  0.09459999  0.74448949  1
  Te  Te84  1  0.42580832  0.42655424  0.08518667  1
  Te  Te85  1  0.38319863  0.42164600  0.44002095  1
  Te  Te86  1  0.43497886  0.41903451  0.78257092  1
  Te  Te87  1  0.39342006  0.74331536  0.05872654  1
  Te  Te88  1  0.40482243  0.75675488  0.40001296  1
  Te  Te89  1  0.42235693  0.77087540  0.73341483  1
  Te  Te90  1  0.76802449  0.08851469  0.06306186  1
  Te  Te91  1  0.75754788  0.11145154  0.43902404  1
  Te  Te92  1  0.75562764  0.05455557  0.76009791  1
  Te  Te93  1  0.74333789  0.41393707  0.04474772  1
  Te  Te94  1  0.75317890  0.40819725  0.41510684  1
  Te  Te95  1  0.72256482  0.43047468  0.75813927  1
  Te  Te96  1  0.75446861  0.74966154  0.09229661  1
  Te  Te97  1  0.78684203  0.73448375  0.44606655  1
  Te  Te98  1  0.76059179  0.75160043  0.73863541  1
  Te  Te99  1  0.07667908  0.24777486  0.24296895  1
  Te  Te100  1  0.10034541  0.25939486  0.56410748  1
  Te  Te101  1  0.06694110  0.25181938  0.93123891  1
  Te  Te102  1  0.10218197  0.55509672  0.25737993  1
  Te  Te103  1  0.08039224  0.57174034  0.56148912  1
  Te  Te104  1  0.08700257  0.60124656  0.92173903  1
  Te  Te105  1  0.08797582  0.90890380  0.24263618  1
  Te  Te106  1  0.08557401  0.92577640  0.59598582  1
  Te  Te107  1  0.08012761  0.90968575  0.90431663  1
  Te  Te108  1  0.39726145  0.27199002  0.27054940  1
  Te  Te109  1  0.43338026  0.24621150  0.60098281  1
  Te  Te110  1  0.44012850  0.25561020  0.91789263  1
  Te  Te111  1  0.41141540  0.58961971  0.25402946  1
  Te  Te112  1  0.40794833  0.57457549  0.57154953  1
  Te  Te113  1  0.40923717  0.58538734  0.92304305  1
  Te  Te114  1  0.43606267  0.93073142  0.21943619  1
  Te  Te115  1  0.44730650  0.91815661  0.58006431  1
  Te  Te116  1  0.40764962  0.91702677  0.90911313  1
  Te  Te117  1  0.74894069  0.24962745  0.24615328  1
  Te  Te118  1  0.76594763  0.25476533  0.57604959  1
  Te  Te119  1  0.73986471  0.25569796  0.90717846  1
  Te  Te120  1  0.74081646  0.59573567  0.26338289  1
  Te  Te121  1  0.74461580  0.59125853  0.60848963  1
  Te  Te122  1  0.76275885  0.56839206  0.91696597  1
  Te  Te123  1  0.74311444  0.90617327  0.26193485  1
  Te  Te124  1  0.76833820  0.91518318  0.61388795  1
  Te  Te125  1  0.74302376  0.93456429  0.92421155  1
  Te  Te126  1  0.24258820  0.23760753  0.06947889  1
  Te  Te127  1  0.25076188  0.26592996  0.41403198  1
  Te  Te128  1  0.25342109  0.24616192  0.74364938  1
  Te  Te129  1  0.23959320  0.59520294  0.08490274  1
  Te  Te130  1  0.20779719  0.56215830  0.43558383  1
  Te  Te131  1  0.25279302  0.58508335  0.76683404  1
  Te  Te132  1  0.25446463  0.90465303  0.07896181  1
  Te  Te133  1  0.24116770  0.92644086  0.43502167  1
  Te  Te134  1  0.25028495  0.93148244  0.76439055  1
  Te  Te135  1  0.59427639  0.26336534  0.05624783  1
  Te  Te136  1  0.59593047  0.22561616  0.44433145  1
  Te  Te137  1  0.56659382  0.24554719  0.74879511  1
  Te  Te138  1  0.57721007  0.58172326  0.08042351  1
  Te  Te139  1  0.57745704  0.58751711  0.41349928  1
  Te  Te140  1  0.59175890  0.59314121  0.75614743  1
  Te  Te141  1  0.59404186  0.96128411  0.05081324  1
  Te  Te142  1  0.60920339  0.93599050  0.43709788  1
  Te  Te143  1  0.59309021  0.91671285  0.72294186  1
  Te  Te144  1  0.90775909  0.23744778  0.05846390  1
  Te  Te145  1  0.91654570  0.25507792  0.40529822  1
  Te  Te146  1  0.92085885  0.25149475  0.73824699  1
  Te  Te147  1  0.90511780  0.56227340  0.04706560  1
  Te  Te148  1  0.91212954  0.58435208  0.44702247  1
  Te  Te149  1  0.92242685  0.57070556  0.74640452  1
  Te  Te150  1  0.92503288  0.90416356  0.09442106  1
  Te  Te151  1  0.91691196  0.91481003  0.40301680  1
  Te  Te152  1  0.86362411  0.93355051  0.74378030  1
  Te  Te153  1  0.26408459  0.07958681  0.26361424  1
  Te  Te154  1  0.24672374  0.07997506  0.58590754  1
  Te  Te155  1  0.23381765  0.09032792  0.91066578  1
  Te  Te156  1  0.23451760  0.43035773  0.27405282  1
  Te  Te157  1  0.24966958  0.40680202  0.58372871  1
  Te  Te158  1  0.25924516  0.42320101  0.90467521  1
  Te  Te159  1  0.23180715  0.72296593  0.23503690  1
  Te  Te160  1  0.23903726  0.73221284  0.57187326  1
  Te  Te161  1  0.22439348  0.72707765  0.91618646  1
  Te  Te162  1  0.57692906  0.08616771  0.24096358  1
  Te  Te163  1  0.52999470  0.04270840  0.53956381  1
  Te  Te164  1  0.58266929  0.08042266  0.92766490  1
  Te  Te165  1  0.57954606  0.41924122  0.24549943  1
  Te  Te166  1  0.57916794  0.41730227  0.58056280  1
  Te  Te167  1  0.61994313  0.38430981  0.94135773  1
  Te  Te168  1  0.57802336  0.76586635  0.24909437  1
  Te  Te169  1  0.59501922  0.74367910  0.60034184  1
  Te  Te170  1  0.58026423  0.76336061  0.92039946  1
  Te  Te171  1  0.89375706  0.09620653  0.26520690  1
  Te  Te172  1  0.93190368  0.06767705  0.59976212  1
  Te  Te173  1  0.89371856  0.08290128  0.91315517  1
  Te  Te174  1  0.91900038  0.41559393  0.23691053  1
  Te  Te175  1  0.91687625  0.42839158  0.54821889  1
  Te  Te176  1  0.92303453  0.40162308  0.92892306  1
  Te  Te177  1  0.95382686  0.73825980  0.23051284  1
  Te  Te178  1  0.91042166  0.76351269  0.61363826  1
  Te  Te179  1  0.93957968  0.74923371  0.91725819  1
