# generated using pymatgen
data_In2Te3
_symmetry_space_group_name_H-M   'P 1'
_cell_length_a   18.76647454
_cell_length_b   18.77118974
_cell_length_c   18.76739624
_cell_angle_alpha   90.00546725
_cell_angle_beta   90.01279005
_cell_angle_gamma   89.96979651
_symmetry_Int_Tables_number   1
_chemical_formula_structural   In2Te3
_chemical_formula_sum   'In72 Te108'
_cell_volume   6611.17181209
_cell_formula_units_Z   36
loop_
 _symmetry_equiv_pos_site_id
 _symmetry_equiv_pos_as_xyz
  1  'x, y, z'
loop_
 _atom_site_type_symbol
 _atom_site_label
 _atom_site_symmetry_multiplicity
 _atom_site_fract_x
 _atom_site_fract_y
 _atom_site_fract_z
 _atom_site_occupancy
  In  In0  1  0.33616654  0.50098862  0.18115167  1
  In  In1  1  0.15250228  0.31416433  0.18325080  1
  In  In2  1  0.51801744  0.03167482  0.18705624  1
  In  In3  1  0.16697631  0.49195064  0.65050779  1
  In  In4  1  0.82864226  0.01493390  0.49586587  1
  In  In5  1  0.15141448  -0.00313587  0.50046062  1
  In  In6  1  0.85264104  0.14920778  0.01867620  1
  In  In7  1  0.66684781  0.85993470  0.50568609  1
  In  In8  1  0.33766783  0.17152555  0.49746377  1
  In  In9  1  0.12305483  -0.01782104  0.83945889  1
  In  In10  1  0.85181318  0.82871059  -0.01113252  1
  In  In11  1  0.83880813  0.85430079  0.34526653  1
  In  In12  1  0.32812669  0.68270711  -0.02225999  1
  In  In13  1  0.81398717  0.46019086  0.36815972  1
  In  In14  1  0.32829116  0.15534896  0.16901026  1
  In  In15  1  -0.02111875  0.69019707  -0.00882657  1
  In  In16  1  -0.00694453  0.31784450  0.35399008  1
  In  In17  1  0.48793922  0.66151646  0.16680450  1
  In  In18  1  -0.01068589  0.49944896  0.19917221  1
  In  In19  1  0.83595122  0.49287796  0.65931044  1
  In  In20  1  0.68499109  0.15211125  0.81404575  1
  In  In21  1  0.65624719  0.82362764  0.82470732  1
  In  In22  1  0.00355851  0.50649486  0.82140102  1
  In  In23  1  0.68522639  0.31676698  0.65989324  1
  In  In24  1  0.85219195  0.32207370  0.82544138  1
  In  In25  1  -0.00991209  0.16451499  0.50463759  1
  In  In26  1  0.66456111  0.48931382  0.16645962  1
  In  In27  1  -0.02437253  0.29507251  0.01209880  1
  In  In28  1  -0.00045420  0.48572386  0.52057531  1
  In  In29  1  0.31896858  0.84931477  0.16978386  1
  In  In30  1  0.66047169  0.33300903  0.00124108  1
  In  In31  1  0.33350197  0.01347984  0.34567508  1
  In  In32  1  0.85576369  0.00609989  0.81173177  1
  In  In33  1  0.00469248  0.66943149  0.33235926  1
  In  In34  1  0.49873238  0.65313421  0.49472898  1
  In  In35  1  0.49704540  0.85507859  0.68085880  1
  In  In36  1  0.50513486  0.00179828  0.82817316  1
  In  In37  1  0.14139215  0.12226986  0.01821260  1
  In  In38  1  0.69343817  0.83477840  0.15525030  1
  In  In39  1  0.33719421  0.17649291  0.82467836  1
  In  In40  1  0.68022187  0.66434046  0.66774246  1
  In  In41  1  0.53260042  0.48139086  -0.00298225  1
  In  In42  1  0.52640829  0.01716333  0.49491779  1
  In  In43  1  0.84258602  0.66908787  0.51761651  1
  In  In44  1  0.16780985  0.33551158  0.81521911  1
  In  In45  1  0.00529245  0.87110853  0.18795240  1
  In  In46  1  -0.01519514  0.84629807  0.50517112  1
  In  In47  1  0.33566432  0.32739009  0.35358622  1
  In  In48  1  0.79072003  0.50246009  -0.02503328  1
  In  In49  1  0.83084362  0.01411928  0.18524258  1
  In  In50  1  0.82455909  0.66341659  0.14637727  1
  In  In51  1  0.51168097  0.67058481  0.83427277  1
  In  In52  1  0.00101003  0.16880825  0.82096984  1
  In  In53  1  0.36070572  0.49242897  0.79979004  1
  In  In54  1  0.31975069  0.00985509  0.67498734  1
  In  In55  1  0.32733234  0.86832619  0.82990253  1
  In  In56  1  0.33740663  -0.00324230  0.00281644  1
  In  In57  1  0.33095538  0.66017416  0.33103866  1
  In  In58  1  0.16595856  0.32031076  0.50001592  1
  In  In59  1  0.16685611  0.50193706  0.01918127  1
  In  In60  1  0.50848661  0.49878962  0.67355895  1
  In  In61  1  0.65694619  0.65809600  0.32651581  1
  In  In62  1  0.52575665  0.32333493  0.18117462  1
  In  In63  1  0.67513800  0.00037385  0.01098874  1
  In  In64  1  0.15072215  0.66430633  0.48996690  1
  In  In65  1  0.32075367  0.66179244  0.65073719  1
  In  In66  1  0.14339316  0.70298188  0.81408955  1
  In  In67  1  0.34214692  0.32171988  -0.01621584  1
  In  In68  1  0.13442230  0.68350355  0.16775110  1
  In  In69  1  0.67766980  0.16771686  0.49592910  1
  In  In70  1  0.50353778  0.32457128  0.49745755  1
  In  In71  1  0.33118478  0.80783204  0.50272931  1
  Te  Te72  1  0.04957463  0.07556614  0.12720766  1
  Te  Te73  1  0.07642984  0.08753057  0.40953655  1
  Te  Te74  1  0.09692635  0.08866314  0.74189953  1
  Te  Te75  1  0.06840150  0.40793240  0.09257289  1
  Te  Te76  1  0.08698436  0.42256968  0.41417764  1
  Te  Te77  1  0.06394806  0.40371807  0.72598257  1
  Te  Te78  1  0.07623247  0.78320653  0.06806473  1
  Te  Te79  1  0.08256945  0.77466292  0.40663612  1
  Te  Te80  1  0.04413406  0.78411540  0.74067388  1
  Te  Te81  1  0.43115617  0.09375472  0.07433599  1
  Te  Te82  1  0.43985484  0.10500983  0.40527302  1
  Te  Te83  1  0.43238706  0.09404401  0.73187416  1
  Te  Te84  1  0.42007130  0.41309096  0.08864988  1
  Te  Te85  1  0.42523368  0.42379915  0.41872500  1
  Te  Te86  1  0.42849454  0.38379336  0.72816964  1
  Te  Te87  1  0.41060186  0.76123647  0.08046092  1
  Te  Te88  1  0.43187424  0.75431959  0.40090245  1
  Te  Te89  1  0.40130211  0.74728867  0.75170483  1
  Te  Te90  1  0.73033472  0.10521118  0.10801976  1
  Te  Te91  1  0.75456350  0.09146441  0.38640705  1
  Te  Te92  1  0.78610789  0.09921865  0.71558050  1
  Te  Te93  1  0.76538446  0.40448961  0.08831641  1
  Te  Te94  1  0.70400925  0.37175534  0.41208064  1
  Te  Te95  1  0.75158219  0.41439103  0.76060374  1
  Te  Te96  1  0.74059259  0.73795153  0.04536704  1
  Te  Te97  1  0.75345999  0.74902113  0.41809274  1
  Te  Te98  1  0.76336470  0.75731908  0.74678705  1
  Te  Te99  1  0.07178107  0.22239907  0.26721475  1
  Te  Te100  1  0.07155865  0.25408815  0.59203490  1
  Te  Te101  1  0.09450588  0.25162215  0.92311209  1
  Te  Te102  1  0.10432735  0.57149320  0.26792444  1
  Te  Te103  1  0.06661896  0.59670313  0.59989107  1
  Te  Te104  1  0.08992598  0.59726954  0.92194549  1
  Te  Te105  1  0.10869109  0.96357115  0.23651293  1
  Te  Te106  1  0.05922489  0.93437981  0.60078330  1
  Te  Te107  1  0.09225563  0.89259619  0.95063516  1
  Te  Te108  1  0.41828954  0.24217302  0.25597041  1
  Te  Te109  1  0.41842392  0.25016765  0.59349533  1
  Te  Te110  1  0.44079275  0.24735497  0.90528554  1
  Te  Te111  1  0.43997672  0.56357435  0.27316074  1
  Te  Te112  1  0.40563483  0.56188641  0.57592746  1
  Te  Te113  1  0.42013524  0.57189574  0.92498078  1
  Te  Te114  1  0.42136745  0.92998757  0.25128536  1
  Te  Te115  1  0.40806192  0.92349418  0.57609295  1
  Te  Te116  1  0.43767254  0.90659058  0.92689440  1
  Te  Te117  1  0.73388311  0.19018251  0.26093036  1
  Te  Te118  1  0.78348718  0.25756828  0.55971198  1
  Te  Te119  1  0.76619531  0.23669302  0.92255322  1
  Te  Te120  1  0.76808069  0.57356836  0.25649353  1
  Te  Te121  1  0.73865715  0.56793882  0.56444324  1
  Te  Te122  1  0.71403146  0.59314748  0.89335771  1
  Te  Te123  1  0.73105813  0.93048537  0.26863783  1
  Te  Te124  1  0.77484749  0.91111206  0.58903591  1
  Te  Te125  1  0.75704609  0.92674096  0.90612608  1
  Te  Te126  1  0.24321503  0.24619160  0.07622355  1
  Te  Te127  1  0.23296949  0.22491671  0.39950254  1
  Te  Te128  1  0.25440031  0.25419554  0.72916164  1
  Te  Te129  1  0.25816136  0.60653779  0.09910404  1
  Te  Te130  1  0.25574696  0.58007146  0.43004015  1
  Te  Te131  1  0.24007291  0.58494541  0.76190791  1
  Te  Te132  1  0.23052652  0.92947432  0.08051545  1
  Te  Te133  1  0.25037138  0.90893279  0.41948320  1
  Te  Te134  1  0.22041409  0.91205355  0.73380627  1
  Te  Te135  1  0.57420346  0.23662938  0.07309248  1
  Te  Te136  1  0.59664279  0.25367759  0.39885065  1
  Te  Te137  1  0.59096095  0.24647600  0.75008559  1
  Te  Te138  1  0.59526027  0.59379888  0.08040337  1
  Te  Te139  1  0.59444257  0.56662025  0.42289705  1
  Te  Te140  1  0.60910524  0.56822834  0.77521177  1
  Te  Te141  1  0.57862580  0.92047259  0.09740520  1
  Te  Te142  1  0.58179218  0.91711089  0.40129677  1
  Te  Te143  1  0.61040679  0.94014973  0.73366545  1
  Te  Te144  1  0.90488687  0.23755880  0.12986360  1
  Te  Te145  1  0.88565001  0.24052691  0.42446348  1
  Te  Te146  1  0.91573683  0.23954491  0.72151652  1
  Te  Te147  1  0.92596967  0.57129759  0.07837917  1
  Te  Te148  1  0.91707264  0.57483383  0.41363247  1
  Te  Te149  1  0.90495944  0.58835955  0.74939073  1
  Te  Te150  1  0.91317087  0.93208344  0.08175083  1
  Te  Te151  1  0.93887173  0.95121179  0.40037695  1
  Te  Te152  1  0.96364442  0.91832295  0.75818300  1
  Te  Te153  1  0.23471536  0.06506640  0.24269132  1
  Te  Te154  1  0.23571999  0.09684875  0.58369021  1
  Te  Te155  1  0.24932137  0.07993064  0.90711347  1
  Te  Te156  1  0.24341438  0.41092804  0.26047795  1
  Te  Te157  1  0.26046448  0.40455415  0.57934440  1
  Te  Te158  1  0.25374059  0.42683837  0.91287651  1
  Te  Te159  1  0.23478847  0.75687465  0.25828560  1
  Te  Te160  1  0.21845735  0.75845412  0.59370583  1
  Te  Te161  1  0.23095416  0.78225747  0.91529039  1
  Te  Te162  1  0.60227779  0.12448959  0.27863141  1
  Te  Te163  1  0.60124453  0.09095518  0.59724839  1
  Te  Te164  1  0.59046357  0.08899158  0.91930504  1
  Te  Te165  1  0.60674861  0.40668026  0.27630784  1
  Te  Te166  1  0.59707327  0.41485578  0.58068697  1
  Te  Te167  1  0.57779990  0.39001922  0.89092952  1
  Te  Te168  1  0.58566739  0.75754478  0.23792816  1
  Te  Te169  1  0.57142126  0.75146014  0.59424848  1
  Te  Te170  1  0.57022165  0.76578840  0.93011829  1
  Te  Te171  1  0.93959171  0.10471255  0.23468887  1
  Te  Te172  1  0.91089730  0.07970236  0.60366968  1
  Te  Te173  1  0.94102777  0.07131197  0.92261124  1
  Te  Te174  1  0.89649229  0.39420466  0.25737563  1
  Te  Te175  1  0.89234818  0.39225085  0.56334429  1
  Te  Te176  1  0.92424614  0.41900066  0.92220866  1
  Te  Te177  1  0.90938614  0.75327817  0.23859765  1
  Te  Te178  1  0.92059687  0.75638436  0.60691325  1
  Te  Te179  1  0.90973540  0.75161177  0.87446809  1
