# generated using pymatgen
data_In2Te3
_symmetry_space_group_name_H-M   'P 1'
_cell_length_a   18.78653988
_cell_length_b   18.79118776
_cell_length_c   18.78951732
_cell_angle_alpha   90.03123811
_cell_angle_beta   89.98861420
_cell_angle_gamma   90.07001737
_symmetry_Int_Tables_number   1
_chemical_formula_structural   In2Te3
_chemical_formula_sum   'In72 Te108'
_cell_volume   6633.09560829
_cell_formula_units_Z   36
loop_
 _symmetry_equiv_pos_site_id
 _symmetry_equiv_pos_as_xyz
  1  'x, y, z'
loop_
 _atom_site_type_symbol
 _atom_site_label
 _atom_site_symmetry_multiplicity
 _atom_site_fract_x
 _atom_site_fract_y
 _atom_site_fract_z
 _atom_site_occupancy
  In  In0  1  0.84713065  0.66703151  0.13908251  1
  In  In1  1  0.32452346  0.81110741  0.49224462  1
  In  In2  1  0.50278588  0.82949422  -0.00931672  1
  In  In3  1  0.50284623  0.32645932  0.82980076  1
  In  In4  1  0.02271823  0.67119519  0.67223596  1
  In  In5  1  0.85394370  0.84376530  0.00957327  1
  In  In6  1  0.16613410  -0.00767381  0.84921491  1
  In  In7  1  0.51748471  -0.01558800  0.48946649  1
  In  In8  1  0.14789617  0.84652283  0.01263268  1
  In  In9  1  0.67280684  0.29906271  0.65274749  1
  In  In10  1  0.01809277  0.00806829  0.32782861  1
  In  In11  1  0.01051812  0.83210896  0.47887040  1
  In  In12  1  0.01117362  0.49448179  0.52012945  1
  In  In13  1  0.31960571  0.32874899  0.65372108  1
  In  In14  1  0.31858440  0.66751914  0.66498877  1
  In  In15  1  0.67962613  0.86425342  0.51356001  1
  In  In16  1  0.82768007  0.84245026  0.67763084  1
  In  In17  1  0.82208921  0.65152162  0.50861810  1
  In  In18  1  0.69935953  0.30794461  -0.01693430  1
  In  In19  1  0.50185912  0.85209316  0.66755529  1
  In  In20  1  0.33376341  0.50502958  0.84772655  1
  In  In21  1  0.02499209  0.34420667  0.02101524  1
  In  In22  1  0.20445342  0.49502939  0.32243101  1
  In  In23  1  0.33869803  0.84186102  0.83021775  1
  In  In24  1  0.83651764  0.30302939  0.82277311  1
  In  In25  1  0.82809738  0.14708438  0.32868984  1
  In  In26  1  0.15487213  0.33387507  0.81446408  1
  In  In27  1  0.47155923  0.35165199  0.49151825  1
  In  In28  1  0.16348780  0.17558476  0.67717103  1
  In  In29  1  0.13035699  0.02510695  0.50643102  1
  In  In30  1  0.15578877  0.31651519  0.50288179  1
  In  In31  1  0.67797820  0.48230191  0.46464178  1
  In  In32  1  0.00225323  0.16062362  0.83907558  1
  In  In33  1  0.68369815  0.52087539  0.84562561  1
  In  In34  1  0.68832108  0.68011273  0.69171560  1
  In  In35  1  0.68074020  0.15215364  0.50208891  1
  In  In36  1  0.67187250  0.69904970  0.00032815  1
  In  In37  1  0.49686538  0.15421749  0.00161656  1
  In  In38  1  0.46936153  0.48372013  -0.01362876  1
  In  In39  1  0.85505978  -0.00527292  0.84125601  1
  In  In40  1  0.85247480  0.48703122  0.67817131  1
  In  In41  1  0.00179165  0.15957568  0.14127597  1
  In  In42  1  0.67151951  0.01652669  -0.01189283  1
  In  In43  1  0.83109468  0.86481144  0.31819871  1
  In  In44  1  0.49714024  0.52590846  0.64437499  1
  In  In45  1  0.32399545  -0.00266772  0.31938243  1
  In  In46  1  0.85787366  0.49054262  0.02181852  1
  In  In47  1  0.32902160  0.18147206  0.49749473  1
  In  In48  1  0.32834838  0.65335726  0.01941549  1
  In  In49  1  0.01550977  0.50047094  0.82735898  1
  In  In50  1  0.00078354  0.67620436  0.33465583  1
  In  In51  1  0.35617805  0.02387425  0.70550307  1
  In  In52  1  0.67661780  0.00334941  0.68837755  1
  In  In53  1  0.30883821  0.33549157  0.03026541  1
  In  In54  1  0.66219969  0.51232908  0.16934109  1
  In  In55  1  0.65434154  0.67334081  0.33236135  1
  In  In56  1  0.83437003  0.45902786  0.32982471  1
  In  In57  1  0.85568598  0.30443276  0.18854717  1
  In  In58  1  -0.00698961  0.32419114  0.32185676  1
  In  In59  1  0.15430824  0.00984682  0.16101266  1
  In  In60  1  0.45646207  0.51263445  0.33591731  1
  In  In61  1  0.49452477  0.65987879  0.17624633  1
  In  In62  1  0.67457817  0.13816479  0.13882879  1
  In  In63  1  0.17150362  0.82793320  0.32515403  1
  In  In64  1  0.16181489  0.66631173  0.83557534  1
  In  In65  1  0.16266423  0.68471284  0.15895723  1
  In  In66  1  0.48211266  0.00078873  0.15060595  1
  In  In67  1  0.66581763  0.35703749  0.34639051  1
  In  In68  1  0.46420281  0.32129699  0.15803434  1
  In  In69  1  0.50286670  0.17536998  0.31133681  1
  In  In70  1  0.32100132  0.00619807  0.01016925  1
  In  In71  1  0.47007540  0.69287531  0.51330703  1
  Te  Te72  1  0.07661216  0.06950563  0.04724016  1
  Te  Te73  1  0.10321147  0.11316708  0.39053156  1
  Te  Te74  1  0.07987490  0.06815669  0.74356310  1
  Te  Te75  1  0.12233563  0.42698473  0.09724994  1
  Te  Te76  1  0.08400284  0.42091771  0.40212736  1
  Te  Te77  1  0.07391629  0.41483490  0.72160370  1
  Te  Te78  1  0.05521085  0.75276193  0.08066237  1
  Te  Te79  1  0.10999327  0.72870847  0.42673696  1
  Te  Te80  1  0.07875555  0.76933929  0.76859680  1
  Te  Te81  1  0.38979824  0.11085091  0.10192139  1
  Te  Te82  1  0.42425349  0.08530697  0.41562230  1
  Te  Te83  1  0.45672487  0.09533432  0.78308477  1
  Te  Te84  1  0.39173737  0.44567688  0.10932190  1
  Te  Te85  1  0.36578809  0.41380157  0.40576100  1
  Te  Te86  1  0.42154727  0.42784182  0.74361179  1
  Te  Te87  1  0.41165764  0.75974383  0.09027565  1
  Te  Te88  1  0.41879254  0.75778033  0.39137340  1
  Te  Te89  1  0.42208553  0.74573542  0.74501848  1
  Te  Te90  1  0.78815272  0.06363851  0.07416213  1
  Te  Te91  1  0.73621930  0.05201124  0.40226297  1
  Te  Te92  1  0.77305118  0.09238047  0.76085535  1
  Te  Te93  1  0.74890986  0.40923671  0.09701992  1
  Te  Te94  1  0.78444872  0.37184679  0.44457280  1
  Te  Te95  1  0.73543500  0.40629484  0.75582913  1
  Te  Te96  1  0.74620404  0.77569419  0.10823174  1
  Te  Te97  1  0.75892336  0.75784836  0.41935230  1
  Te  Te98  1  0.78126001  0.74740569  0.78776152  1
  Te  Te99  1  0.08565646  0.24901699  0.22811467  1
  Te  Te100  1  0.05909852  0.22451546  0.57647516  1
  Te  Te101  1  0.09607636  0.24808708  0.92532332  1
  Te  Te102  1  0.09627691  0.58637927  0.26015719  1
  Te  Te103  1  0.10450478  0.59277495  0.57701632  1
  Te  Te104  1  0.07459264  0.59001899  0.92924945  1
  Te  Te105  1  0.07364073  0.90032855  0.23514815  1
  Te  Te106  1  0.05382457  0.92659959  0.58430449  1
  Te  Te107  1  0.05962055  0.90467975  0.90849599  1
  Te  Te108  1  0.39216989  0.26481865  0.27350788  1
  Te  Te109  1  0.43106303  0.24436870  0.59398713  1
  Te  Te110  1  0.41331001  0.26460797  0.93662505  1
  Te  Te111  1  0.37533880  0.59910758  0.24486667  1
  Te  Te112  1  0.38123174  0.56990145  0.55349605  1
  Te  Te113  1  0.42666188  0.60832957  0.90993847  1
  Te  Te114  1  0.41807049  0.91025333  0.24805360  1
  Te  Te115  1  0.40399671  0.92378631  0.57760990  1
  Te  Te116  1  0.42082268  0.93599512  0.91637952  1
  Te  Te117  1  0.72845613  0.24728052  0.25196924  1
  Te  Te118  1  0.78227226  0.21356918  0.59516590  1
  Te  Te119  1  0.75335153  0.20090497  0.89492871  1
  Te  Te120  1  0.76318820  0.58301631  0.26074011  1
  Te  Te121  1  0.73528888  0.56238819  0.59560443  1
  Te  Te122  1  0.77381726  0.59366886  0.94328439  1
  Te  Te123  1  0.72544775  0.95691308  0.27490525  1
  Te  Te124  1  0.78071155  0.95410821  0.58381505  1
  Te  Te125  1  0.75032809  0.91030348  0.91384260  1
  Te  Te126  1  0.21259719  0.26105941  0.11639601  1
  Te  Te127  1  0.23766271  0.24591662  0.40141103  1
  Te  Te128  1  0.26924623  0.24138041  0.76730763  1
  Te  Te129  1  0.21582417  0.57194758  0.07089979  1
  Te  Te130  1  0.28887074  0.56747236  0.42136273  1
  Te  Te131  1  0.23753368  0.56702613  0.74697212  1
  Te  Te132  1  0.25413773  0.90676986  0.10351623  1
  Te  Te133  1  0.23242441  0.92867710  0.42583769  1
  Te  Te134  1  0.24888454  0.91975430  0.73649561  1
  Te  Te135  1  0.58363603  0.25892015  0.08685599  1
  Te  Te136  1  0.58008997  0.25203290  0.42757732  1
  Te  Te137  1  0.58384804  0.23044970  0.75131972  1
  Te  Te138  1  0.57856699  0.58557611  0.06533921  1
  Te  Te139  1  0.56862784  0.58347813  0.42305390  1
  Te  Te140  1  0.58017862  0.59106413  0.75714894  1
  Te  Te141  1  0.58972188  0.92211605  0.07712074  1
  Te  Te142  1  0.57897155  0.88014404  0.40582899  1
  Te  Te143  1  0.60355281  0.89717086  0.76350830  1
  Te  Te144  1  0.90738655  0.25042287  0.05775194  1
  Te  Te145  1  0.92704904  0.22152856  0.41545870  1
  Te  Te146  1  0.94183635  0.24857203  0.73550779  1
  Te  Te147  1  0.95688870  0.58759738  0.07826105  1
  Te  Te148  1  0.91230284  0.57087190  0.41554898  1
  Te  Te149  1  0.91607480  0.59683784  0.75769279  1
  Te  Te150  1  0.89012446  0.94841799  0.10594855  1
  Te  Te151  1  0.91758548  0.93893490  0.42020284  1
  Te  Te152  1  0.93815745  0.91070915  0.74917586  1
  Te  Te153  1  0.23469925  0.09404819  0.25320070  1
  Te  Te154  1  0.25710196  0.08398041  0.59253093  1
  Te  Te155  1  0.25140545  0.09378474  0.91475370  1
  Te  Te156  1  0.22032938  0.38813059  0.21498942  1
  Te  Te157  1  0.22175404  0.41681932  0.58993606  1
  Te  Te158  1  0.23681509  0.41408847  0.91909270  1
  Te  Te159  1  0.26572929  0.73542308  0.25598678  1
  Te  Te160  1  0.22973737  0.76040214  0.59337160  1
  Te  Te161  1  0.25466436  0.75926573  0.92740137  1
  Te  Te162  1  0.58838328  0.06783832  0.24782582  1
  Te  Te163  1  0.58134147  0.07729011  0.59208180  1
  Te  Te164  1  0.57120471  0.08080059  0.89311686  1
  Te  Te165  1  0.56462695  0.42693083  0.25296933  1
  Te  Te166  1  0.58314156  0.41217994  0.58446646  1
  Te  Te167  1  0.59532772  0.41751114  0.92622617  1
  Te  Te168  1  0.59295506  0.75724519  0.22889690  1
  Te  Te169  1  0.59764131  0.74527256  0.58334993  1
  Te  Te170  1  0.58875463  0.75751157  0.89280475  1
  Te  Te171  1  0.91374309  0.06764661  0.22935478  1
  Te  Te172  1  0.93232766  0.13862840  0.54755615  1
  Te  Te173  1  0.94962195  0.06156637  0.93993850  1
  Te  Te174  1  0.93652601  0.43007813  0.22138450  1
  Te  Te175  1  0.91974593  0.39702070  0.58354274  1
  Te  Te176  1  0.91840831  0.40432624  0.90941913  1
  Te  Te177  1  0.91418236  0.76028244  0.24329572  1
  Te  Te178  1  0.91476528  0.74854422  0.57913320  1
  Te  Te179  1  0.88057540  0.74036602  0.90962890  1
