# generated using pymatgen
data_In2Te3
_symmetry_space_group_name_H-M   'P 1'
_cell_length_a   18.74146100
_cell_length_b   18.73606480
_cell_length_c   18.74917472
_cell_angle_alpha   90.03053757
_cell_angle_beta   89.97745781
_cell_angle_gamma   89.99269112
_symmetry_Int_Tables_number   1
_chemical_formula_structural   In2Te3
_chemical_formula_sum   'In72 Te108'
_cell_volume   6583.60673243
_cell_formula_units_Z   36
loop_
 _symmetry_equiv_pos_site_id
 _symmetry_equiv_pos_as_xyz
  1  'x, y, z'
loop_
 _atom_site_type_symbol
 _atom_site_label
 _atom_site_symmetry_multiplicity
 _atom_site_fract_x
 _atom_site_fract_y
 _atom_site_fract_z
 _atom_site_occupancy
  In  In0  1  0.49234888  0.32256080  0.50358244  1
  In  In1  1  0.82149698  0.50796015  0.65079596  1
  In  In2  1  0.66839195  0.83823289  0.82203207  1
  In  In3  1  0.82443823  0.16626739  0.35351153  1
  In  In4  1  0.34521821  0.83662372  0.48224338  1
  In  In5  1  0.51873905  0.03863467  0.19302017  1
  In  In6  1  0.50807410  0.51420346  0.00951708  1
  In  In7  1  0.00067738  0.64945123  0.66484827  1
  In  In8  1  0.66875762  0.00626509  -0.02470772  1
  In  In9  1  0.16890738  0.46934590  -0.00977245  1
  In  In10  1  0.82564382  0.67069395  0.50670322  1
  In  In11  1  0.17109187  0.65310631  0.85053570  1
  In  In12  1  0.50399881  0.32133523  0.83939225  1
  In  In13  1  0.79905427  0.51465464  0.31274252  1
  In  In14  1  0.81893041  0.84770168  -0.00790253  1
  In  In15  1  -0.00104560  0.68514536  0.33659655  1
  In  In16  1  0.00498196  0.16766753  0.50535040  1
  In  In17  1  0.16212565  0.17994251  -0.01228994  1
  In  In18  1  0.66862334  0.34718836  0.34252536  1
  In  In19  1  0.33054902  0.66740341  0.67399377  1
  In  In20  1  -0.00445949  0.84705349  0.81610474  1
  In  In21  1  0.16113706  0.82370986  -0.01836099  1
  In  In22  1  0.49827174  0.01184395  0.81832434  1
  In  In23  1  0.16549814  0.01021411  0.82070372  1
  In  In24  1  0.65419915  0.32733027  0.65961826  1
  In  In25  1  0.47610855  0.83816669  0.01860723  1
  In  In26  1  -0.01623121  0.63708437  0.02110431  1
  In  In27  1  0.64782031  0.64950883  0.01368444  1
  In  In28  1  -0.00154710  0.01119816  0.35258655  1
  In  In29  1  0.66453892  0.83023501  0.17350790  1
  In  In30  1  0.19806279  0.49561996  0.34239679  1
  In  In31  1  0.84418352  0.32455859  0.84550138  1
  In  In32  1  0.34897236  0.01348181  0.01549055  1
  In  In33  1  0.19033125  0.83763301  0.33290844  1
  In  In34  1  0.63854974  0.49196288  0.84263421  1
  In  In35  1  -0.00372427  0.49091671  0.52124249  1
  In  In36  1  0.66519059  0.17685339  0.83314024  1
  In  In37  1  0.82793264  0.66691381  0.82686705  1
  In  In38  1  0.78736472  0.34581043  0.16221639  1
  In  In39  1  0.34777245  0.66189513  0.00873598  1
  In  In40  1  0.50882280  0.82487756  0.33728880  1
  In  In41  1  -0.03735501  0.84282514  0.17348363  1
  In  In42  1  0.17151702  0.02324612  0.17733440  1
  In  In43  1  0.65274730  0.16030343  0.50409126  1
  In  In44  1  0.35458968  0.50900406  0.18673241  1
  In  In45  1  0.35498755  0.50455879  0.48815010  1
  In  In46  1  0.01838486  0.85431866  0.49272808  1
  In  In47  1  0.80676844  -0.00085845  0.15925677  1
  In  In48  1  0.13789681  0.46663073  0.69094497  1
  In  In49  1  0.83524849  0.86201517  0.67432254  1
  In  In50  1  0.01307738  0.18031945  0.16989767  1
  In  In51  1  0.00364659  0.31063546  0.31864721  1
  In  In52  1  0.51617647  0.82979896  0.65658034  1
  In  In53  1  0.66291528  0.84662757  0.49898681  1
  In  In54  1  -0.00333028  0.32315218  -0.00790209  1
  In  In55  1  -0.00472340  0.48817518  0.14531122  1
  In  In56  1  0.17239636  0.67981249  0.18360106  1
  In  In57  1  0.17611199  0.17157621  0.67304215  1
  In  In58  1  0.34472865  0.81569599  0.15240086  1
  In  In59  1  0.16193768  0.85909626  0.64742269  1
  In  In60  1  0.35050514  0.32392833  0.33356056  1
  In  In61  1  0.53037664  0.30701399  0.16113007  1
  In  In62  1  0.83950096  0.16535119  0.66856116  1
  In  In63  1  0.51629026  0.48281510  0.66241126  1
  In  In64  1  0.34509911  0.31133420  0.66380722  1
  In  In65  1  0.49108925  0.65515726  0.83401049  1
  In  In66  1  0.17913801  0.32165780  0.49724206  1
  In  In67  1  0.35914927  0.01333660  0.35461149  1
  In  In68  1  0.82847749  0.82546270  0.32695039  1
  In  In69  1  0.85038713  0.15134195  -0.02502536  1
  In  In70  1  0.33314275  0.01410577  0.66286113  1
  In  In71  1  0.32376975  0.32193983  -0.00785936  1
  Te  Te72  1  0.07672053  0.08170504  0.07171266  1
  Te  Te73  1  0.09755581  0.10805235  0.40270260  1
  Te  Te74  1  0.07042191  0.09195760  0.74332008  1
  Te  Te75  1  0.09539095  0.38456859  0.09483749  1
  Te  Te76  1  0.08287639  0.41763295  0.40966003  1
  Te  Te77  1  0.06208387  0.37477715  0.77863586  1
  Te  Te78  1  0.07383408  0.75203595  0.08677579  1
  Te  Te79  1  0.10490490  0.74700721  0.42606666  1
  Te  Te80  1  0.09337386  0.74520168  0.75110587  1
  Te  Te81  1  0.42157756  0.10873874  0.10317502  1
  Te  Te82  1  0.44708664  0.09647071  0.44728810  1
  Te  Te83  1  0.40615577  0.10751688  0.75323805  1
  Te  Te84  1  0.41781973  0.41392921  0.08552480  1
  Te  Te85  1  0.44785261  0.42869685  0.39216608  1
  Te  Te86  1  0.41766789  0.41530049  0.75435727  1
  Te  Te87  1  0.45233516  0.71461315  0.10635265  1
  Te  Te88  1  0.44359459  0.73023991  0.43617103  1
  Te  Te89  1  0.41817924  0.76387381  0.75533180  1
  Te  Te90  1  0.72859435  0.10364961  0.07922691  1
  Te  Te91  1  0.74266997  0.06788215  0.42750508  1
  Te  Te92  1  0.73038833  0.08755578  0.73544766  1
  Te  Te93  1  0.76433455  0.45568038  0.06802677  1
  Te  Te94  1  0.75973494  0.42872420  0.42632455  1
  Te  Te95  1  0.73835466  0.41033749  0.75693417  1
  Te  Te96  1  0.75189662  0.74484754  0.08041214  1
  Te  Te97  1  0.73354887  0.73729186  0.40564569  1
  Te  Te98  1  0.74617594  0.74705916  0.72647094  1
  Te  Te99  1  0.11569013  0.22875698  0.26649807  1
  Te  Te100  1  0.07712635  0.26903980  0.59477252  1
  Te  Te101  1  0.08056338  0.25730162  0.88428194  1
  Te  Te102  1  0.07700511  0.57787663  0.24867055  1
  Te  Te103  1  0.10568604  0.57884463  0.58106275  1
  Te  Te104  1  0.06863370  0.56103866  0.91703573  1
  Te  Te105  1  0.07850986  0.90925559  0.25171756  1
  Te  Te106  1  0.06939584  0.95671610  0.58691860  1
  Te  Te107  1  0.07483718  0.93044315  0.91915618  1
  Te  Te108  1  0.42840757  0.23295424  0.24206973  1
  Te  Te109  1  0.40411261  0.21453376  0.56284616  1
  Te  Te110  1  0.42144901  0.23217503  0.92358102  1
  Te  Te111  1  0.43361453  0.59449349  0.27776938  1
  Te  Te112  1  0.43294897  0.58971736  0.59068595  1
  Te  Te113  1  0.39973090  0.55857061  0.90803313  1
  Te  Te114  1  0.41928005  0.91916452  0.23954970  1
  Te  Te115  1  0.42709426  0.92435227  0.57559831  1
  Te  Te116  1  0.41093963  0.92038975  0.90982748  1
  Te  Te117  1  0.73036383  0.22837174  0.24858874  1
  Te  Te118  1  0.75373784  0.25393174  0.57242272  1
  Te  Te119  1  0.74303977  0.25693162  0.93865102  1
  Te  Te120  1  0.69825221  0.60068091  0.24892243  1
  Te  Te121  1  0.72345555  0.58251354  0.56937805  1
  Te  Te122  1  0.74482324  0.57619272  0.91746973  1
  Te  Te123  1  0.72928402  0.92982862  0.26991346  1
  Te  Te124  1  0.74721067  0.93801459  0.58336293  1
  Te  Te125  1  0.76894189  0.94016748  0.88083683  1
  Te  Te126  1  0.24666804  0.24242301  0.09100761  1
  Te  Te127  1  0.27200329  0.23427989  0.42292492  1
  Te  Te128  1  0.24966638  0.26350076  0.76753015  1
  Te  Te129  1  0.23817726  0.58280461  0.08262811  1
  Te  Te130  1  0.26191313  0.60040656  0.42167794  1
  Te  Te131  1  0.24552558  0.56503677  0.75039390  1
  Te  Te132  1  0.24137495  0.91045494  0.08482674  1
  Te  Te133  1  0.24371868  0.94087285  0.43044610  1
  Te  Te134  1  0.25864176  0.90959771  0.75240580  1
  Te  Te135  1  0.62564537  0.22942096  0.07901797  1
  Te  Te136  1  0.57058660  0.24170465  0.39641754  1
  Te  Te137  1  0.56133721  0.23077684  0.72866781  1
  Te  Te138  1  0.60576090  0.54988757  0.12170132  1
  Te  Te139  1  0.51746082  0.58401824  0.40298696  1
  Te  Te140  1  0.59331233  0.59469382  0.73960324  1
  Te  Te141  1  0.58351591  0.92781187  0.08262660  1
  Te  Te142  1  0.57582563  0.93269096  0.41300608  1
  Te  Te143  1  0.59892543  0.93835761  0.72973846  1
  Te  Te144  1  0.89884320  0.25070178  0.09495079  1
  Te  Te145  1  0.91021494  0.26570251  0.42992870  1
  Te  Te146  1  0.93305210  0.25205734  0.75085214  1
  Te  Te147  1  0.87390410  0.56632492  0.09673522  1
  Te  Te148  1  0.91907858  0.58198535  0.41829727  1
  Te  Te149  1  0.91934115  0.56369605  0.75931103  1
  Te  Te150  1  0.91546063  0.94092025  0.06665315  1
  Te  Te151  1  0.89844090  0.92025944  0.42488594  1
  Te  Te152  1  0.92158669  0.96256317  0.75302327  1
  Te  Te153  1  0.27704919  0.08918374  0.25581002  1
  Te  Te154  1  0.23990098  0.08380845  0.57084980  1
  Te  Te155  1  0.26035320  0.08767295  0.91417826  1
  Te  Te156  1  0.25506164  0.40417806  0.23737544  1
  Te  Te157  1  0.25983352  0.41940103  0.58510064  1
  Te  Te158  1  0.24475680  0.39384132  0.88608293  1
  Te  Te159  1  0.28492227  0.73481853  0.27054863  1
  Te  Te160  1  0.25254405  0.75721057  0.57746628  1
  Te  Te161  1  0.27358590  0.75188239  0.90854057  1
  Te  Te162  1  0.61211397  0.12429461  0.26908562  1
  Te  Te163  1  0.54114369  0.08287505  0.56615572  1
  Te  Te164  1  0.56211030  0.10216320  0.92540445  1
  Te  Te165  1  0.59009348  0.42119601  0.23814756  1
  Te  Te166  1  0.60037659  0.42178469  0.55135263  1
  Te  Te167  1  0.58526753  0.39621255  0.94744686  1
  Te  Te168  1  0.59347471  0.72729775  0.25664361  1
  Te  Te169  1  0.59541657  0.73644325  0.57437971  1
  Te  Te170  1  0.58006628  0.75903432  0.91901449  1
  Te  Te171  1  0.91210782  0.08187989  0.24544597  1
  Te  Te172  1  0.91243684  0.07432451  0.57403705  1
  Te  Te173  1  0.91222983  0.06331079  0.87572321  1
  Te  Te174  1  0.90673383  0.41022322  0.25254760  1
  Te  Te175  1  0.91159668  0.40191282  0.60152445  1
  Te  Te176  1  0.90974518  0.42661793  0.93174148  1
  Te  Te177  1  0.89234026  0.72128057  0.23267600  1
  Te  Te178  1  0.92631533  0.75884275  0.58685136  1
  Te  Te179  1  0.92139918  0.74945792  0.91860778  1
