# generated using pymatgen
data_In2Te3
_symmetry_space_group_name_H-M   'P 1'
_cell_length_a   18.98005622
_cell_length_b   18.97419588
_cell_length_c   19.00551072
_cell_angle_alpha   89.91124093
_cell_angle_beta   89.94033051
_cell_angle_gamma   89.96872842
_symmetry_Int_Tables_number   1
_chemical_formula_structural   In2Te3
_chemical_formula_sum   'In72 Te108'
_cell_volume   6844.46642931
_cell_formula_units_Z   36
loop_
 _symmetry_equiv_pos_site_id
 _symmetry_equiv_pos_as_xyz
  1  'x, y, z'
loop_
 _atom_site_type_symbol
 _atom_site_label
 _atom_site_symmetry_multiplicity
 _atom_site_fract_x
 _atom_site_fract_y
 _atom_site_fract_z
 _atom_site_occupancy
  In  In0  1  0.51897123  0.14853878  0.00550843  1
  In  In1  1  0.83588997  0.17154830  0.67250681  1
  In  In2  1  0.85872771  0.02901621  0.23877443  1
  In  In3  1  0.50180283  0.32940563  0.84430339  1
  In  In4  1  0.50323010  0.31315338  0.51572301  1
  In  In5  1  0.69673701  0.33095940  0.02115542  1
  In  In6  1  0.70411186  0.14900484  0.46910030  1
  In  In7  1  0.51299013  -0.01967722  0.49891840  1
  In  In8  1  0.83904940  0.16497690  0.00456688  1
  In  In9  1  0.50770191  0.65923601  0.85302295  1
  In  In10  1  0.49309382  0.84138506  0.66145088  1
  In  In11  1  -0.01642677  0.66161819  0.31606260  1
  In  In12  1  -0.00604506  0.66919480  0.65934166  1
  In  In13  1  0.48291319  0.49737927  0.66615273  1
  In  In14  1  0.15115803  0.00727749  0.17787254  1
  In  In15  1  0.32276482  0.01388905  0.66730343  1
  In  In16  1  0.82075778  0.66418738  0.81191856  1
  In  In17  1  0.84021860  0.84781839  0.32840356  1
  In  In18  1  0.68003398  -0.01888737  -0.00161005  1
  In  In19  1  0.00665976  0.66338869  0.00458165  1
  In  In20  1  0.66918984  0.16009950  0.85352970  1
  In  In21  1  0.33145063  0.34990350  0.30658205  1
  In  In22  1  0.48859137  0.82044452  -0.01195882  1
  In  In23  1  0.17338142  0.20317798  -0.00629530  1
  In  In24  1  0.70598718  0.47509940  0.48020417  1
  In  In25  1  0.32982758  -0.01648744  -0.00327550  1
  In  In26  1  0.65632209  0.01165983  0.65730002  1
  In  In27  1  0.14414628  0.82545075  0.31383326  1
  In  In28  1  0.01332170  0.33067177  0.34416995  1
  In  In29  1  0.83328394  0.84234587  0.02934102  1
  In  In30  1  0.50323431  0.49914170  0.33187997  1
  In  In31  1  0.31444361  0.80777680  0.84303262  1
  In  In32  1  0.65111049  0.48762708  0.82959881  1
  In  In33  1  0.48962548  0.58221441  0.06394277  1
  In  In34  1  -0.01668548  0.16344074  0.46809330  1
  In  In35  1  0.49415448  0.17709437  0.34015657  1
  In  In36  1  0.79936932  0.66198405  0.17915216  1
  In  In37  1  0.16772883  -0.00696724  0.83633509  1
  In  In38  1  0.15895295  0.65867114  0.85349698  1
  In  In39  1  0.86278263  0.35544813  0.15454826  1
  In  In40  1  0.65033142  0.81825097  0.18253450  1
  In  In41  1  0.50532194  0.02060918  0.18195897  1
  In  In42  1  0.16524636  0.33042051  0.49892075  1
  In  In43  1  0.18585244  0.15497970  0.66638353  1
  In  In44  1  0.67593492  0.33237699  0.68567930  1
  In  In45  1  0.33016371  0.21059916  0.82195200  1
  In  In46  1  0.85003823  0.50497081  0.66897578  1
  In  In47  1  0.51019193  0.72277478  0.42317965  1
  In  In48  1  0.31374307  0.65647577  0.65634295  1
  In  In49  1  0.00096754  -0.00591409  0.00043894  1
  In  In50  1  0.00054629  0.82003887  0.82513798  1
  In  In51  1  0.02036834  -0.02567335  0.61943713  1
  In  In52  1  0.30196854  0.49535731  0.49754396  1
  In  In53  1  0.67252859  0.64189905  0.31975205  1
  In  In54  1  0.82630613  0.84159809  0.66472984  1
  In  In55  1  0.69801910  0.18718074  0.20216120  1
  In  In56  1  0.11341129  0.36479700  0.15815051  1
  In  In57  1  0.35228049  0.16128165  0.50783331  1
  In  In58  1  0.51926396  0.36760319  0.17209366  1
  In  In59  1  0.83961908  0.66147050  0.49663789  1
  In  In60  1  0.00880566  0.16833863  0.84513329  1
  In  In61  1  0.32125122  0.52005502  0.17670708  1
  In  In62  1  0.01430596  0.34434000  0.66120531  1
  In  In63  1  0.66625981  0.83490729  0.50991339  1
  In  In64  1  0.16291893  0.14492854  0.35187446  1
  In  In65  1  0.32799675  -0.07238672  0.35763863  1
  In  In66  1  0.33249519  0.82048806  0.15777211  1
  In  In67  1  0.16357110  0.50885290  0.67229031  1
  In  In68  1  0.82915738  0.49968896  -0.00648972  1
  In  In69  1  0.28751834  0.18676121  0.15109178  1
  In  In70  1  0.15866252  0.67155871  0.48348605  1
  In  In71  1  0.15370991  0.66314637  0.14941063  1
  Te  Te72  1  0.09159859  0.09389880  0.06849651  1
  Te  Te73  1  0.04705987  0.05196553  0.38595853  1
  Te  Te74  1  0.07976030  0.07056705  0.73956145  1
  Te  Te75  1  0.05298733  0.44695635  0.04746686  1
  Te  Te76  1  0.09616975  0.42778351  0.41727856  1
  Te  Te77  1  0.07683792  0.43041408  0.76192731  1
  Te  Te78  1  0.06819213  0.76666169  0.08726755  1
  Te  Te79  1  0.05148812  0.75446201  0.41271388  1
  Te  Te80  1  0.09859653  0.74251309  0.74130540  1
  Te  Te81  1  0.40108045  0.08220928  0.08904020  1
  Te  Te82  1  0.41371938  0.06547096  0.40560969  1
  Te  Te83  1  0.40251309  0.10480958  0.74895083  1
  Te  Te84  1  0.42089384  0.44045997  0.09009034  1
  Te  Te85  1  0.41464585  0.40270961  0.42304317  1
  Te  Te86  1  0.40822832  0.41600099  0.76430830  1
  Te  Te87  1  0.42455540  0.72588297  0.08411514  1
  Te  Te88  1  0.38492652  0.79485528  0.40882104  1
  Te  Te89  1  0.41294508  0.73627876  0.74697581  1
  Te  Te90  1  0.73384578  0.09249305  0.08549183  1
  Te  Te91  1  0.79981701  0.07888982  0.37494372  1
  Te  Te92  1  0.75195954  0.07799310  0.75641259  1
  Te  Te93  1  0.72860318  0.45268580  0.10632405  1
  Te  Te94  1  0.78410803  0.38101087  0.39880717  1
  Te  Te95  1  0.77035127  0.41756471  0.76645367  1
  Te  Te96  1  0.72454559  0.74385320  0.07435771  1
  Te  Te97  1  0.75030321  0.74995965  0.40659454  1
  Te  Te98  1  0.73646900  0.74400909  0.72424433  1
  Te  Te99  1  0.09990158  0.23991460  0.25247040  1
  Te  Te100  1  0.08215167  0.22525039  0.57182705  1
  Te  Te101  1  0.06669422  0.27685250  0.92458294  1
  Te  Te102  1  0.06635041  0.57440959  0.23109169  1
  Te  Te103  1  0.07444482  0.57752046  0.57056937  1
  Te  Te104  1  0.08350359  0.55561705  0.93404020  1
  Te  Te105  1  0.05688112  0.90741125  0.22803797  1
  Te  Te106  1  0.12339300  0.88874162  0.56305530  1
  Te  Te107  1  0.08840040  0.89684116  0.92190374  1
  Te  Te108  1  0.41893881  0.25173972  0.23007147  1
  Te  Te109  1  0.40688017  0.25170729  0.60837160  1
  Te  Te110  1  0.42287156  0.24536038  0.94501527  1
  Te  Te111  1  0.41885962  0.59377414  0.26009521  1
  Te  Te112  1  0.40838710  0.58152725  0.56468137  1
  Te  Te113  1  0.43289766  0.56245535  0.93092912  1
  Te  Te114  1  0.42562044  0.90571077  0.24352912  1
  Te  Te115  1  0.39745558  0.91772315  0.57406306  1
  Te  Te116  1  0.41259054  0.91306338  0.89345376  1
  Te  Te117  1  0.79036492  0.28201082  0.26703149  1
  Te  Te118  1  0.74497836  0.24836587  0.58005011  1
  Te  Te119  1  0.76797627  0.26031600  0.90851154  1
  Te  Te120  1  0.79016348  0.55812386  0.28603767  1
  Te  Te121  1  0.74818915  0.57862087  0.58435032  1
  Te  Te122  1  0.73570695  0.58513656  0.91003816  1
  Te  Te123  1  0.74269156  0.92190856  0.23775492  1
  Te  Te124  1  0.75716651  0.93897912  0.57068603  1
  Te  Te125  1  0.76762582  0.90241535  0.91282196  1
  Te  Te126  1  0.23792726  0.30960741  0.08014164  1
  Te  Te127  1  0.26625774  0.24919420  0.40771523  1
  Te  Te128  1  0.19849367  0.26630708  0.76548859  1
  Te  Te129  1  0.24565365  0.58256298  0.06623733  1
  Te  Te130  1  0.25111206  0.59128615  0.40163411  1
  Te  Te131  1  0.25814875  0.57545164  0.77063848  1
  Te  Te132  1  0.23466233  0.91168516  0.08628123  1
  Te  Te133  1  0.19644947  0.91394204  0.42527845  1
  Te  Te134  1  0.24817462  0.90506649  0.74554831  1
  Te  Te135  1  0.59163448  0.24346002  0.09910755  1
  Te  Te136  1  0.60119705  0.25185052  0.41676210  1
  Te  Te137  1  0.58213501  0.23625182  0.75486323  1
  Te  Te138  1  0.62577915  0.56830512  0.11282374  1
  Te  Te139  1  0.59248595  0.57521862  0.43390701  1
  Te  Te140  1  0.58196143  0.58477735  0.73738490  1
  Te  Te141  1  0.56693232  0.91732459  0.08741883  1
  Te  Te142  1  0.60427025  0.91647076  0.40519950  1
  Te  Te143  1  0.58622047  0.91691617  0.74326489  1
  Te  Te144  1  0.93086181  0.23688750  0.09487525  1
  Te  Te145  1  0.90518929  0.28901382  0.44313126  1
  Te  Te146  1  0.92602401  0.25915830  0.75466802  1
  Te  Te147  1  0.90094707  0.59259486  0.08721403  1
  Te  Te148  1  0.90696370  0.56782528  0.40521535  1
  Te  Te149  1  0.93796292  0.57952804  0.76829701  1
  Te  Te150  1  0.90086443  0.95427210  0.10590042  1
  Te  Te151  1  0.89756237  0.96006005  0.40375385  1
  Te  Te152  1  0.93191863  0.92116768  0.73761007  1
  Te  Te153  1  0.26062321  0.07770532  0.25571469  1
  Te  Te154  1  0.23823638  0.07200750  0.55343629  1
  Te  Te155  1  0.25012928  0.08906615  0.91874480  1
  Te  Te156  1  0.22067848  0.43173257  0.25019400  1
  Te  Te157  1  0.24978041  0.40094802  0.60244082  1
  Te  Te158  1  0.28672347  0.35208050  0.85810246  1
  Te  Te159  1  0.24693566  0.73624449  0.24933331  1
  Te  Te160  1  0.23601847  0.75527339  0.57940374  1
  Te  Te161  1  0.25248547  0.72511081  0.94655676  1
  Te  Te162  1  0.60132622  0.09043152  0.27354250  1
  Te  Te163  1  0.58535009  0.09948875  0.55736805  1
  Te  Te164  1  0.57719685  0.05196985  0.90740872  1
  Te  Te165  1  0.60519380  0.40711603  0.28146708  1
  Te  Te166  1  0.59302094  0.41557961  0.58746649  1
  Te  Te167  1  0.58914835  0.40597460  0.94022875  1
  Te  Te168  1  0.56406364  0.73489823  0.27316138  1
  Te  Te169  1  0.56075703  0.74300271  0.56635048  1
  Te  Te170  1  0.59546934  0.76054681  0.90930572  1
  Te  Te171  1  0.96720735  0.12467866  0.27498787  1
  Te  Te172  1  0.91861601  0.08392241  0.58093952  1
  Te  Te173  1  0.91023859  0.07161195  0.90704526  1
  Te  Te174  1  0.97010144  0.42511820  0.23323461  1
  Te  Te175  1  0.91955158  0.41645445  0.57579074  1
  Te  Te176  1  0.92314823  0.38158788  1.00202813  1
  Te  Te177  1  0.90633675  0.75844229  0.22777578  1
  Te  Te178  1  0.91948281  0.76681731  0.57044587  1
  Te  Te179  1  0.90378872  0.74816253  0.91693294  1
