# generated using pymatgen
data_In2Te3
_symmetry_space_group_name_H-M   'P 1'
_cell_length_a   19.02032133
_cell_length_b   19.00462166
_cell_length_c   18.99015250
_cell_angle_alpha   90.02782375
_cell_angle_beta   89.90300973
_cell_angle_gamma   90.04795379
_symmetry_Int_Tables_number   1
_chemical_formula_structural   In2Te3
_chemical_formula_sum   'In72 Te108'
_cell_volume   6864.43354165
_cell_formula_units_Z   36
loop_
 _symmetry_equiv_pos_site_id
 _symmetry_equiv_pos_as_xyz
  1  'x, y, z'
loop_
 _atom_site_type_symbol
 _atom_site_label
 _atom_site_symmetry_multiplicity
 _atom_site_fract_x
 _atom_site_fract_y
 _atom_site_fract_z
 _atom_site_occupancy
  In  In0  1  0.32665874  0.83383255  0.16945805  1
  In  In1  1  0.33892074  0.49010499  0.14896020  1
  In  In2  1  0.53358509  0.68486569  0.50861342  1
  In  In3  1  0.00286920  0.83291143  0.14899282  1
  In  In4  1  0.66526650  0.82850506  0.15960734  1
  In  In5  1  0.31149714  0.83376965  0.48507724  1
  In  In6  1  0.04152090  0.46081886  0.83144654  1
  In  In7  1  0.47088383  0.66425751  0.17928551  1
  In  In8  1  0.50153608  0.35600400  0.19668119  1
  In  In9  1  0.32585191  0.84888887  0.82992336  1
  In  In10  1  0.67912050  0.66145372  0.00302495  1
  In  In11  1  0.49393618  0.32362046  0.82769793  1
  In  In12  1  0.14494441  0.68752260  0.17174089  1
  In  In13  1  0.67225343  0.49846975  0.18742832  1
  In  In14  1  0.84490237  0.33327939  0.48880709  1
  In  In15  1  0.15499301  0.65492439  0.47993912  1
  In  In16  1  0.46397238  0.19963270  0.62917801  1
  In  In17  1  -0.02045876  0.51820579  0.50782047  1
  In  In18  1  -0.03266943  0.80575276  0.82920068  1
  In  In19  1  0.01442394  0.13703950  0.82064831  1
  In  In20  1  0.31827039  0.01611059  0.64182371  1
  In  In21  1  0.68048657  -0.03307724  -0.00926661  1
  In  In22  1  0.32203883  0.63978952  0.32399902  1
  In  In23  1  0.02985364  -0.00894381  0.64564561  1
  In  In24  1  0.65931779  0.20225627  0.46098975  1
  In  In25  1  0.15653740  -0.02778427  0.81219972  1
  In  In26  1  0.83873671  -0.01628114  0.84596714  1
  In  In27  1  -0.01163041  0.52614529  0.15390201  1
  In  In28  1  0.00608450  -0.00404151  0.01758572  1
  In  In29  1  0.82193221  -0.02398412  0.16889269  1
  In  In30  1  0.67308635  0.35473677  0.02494893  1
  In  In31  1  0.82377433  0.19272485  0.00835452  1
  In  In32  1  0.01776087  0.33559609  0.65279932  1
  In  In33  1  0.45979041  0.03466985  0.47684194  1
  In  In34  1  0.49492369  0.01504636  0.17716904  1
  In  In35  1  0.18035164  0.68721692  0.81289527  1
  In  In36  1  0.18673736  0.26870754  0.21909677  1
  In  In37  1  0.33528501  -0.02859868  0.00881054  1
  In  In38  1  0.51829387  0.65495747  0.84322724  1
  In  In39  1  0.31167259  0.30086331  -0.04868730  1
  In  In40  1  0.48771112  0.50979915  -0.00971667  1
  In  In41  1  0.68978504  0.51629687  0.84283633  1
  In  In42  1  -0.00529899  0.65139870  0.33754412  1
  In  In43  1  0.14197113  0.85612316  0.36854906  1
  In  In44  1  0.17458955  0.16491791  -0.03454969  1
  In  In45  1  0.17473066  0.03047641  0.18886971  1
  In  In46  1  0.34073963  0.66554773  0.65260634  1
  In  In47  1  0.66495899  0.85109004  0.51944369  1
  In  In48  1  0.49384164  0.15207168  0.02749207  1
  In  In49  1  0.02232745  0.05317873  0.34184978  1
  In  In50  1  0.16935557  0.33361091  0.49281335  1
  In  In51  1  0.34686633  0.50568225  0.83191784  1
  In  In52  1  0.49704871  0.86268197  0.68585349  1
  In  In53  1  0.18366731  0.46769186  0.35271249  1
  In  In54  1  0.64442985  0.01814835  0.65743100  1
  In  In55  1  0.49375052  0.47079592  0.66654876  1
  In  In56  1  0.85285350  0.36391103  0.82441303  1
  In  In57  1  0.83926212  0.36355073  0.15955339  1
  In  In58  1  0.16277768  0.52732568  0.01922334  1
  In  In59  1  0.67183037  0.48456663  0.50722866  1
  In  In60  1  0.38311619  0.26048595  0.39992297  1
  In  In61  1  0.67283998  0.15761408  0.19680977  1
  In  In62  1  0.83306453  0.84327107  0.32718459  1
  In  In63  1  0.81952506  0.54761820  0.67856305  1
  In  In64  1  0.82635073  0.16207416  0.66354953  1
  In  In65  1  0.68054640  0.65463982  0.33491860  1
  In  In66  1  0.00318965  0.34800447  0.01914708  1
  In  In67  1  -0.01451525  0.66831493  0.65694152  1
  In  In68  1  0.83594928  0.00115736  0.50830567  1
  In  In69  1  0.49308343  0.84333101  0.34953056  1
  In  In70  1  0.84529964  0.16681390  0.33312221  1
  In  In71  1  0.64259566  0.17744467  0.83760174  1
  Te  Te72  1  0.09070399  0.09890947  0.08382986  1
  Te  Te73  1  0.11033590  0.04575383  0.46504274  1
  Te  Te74  1  0.11840675  0.09052588  0.72309258  1
  Te  Te75  1  0.09738730  0.42440252  0.10785934  1
  Te  Te76  1  0.06237709  0.41759059  0.42479554  1
  Te  Te77  1  0.12511163  0.39014271  0.73513540  1
  Te  Te78  1  0.07860673  0.74702882  0.05353838  1
  Te  Te79  1  0.05082511  0.75527800  0.43553061  1
  Te  Te80  1  0.07715968  0.76373914  0.73325650  1
  Te  Te81  1  0.38179821  0.08284986  0.10105966  1
  Te  Te82  1  0.39596713  0.11113773  0.36544003  1
  Te  Te83  1  0.41670719  0.09133017  0.71786719  1
  Te  Te84  1  0.42565066  0.39567910  0.06604346  1
  Te  Te85  1  0.43143208  0.39515826  0.45109213  1
  Te  Te86  1  0.38834504  0.38942015  0.74198934  1
  Te  Te87  1  0.42056879  0.76211526  0.08407510  1
  Te  Te88  1  0.41236638  0.73166165  0.41684941  1
  Te  Te89  1  0.42136103  0.74296872  0.75359171  1
  Te  Te90  1  0.74384185  0.08360862  0.08147702  1
  Te  Te91  1  0.74842627  0.08659226  0.41768767  1
  Te  Te92  1  0.74753960  0.08811317  0.77099704  1
  Te  Te93  1  0.76762090  0.46082039  0.06785807  1
  Te  Te94  1  0.75752893  0.41796973  0.40791699  1
  Te  Te95  1  0.74419106  0.42052028  0.73924235  1
  Te  Te96  1  0.75727247  0.72807182  0.10874338  1
  Te  Te97  1  0.74237731  0.76512371  0.42065026  1
  Te  Te98  1  0.81830262  0.70320710  0.68816745  1
  Te  Te99  1  0.06599688  0.20600255  0.28372784  1
  Te  Te100  1  0.09841133  0.23906557  0.57939689  1
  Te  Te101  1  0.05488451  0.25107406  0.91634071  1
  Te  Te102  1  0.10701756  0.57612915  0.26747952  1
  Te  Te103  1  0.09297233  0.57312975  0.58889403  1
  Te  Te104  1  0.09989538  0.58492024  0.89584601  1
  Te  Te105  1  0.07282006  0.92578805  0.25073879  1
  Te  Te106  1  0.08744993  0.91127786  0.53605995  1
  Te  Te107  1  0.05691994  0.90882581  0.90569412  1
  Te  Te108  1  0.41011587  0.25727423  0.25079107  1
  Te  Te109  1  0.33696410  0.21752564  0.54971635  1
  Te  Te110  1  0.42886191  0.21027214  0.90360105  1
  Te  Te111  1  0.42416043  0.54608717  0.26396512  1
  Te  Te112  1  0.44149811  0.58333202  0.57733624  1
  Te  Te113  1  0.39836140  0.61185353  0.92737694  1
  Te  Te114  1  0.40350182  0.92549165  0.26149830  1
  Te  Te115  1  0.42018727  0.90885989  0.56417150  1
  Te  Te116  1  0.42513241  0.92694230  0.90307558  1
  Te  Te117  1  0.76335166  0.26352775  0.25027132  1
  Te  Te118  1  0.74632875  0.25311195  0.57496079  1
  Te  Te119  1  0.74494564  0.27388355  0.90714048  1
  Te  Te120  1  0.77165924  0.59497291  0.23693490  1
  Te  Te121  1  0.73260106  0.60321251  0.57411390  1
  Te  Te122  1  0.77614455  0.62419794  0.89478226  1
  Te  Te123  1  0.71904506  0.92361404  0.26497669  1
  Te  Te124  1  0.75726356  0.92553208  0.61311510  1
  Te  Te125  1  0.76037942  0.87733956  0.90775579  1
  Te  Te126  1  0.23991716  0.24997481  0.07854589  1
  Te  Te127  1  0.18767359  0.23005325  0.37229047  1
  Te  Te128  1  0.23682364  0.23123030  0.84663461  1
  Te  Te129  1  0.25895218  0.60973984  0.10172882  1
  Te  Te130  1  0.26744965  0.55943836  0.44005211  1
  Te  Te131  1  0.25353847  0.57437159  0.73500827  1
  Te  Te132  1  0.22308849  0.91753679  0.09795177  1
  Te  Te133  1  0.25638717  0.94342092  0.40361700  1
  Te  Te134  1  0.24709225  0.90349330  0.71219859  1
  Te  Te135  1  0.59359028  0.24816967  0.09443437  1
  Te  Te136  1  0.53782056  0.27822495  0.42384733  1
  Te  Te137  1  0.57840230  0.25134136  0.72502059  1
  Te  Te138  1  0.57020638  0.57523105  0.09760837  1
  Te  Te139  1  0.58116072  0.57614485  0.41514103  1
  Te  Te140  1  0.58682664  0.56755672  0.74299765  1
  Te  Te141  1  0.57030943  0.91971882  0.08581935  1
  Te  Te142  1  0.57511415  0.93674001  0.43326172  1
  Te  Te143  1  0.59285547  0.93639300  0.76691942  1
  Te  Te144  1  0.92575972  0.24928352  0.10331293  1
  Te  Te145  1  0.93678527  0.24032338  0.42096532  1
  Te  Te146  1  0.91738974  0.24335006  0.75697035  1
  Te  Te147  1  0.96011940  0.62997201  0.05629963  1
  Te  Te148  1  0.89128046  0.59898415  0.42548889  1
  Te  Te149  1  0.94971575  0.55849464  0.75415915  1
  Te  Te150  1  0.89678884  0.89978657  0.06286620  1
  Te  Te151  1  0.92052493  0.94344745  0.39791945  1
  Te  Te152  1  0.92666060  0.92497508  0.73821526  1
  Te  Te153  1  0.24871203  0.11381628  0.28686979  1
  Te  Te154  1  0.25203910  0.07647599  0.52474331  1
  Te  Te155  1  0.24914276  0.04507665  0.90518474  1
  Te  Te156  1  0.26613775  0.39850566  0.24810808  1
  Te  Te157  1  0.30615429  0.37339989  0.54045507  1
  Te  Te158  1  0.25415683  0.43951683  0.93151393  1
  Te  Te159  1  0.23808180  0.75773733  0.27664188  1
  Te  Te160  1  0.23533284  0.74248983  0.57691257  1
  Te  Te161  1  0.23923246  0.77071710  0.91713679  1
  Te  Te162  1  0.57093923  0.09189741  0.27648361  1
  Te  Te163  1  0.57215048  0.10591784  0.55807722  1
  Te  Te164  1  0.58693092  0.07612586  0.93391740  1
  Te  Te165  1  0.61358715  0.40005497  0.27861747  1
  Te  Te166  1  0.56855573  0.39271262  0.56479859  1
  Te  Te167  1  0.58162565  0.41868459  0.90926044  1
  Te  Te168  1  0.57169445  0.74691532  0.26126970  1
  Te  Te169  1  0.59583681  0.76297132  0.62140689  1
  Te  Te170  1  0.58850882  0.74845829  0.92915865  1
  Te  Te171  1  0.91456445  0.07495691  0.23182835  1
  Te  Te172  1  0.93050449  0.09284814  0.58178151  1
  Te  Te173  1  0.90959861  0.09028226  0.93135540  1
  Te  Te174  1  0.93736872  0.42668697  0.24716243  1
  Te  Te175  1  0.90460200  0.42069868  0.59990303  1
  Te  Te176  1  0.92232376  0.44082059  0.93281934  1
  Te  Te177  1  0.92156882  0.75040215  0.24653929  1
  Te  Te178  1  0.89985919  0.75773413  0.57977918  1
  Te  Te179  1  0.91725377  0.70746539  0.92746651  1
