# generated using pymatgen
data_In2Te3
_symmetry_space_group_name_H-M   'P 1'
_cell_length_a   18.96574039
_cell_length_b   18.96740121
_cell_length_c   18.94843353
_cell_angle_alpha   89.88535435
_cell_angle_beta   89.96298859
_cell_angle_gamma   90.13738000
_symmetry_Int_Tables_number   1
_chemical_formula_structural   In2Te3
_chemical_formula_sum   'In72 Te108'
_cell_volume   6816.30060735
_cell_formula_units_Z   36
loop_
 _symmetry_equiv_pos_site_id
 _symmetry_equiv_pos_as_xyz
  1  'x, y, z'
loop_
 _atom_site_type_symbol
 _atom_site_label
 _atom_site_symmetry_multiplicity
 _atom_site_fract_x
 _atom_site_fract_y
 _atom_site_fract_z
 _atom_site_occupancy
  In  In0  1  0.67675827  0.47269620  0.80435476  1
  In  In1  1  0.14880554  0.16689046  0.32626822  1
  In  In2  1  0.34433307  0.68393008  0.32496798  1
  In  In3  1  0.66884998  0.63281421  0.64977133  1
  In  In4  1  0.51319324  0.30725061  0.16751114  1
  In  In5  1  0.15853938  0.67535868  0.19029022  1
  In  In6  1  0.50787052  0.30892663  0.85625720  1
  In  In7  1  0.68118102  0.67226066  0.00760110  1
  In  In8  1  0.66041245  -0.00407875  0.30237068  1
  In  In9  1  0.31419336  0.52008319  0.51056694  1
  In  In10  1  0.84576775  0.00482260  0.48417450  1
  In  In11  1  0.35375615  0.00818121  0.01591598  1
  In  In12  1  -0.00253986  -0.01583577  0.02254743  1
  In  In13  1  0.15431141  0.68885041  0.46381475  1
  In  In14  1  0.32738361  0.35512950  0.65563479  1
  In  In15  1  0.69424537  0.31630695  0.61158872  1
  In  In16  1  0.48965085  0.32547594  0.50114792  1
  In  In17  1  0.51933065  0.50431681  0.02455528  1
  In  In18  1  0.33669044  0.49548218  0.17093488  1
  In  In19  1  0.50681076  0.15009877  0.66031083  1
  In  In20  1  0.69272802  0.34421273  0.35824204  1
  In  In21  1  -0.01019798  0.65967440  0.65439521  1
  In  In22  1  0.13801851  0.33246640  0.84926242  1
  In  In23  1  0.30457838  0.51573933  0.85043068  1
  In  In24  1  0.66987141  0.02546462  0.66918441  1
  In  In25  1  -0.02837901  0.31918063  0.66700231  1
  In  In26  1  0.35514340  0.68753866  0.00440732  1
  In  In27  1  0.83864036  0.81216642  0.65624307  1
  In  In28  1  0.51334357  0.67907548  0.48723290  1
  In  In29  1  -0.02067765  0.51006428  0.17656015  1
  In  In30  1  0.51973674  0.15616481  0.01553592  1
  In  In31  1  0.79838467  -0.00021544  0.84765917  1
  In  In32  1  0.33194970  -0.01002686  0.65740516  1
  In  In33  1  -0.01358847  0.47528070  0.85817848  1
  In  In34  1  0.16832155  0.83439700  0.63634115  1
  In  In35  1  0.66008875  0.17898146  0.84715421  1
  In  In36  1  0.85027871  0.66303630  0.30613138  1
  In  In37  1  0.50644163  0.48359732  0.68169776  1
  In  In38  1  0.81273452  0.44903972  0.02500153  1
  In  In39  1  0.15849360  0.01062340  0.17618065  1
  In  In40  1  0.34303417  -0.02444648  0.29935469  1
  In  In41  1  0.34325479  0.16913065  0.82464573  1
  In  In42  1  0.17351650  0.81678544  0.00217665  1
  In  In43  1  0.51476090  0.50372644  0.35730308  1
  In  In44  1  0.84014036  0.17267596  0.33868636  1
  In  In45  1  0.16693381  -0.00067186  0.46041915  1
  In  In46  1  0.49317983  0.82270280  0.66102229  1
  In  In47  1  0.84796810  0.84831315  0.01993472  1
  In  In48  1  0.13379699  0.18285978  0.66681653  1
  In  In49  1  0.85678145  0.64998233  0.86190011  1
  In  In50  1  -0.00311264  0.00354112  0.33065215  1
  In  In51  1  0.00586595  0.84935976  0.80781284  1
  In  In52  1  0.00000547  0.02243037  0.65480860  1
  In  In53  1  0.13561349  0.32321262  0.15640920  1
  In  In54  1  0.84254817  0.66467847  0.49457392  1
  In  In55  1  -0.03609771  0.35904782  0.34244388  1
  In  In56  1  0.32606317  0.66622400  0.67155172  1
  In  In57  1  0.32177875  0.13845246  0.47716110  1
  In  In58  1  0.29773478  0.34305599  0.31876824  1
  In  In59  1  0.67218457  0.82994278  0.16888847  1
  In  In60  1  0.00736097  0.49004702  0.50450378  1
  In  In61  1  0.50065684  0.84646021  0.00741827  1
  In  In62  1  0.51499992  0.16146621  0.33138472  1
  In  In63  1  0.68207884  0.02101022  0.01382569  1
  In  In64  1  0.16124102  0.49914948  0.00688105  1
  In  In65  1  0.16242949  0.00658367  0.79354870  1
  In  In66  1  0.51456621  0.68105520  0.14028172  1
  In  In67  1  0.16242435  0.18061153  -0.00323098  1
  In  In68  1  0.64571244  0.80988679  0.82084653  1
  In  In69  1  0.01333094  0.64451892  0.02355064  1
  In  In70  1  0.83744919  0.19102395  0.01309163  1
  In  In71  1  0.67575723  0.85244174  0.46896432  1
  Te  Te72  1  0.07140070  0.09844083  0.08974054  1
  Te  Te73  1  0.06131936  0.10199887  0.43112969  1
  Te  Te74  1  0.04807004  0.11018056  0.78030758  1
  Te  Te75  1  0.04923085  0.41812236  0.07136979  1
  Te  Te76  1  0.08433396  0.41227237  0.40681830  1
  Te  Te77  1  0.07059535  0.41720901  0.74682906  1
  Te  Te78  1  0.06827997  0.76180474  0.09798798  1
  Te  Te79  1  0.08982512  0.78470411  0.37085675  1
  Te  Te80  1  0.08730032  0.74782432  0.73429369  1
  Te  Te81  1  0.43500260  0.08229680  0.11390646  1
  Te  Te82  1  0.42619983  0.06201239  0.40388662  1
  Te  Te83  1  0.42511824  0.06388717  0.75496355  1
  Te  Te84  1  0.42287583  0.40491589  0.08718106  1
  Te  Te85  1  0.39808395  0.41840962  0.41949482  1
  Te  Te86  1  0.41426144  0.40326883  0.77238260  1
  Te  Te87  1  0.40130193  0.78372845  0.11760641  1
  Te  Te88  1  0.44043635  0.76816266  0.39912599  1
  Te  Te89  1  0.42261815  0.73545630  0.75506816  1
  Te  Te90  1  0.76545969  0.09850285  0.10401006  1
  Te  Te91  1  0.74098532  0.07794913  0.40703663  1
  Te  Te92  1  0.76062216  0.11273122  0.75274865  1
  Te  Te93  1  0.73476581  0.35397647  0.10658091  1
  Te  Te94  1  0.74122626  0.47790040  0.40367244  1
  Te  Te95  1  0.75923398  0.38262610  0.72506809  1
  Te  Te96  1  0.77819405  0.74056122  0.10108095  1
  Te  Te97  1  0.75065504  0.74125739  0.40102757  1
  Te  Te98  1  0.76621819  0.73406963  0.76475014  1
  Te  Te99  1  0.04742362  0.25659426  0.25926693  1
  Te  Te100  1  0.06501364  0.26147269  0.56751006  1
  Te  Te101  1  0.04436007  0.25753339  0.94010653  1
  Te  Te102  1  0.06712384  0.58753348  0.26501005  1
  Te  Te103  1  0.09822599  0.59600933  0.57125730  1
  Te  Te104  1  0.08443080  0.58524348  0.90639582  1
  Te  Te105  1  0.10379573  0.91247180  0.27473364  1
  Te  Te106  1  0.07351350  0.92816152  0.56371903  1
  Te  Te107  1  0.09137262  0.92518766  0.90861060  1
  Te  Te108  1  0.40886502  0.25556652  0.26809195  1
  Te  Te109  1  0.39440598  0.23232681  0.58338958  1
  Te  Te110  1  0.40820025  0.23601596  0.94371523  1
  Te  Te111  1  0.43940018  0.58048268  0.24256284  1
  Te  Te112  1  0.43634596  0.57748116  0.58186465  1
  Te  Te113  1  0.42067468  0.57356727  0.92788812  1
  Te  Te114  1  0.43057202  0.91814035  0.19663837  1
  Te  Te115  1  0.42482272  0.91622279  0.57295302  1
  Te  Te116  1  0.40887638  0.91599425  0.91799748  1
  Te  Te117  1  0.76226766  0.26751145  0.24928406  1
  Te  Te118  1  0.79330975  0.22113800  0.55873805  1
  Te  Te119  1  0.75873244  0.26887892  0.91093973  1
  Te  Te120  1  0.77182200  0.54039014  0.26985848  1
  Te  Te121  1  0.77938765  0.56486390  0.58557179  1
  Te  Te122  1  0.73976017  0.56794204  0.91227393  1
  Te  Te123  1  0.76819499  0.92215460  0.23241821  1
  Te  Te124  1  0.75620373  0.92072623  0.58914046  1
  Te  Te125  1  0.72958203  0.88836274  0.92921575  1
  Te  Te126  1  0.24598174  0.25196935  0.09295363  1
  Te  Te127  1  0.23537137  0.24986680  0.42170387  1
  Te  Te128  1  0.24141877  0.25898667  0.75475410  1
  Te  Te129  1  0.25195420  0.59472289  0.08391588  1
  Te  Te130  1  0.24672318  0.58896619  0.39357081  1
  Te  Te131  1  0.23811355  0.56514611  0.73184455  1
  Te  Te132  1  0.24158345  0.92708339  0.08027630  1
  Te  Te133  1  0.27892697  0.91666882  0.41907085  1
  Te  Te134  1  0.25138633  0.89474024  0.74904389  1
  Te  Te135  1  0.61297987  0.26349064  0.06411114  1
  Te  Te136  1  0.59517617  0.24638231  0.42886892  1
  Te  Te137  1  0.58362142  0.25926394  0.73281231  1
  Te  Te138  1  0.62410778  0.57254710  0.10840518  1
  Te  Te139  1  0.61380579  0.58227814  0.43576247  1
  Te  Te140  1  0.58027182  0.58864337  0.76235494  1
  Te  Te141  1  0.58673620  0.93310051  0.09558542  1
  Te  Te142  1  0.57272970  0.90567866  0.38147788  1
  Te  Te143  1  0.58418657  0.92147816  0.74301949  1
  Te  Te144  1  0.94574807  0.28128733  0.05856417  1
  Te  Te145  1  0.87775955  0.28268862  0.44156264  1
  Te  Te146  1  0.93111698  0.20642865  0.75223512  1
  Te  Te147  1  0.88943292  0.57498424  0.07095092  1
  Te  Te148  1  0.94398079  0.59212075  0.40696842  1
  Te  Te149  1  0.91831107  0.56809530  0.75209801  1
  Te  Te150  1  0.91954162  0.91645345  0.12909214  1
  Te  Te151  1  0.90561173  0.90240219  0.39563482  1
  Te  Te152  1  0.90001075  0.93644032  0.74412970  1
  Te  Te153  1  0.25742588  0.09614518  0.25121610  1
  Te  Te154  1  0.23066898  0.08415056  0.59327071  1
  Te  Te155  1  0.24109397  0.08380143  0.89945268  1
  Te  Te156  1  0.21348506  0.43396496  0.23319651  1
  Te  Te157  1  0.22754130  0.41833091  0.57059214  1
  Te  Te158  1  0.24847392  0.40106640  0.93225839  1
  Te  Te159  1  0.25260263  0.77082256  0.24988218  1
  Te  Te160  1  0.26283160  0.74544861  0.55886031  1
  Te  Te161  1  0.25015307  0.73191683  0.91224005  1
  Te  Te162  1  0.60429756  0.11093002  0.22734151  1
  Te  Te163  1  0.59023125  0.08406195  0.56157430  1
  Te  Te164  1  0.58124160  0.06729130  0.90921610  1
  Te  Te165  1  0.57973753  0.40058689  0.26799713  1
  Te  Te166  1  0.58782405  0.41816300  0.57156470  1
  Te  Te167  1  0.59013621  0.41841821  0.91925393  1
  Te  Te168  1  0.59415604  0.73413818  0.24971083  1
  Te  Te169  1  0.61596905  0.75736628  0.58364144  1
  Te  Te170  1  0.56873098  0.73530910  0.92834573  1
  Te  Te171  1  0.92898792  0.10221840  0.24517063  1
  Te  Te172  1  0.89824984  0.10483172  0.58584972  1
  Te  Te173  1  0.89792269  0.06499043  0.93945260  1
  Te  Te174  1  0.87651180  0.41802409  0.23573276  1
  Te  Te175  1  0.90186147  0.41002792  0.57077319  1
  Te  Te176  1  0.87156761  0.39093694  0.90037270  1
  Te  Te177  1  0.94989104  0.77387356  0.30407610  1
  Te  Te178  1  0.94100376  0.76664346  0.55796718  1
  Te  Te179  1  0.93443755  0.76837000  0.91758725  1
