# generated using pymatgen
data_In2Te3
_symmetry_space_group_name_H-M   'P 1'
_cell_length_a   19.02281043
_cell_length_b   19.02781427
_cell_length_c   19.05837334
_cell_angle_alpha   89.81779720
_cell_angle_beta   89.82940390
_cell_angle_gamma   89.82048971
_symmetry_Int_Tables_number   1
_chemical_formula_structural   In2Te3
_chemical_formula_sum   'In72 Te108'
_cell_volume   6898.31742141
_cell_formula_units_Z   36
loop_
 _symmetry_equiv_pos_site_id
 _symmetry_equiv_pos_as_xyz
  1  'x, y, z'
loop_
 _atom_site_type_symbol
 _atom_site_label
 _atom_site_symmetry_multiplicity
 _atom_site_fract_x
 _atom_site_fract_y
 _atom_site_fract_z
 _atom_site_occupancy
  In  In0  1  0.47048389  0.15309768  0.63470479  1
  In  In1  1  0.15220640  0.70564608  0.82869006  1
  In  In2  1  0.81911565  0.81784793  -0.00853503  1
  In  In3  1  0.85371929  0.51348967  0.34065645  1
  In  In4  1  0.36639962  0.35938947  0.02437672  1
  In  In5  1  0.33687890  0.34724680  0.33911453  1
  In  In6  1  0.64163514  0.36158653  0.00864263  1
  In  In7  1  0.31220788  0.82900926  0.49974014  1
  In  In8  1  0.39721950  0.84764048  0.67717991  1
  In  In9  1  -0.02177151  0.66690788  -0.01129658  1
  In  In10  1  0.33262130  0.18736124  0.19641588  1
  In  In11  1  0.01615629  0.16177104  0.50657698  1
  In  In12  1  0.84286463  0.01887456  0.12832354  1
  In  In13  1  0.84414285  0.49541984  0.01020992  1
  In  In14  1  0.80619917  0.30672504  0.48263342  1
  In  In15  1  0.47510621  0.01577600  0.81342255  1
  In  In16  1  0.67717344  -0.02070117  0.00590809  1
  In  In17  1  -0.00376830  0.81442752  0.18280320  1
  In  In18  1  0.02675099  0.13064930  0.81868046  1
  In  In19  1  0.15757274  0.64634081  0.18486174  1
  In  In20  1  0.02136683  0.32774963  0.65058384  1
  In  In21  1  0.87816014  0.49307590  0.67120945  1
  In  In22  1  0.81632388  0.13887974  0.33384438  1
  In  In23  1  0.18796477  0.19156519  0.00710897  1
  In  In24  1  0.84133852  0.65860202  0.82478662  1
  In  In25  1  0.51048314  0.49176207  0.68830988  1
  In  In26  1  0.65852568  0.48650661  0.52419313  1
  In  In27  1  0.85379674  0.31314888  0.83565230  1
  In  In28  1  0.17318869  0.84542108  0.00684231  1
  In  In29  1  0.69944675  0.50543890  0.83077321  1
  In  In30  1  0.32725122  0.66291360  0.66753664  1
  In  In31  1  0.02930974  0.34159230  0.38531686  1
  In  In32  1  0.01345212  0.03522639  0.00289593  1
  In  In33  1  0.47498250  0.17055109  0.36167061  1
  In  In34  1  0.15094198  0.49708901  0.63598878  1
  In  In35  1  0.15510686  0.50254085  0.01120645  1
  In  In36  1  0.84681754  0.34008465  0.19816197  1
  In  In37  1  0.33742982  -0.00472972  -0.01273309  1
  In  In38  1  0.68358104  0.16232287  0.82697658  1
  In  In39  1  0.81999729  0.84421118  0.30419610  1
  In  In40  1  0.00574656  -0.01255026  0.33715279  1
  In  In41  1  0.66371375  0.69301938  0.64740547  1
  In  In42  1  0.07978232  0.76436597  0.53168798  1
  In  In43  1  0.47085532  0.02811352  0.19233354  1
  In  In44  1  0.47319175  0.68708322  0.51212650  1
  In  In45  1  0.60907989  -0.01049994  0.36221712  1
  In  In46  1  0.17213748  0.32614995  0.82713582  1
  In  In47  1  0.33049653  0.00195377  0.34880443  1
  In  In48  1  0.64244979  0.32387587  0.32938080  1
  In  In49  1  0.82048909  0.67497931  0.50290768  1
  In  In50  1  0.65772381  0.65250756  0.31336442  1
  In  In51  1  0.50354092  0.81540855  0.00250287  1
  In  In52  1  0.65267038  0.84796998  0.83977384  1
  In  In53  1  0.46091978  0.63415545  0.15901180  1
  In  In54  1  0.12815123  -0.05823227  0.76412582  1
  In  In55  1  0.51726839  0.17362482  -0.00934396  1
  In  In56  1  0.51697164  0.34069480  0.83671709  1
  In  In57  1  0.83778193  0.67814175  0.15152532  1
  In  In58  1  0.85397199  -0.00379429  0.49851476  1
  In  In59  1  0.50006481  0.51435062  0.33848571  1
  In  In60  1  0.86683925  0.84371656  0.66740658  1
  In  In61  1  0.29831672  0.48931129  0.46650973  1
  In  In62  1  0.67369225  0.29335266  0.66828896  1
  In  In63  1  0.00366759  0.35354281  0.01513721  1
  In  In64  1  0.31433028  0.65731906  -0.00873968  1
  In  In65  1  0.32102362  0.17747495  0.81259727  1
  In  In66  1  0.33367253  0.50874275  0.82892716  1
  In  In67  1  0.02184408  0.20398002  0.18964869  1
  In  In68  1  0.67391849  0.00116451  0.66516655  1
  In  In69  1  0.29602264  0.67810589  0.33324102  1
  In  In70  1  0.63606823  0.84950236  0.19853908  1
  In  In71  1  0.17666983  -0.00040517  0.51684398  1
  Te  Te72  1  0.10133111  0.10838600  0.09965927  1
  Te  Te73  1  0.09677226  0.08162349  0.40882019  1
  Te  Te74  1  0.12532056  0.08729364  0.72009666  1
  Te  Te75  1  0.09183445  0.41667922  0.11073264  1
  Te  Te76  1  0.12325966  0.46111563  0.40727912  1
  Te  Te77  1  0.08271873  0.42169661  0.75156750  1
  Te  Te78  1  0.08175213  0.74090756  0.07206279  1
  Te  Te79  1  0.10853207  0.70736426  0.39610539  1
  Te  Te80  1  0.07249302  0.79906412  0.74722870  1
  Te  Te81  1  0.40659080  0.10586500  0.07654963  1
  Te  Te82  1  0.44335819  0.04408976  0.43713819  1
  Te  Te83  1  0.37134051  0.06911653  0.71955717  1
  Te  Te84  1  0.45012193  0.45612533  0.09209945  1
  Te  Te85  1  0.43099431  0.42076908  0.43402528  1
  Te  Te86  1  0.40589254  0.40006804  0.75072604  1
  Te  Te87  1  0.39579605  0.74857747  0.08343792  1
  Te  Te88  1  0.40721705  0.75918396  0.40025240  1
  Te  Te89  1  0.43133306  0.72530753  0.74758520  1
  Te  Te90  1  0.73798007  0.09759716  0.06488064  1
  Te  Te91  1  0.73393837  0.05605362  0.42568643  1
  Te  Te92  1  0.76863390  0.07911638  0.74501555  1
  Te  Te93  1  0.75693237  0.41093124  0.09693680  1
  Te  Te94  1  0.74326039  0.42950579  0.41116835  1
  Te  Te95  1  0.76114072  0.39957596  0.74112737  1
  Te  Te96  1  0.72807617  0.76916280  0.10232763  1
  Te  Te97  1  0.73987841  0.75130908  0.39806782  1
  Te  Te98  1  0.75405973  0.76157259  0.74790319  1
  Te  Te99  1  0.11502989  0.26643178  0.28622334  1
  Te  Te100  1  0.09639257  0.28388090  0.52944672  1
  Te  Te101  1  0.07652138  0.25252356  0.92124188  1
  Te  Te102  1  0.09601860  0.58291215  0.30304922  1
  Te  Te103  1  0.05217385  0.52726248  0.53175067  1
  Te  Te104  1  0.08741822  0.59467093  0.91317895  1
  Te  Te105  1  0.08511384  0.91358156  0.23911180  1
  Te  Te106  1  0.07099238  0.90810377  0.56854834  1
  Te  Te107  1  0.09195701  0.93890273  0.92043882  1
  Te  Te108  1  0.43786289  0.27641455  0.25120121  1
  Te  Te109  1  0.37499864  0.23044887  0.55132063  1
  Te  Te110  1  0.40612344  0.25604691  0.91300171  1
  Te  Te111  1  0.37887378  0.56679197  0.26738851  1
  Te  Te112  1  0.42220227  0.56841613  0.59111609  1
  Te  Te113  1  0.41846525  0.58929296  0.91359460  1
  Te  Te114  1  0.41320213  0.91521669  0.26194029  1
  Te  Te115  1  0.40920078  0.92755203  0.55315525  1
  Te  Te116  1  0.42566080  0.90544627  0.90524017  1
  Te  Te117  1  0.74426315  0.24118418  0.24948799  1
  Te  Te118  1  0.75977637  0.21221712  0.58331341  1
  Te  Te119  1  0.73096321  0.27396951  0.91509713  1
  Te  Te120  1  0.76249881  0.57586116  0.23626769  1
  Te  Te121  1  0.75808934  0.57137966  0.60317304  1
  Te  Te122  1  0.75845623  0.59626205  0.93696146  1
  Te  Te123  1  0.74514994  0.95012001  0.22867135  1
  Te  Te124  1  0.76222899  0.90643838  0.58108959  1
  Te  Te125  1  0.76840714  0.92638801  0.89754777  1
  Te  Te126  1  0.26025548  0.28414007  0.10205636  1
  Te  Te127  1  0.29366998  0.22659752  0.41852725  1
  Te  Te128  1  0.21663330  0.23225914  0.72256448  1
  Te  Te129  1  0.25660493  0.56805173  0.10012465  1
  Te  Te130  1  0.23372993  0.62502065  0.45963867  1
  Te  Te131  1  0.22614265  0.58689535  0.75398126  1
  Te  Te132  1  0.25382254  0.93420900  0.08905524  1
  Te  Te133  1  0.22245366  0.90561158  0.40796109  1
  Te  Te134  1  0.26826404  0.90309104  0.72186443  1
  Te  Te135  1  0.56838602  0.26524933  0.09018785  1
  Te  Te136  1  0.57739383  0.24741726  0.43278759  1
  Te  Te137  1  0.55818000  0.22231846  0.75040748  1
  Te  Te138  1  0.57220894  0.54562857  0.12035884  1
  Te  Te139  1  0.58936754  0.59445966  0.44263026  1
  Te  Te140  1  0.60549854  0.59250532  0.74728821  1
  Te  Te141  1  0.55780556  0.93215877  0.09192392  1
  Te  Te142  1  0.60550600  0.85911738  0.42433519  1
  Te  Te143  1  0.56674898  0.91956684  0.73841176  1
  Te  Te144  1  0.91697068  0.25617564  0.09215337  1
  Te  Te145  1  0.91308269  0.23466147  0.39973724  1
  Te  Te146  1  0.94152406  0.23613611  0.74177365  1
  Te  Te147  1  0.93678706  0.57323896  0.09986255  1
  Te  Te148  1  0.92597018  0.57851747  0.45254257  1
  Te  Te149  1  0.94754379  0.59245320  0.74912211  1
  Te  Te150  1  0.91750598  0.89781456  0.07770170  1
  Te  Te151  1  0.91760795  0.88981574  0.41011428  1
  Te  Te152  1  0.97860373  0.92683947  0.71882083  1
  Te  Te153  1  0.24774368  0.09445909  0.26909384  1
  Te  Te154  1  0.26655257  0.11885565  0.52713818  1
  Te  Te155  1  0.24577311  0.09003025  0.91146613  1
  Te  Te156  1  0.20784457  0.40169326  0.28923414  1
  Te  Te157  1  0.25537291  0.41144830  0.58207457  1
  Te  Te158  1  0.24991455  0.41585374  0.92474972  1
  Te  Te159  1  0.22914725  0.76297461  0.23476913  1
  Te  Te160  1  0.22439308  0.74648177  0.59255347  1
  Te  Te161  1  0.26082075  0.77153373  0.90622116  1
  Te  Te162  1  0.57913817  0.09852319  0.26553062  1
  Te  Te163  1  0.58472031  0.08057716  0.57938772  1
  Te  Te164  1  0.58486684  0.06475193  0.90824948  1
  Te  Te165  1  0.59294476  0.43954624  0.24948033  1
  Te  Te166  1  0.57537722  0.38530750  0.59809799  1
  Te  Te167  1  0.57761201  0.45675122  0.91005565  1
  Te  Te168  1  0.55316714  0.73095589  0.23998532  1
  Te  Te169  1  0.57987155  0.78074509  0.56159850  1
  Te  Te170  1  0.59993420  0.74075739  0.92293862  1
  Te  Te171  1  0.92840636  0.08533988  0.23895892  1
  Te  Te172  1  0.93073429  0.07916705  0.58956701  1
  Te  Te173  1  0.91881426  0.09799931  0.91252496  1
  Te  Te174  1  0.94899831  0.41829028  0.27375579  1
  Te  Te175  1  0.90463167  0.38589733  0.57099237  1
  Te  Te176  1  0.92695049  0.42590199  0.90523573  1
  Te  Te177  1  0.91476805  0.72555502  0.27235642  1
  Te  Te178  1  0.93188602  0.73639361  0.58414746  1
  Te  Te179  1  0.92396285  0.76890142  0.89294890  1
