# generated using pymatgen
data_In2Te3
_symmetry_space_group_name_H-M   'P 1'
_cell_length_a   18.91690435
_cell_length_b   18.90634292
_cell_length_c   18.90438233
_cell_angle_alpha   89.96724397
_cell_angle_beta   89.98624300
_cell_angle_gamma   89.98448160
_symmetry_Int_Tables_number   1
_chemical_formula_structural   In2Te3
_chemical_formula_sum   'In72 Te108'
_cell_volume   6761.14097422
_cell_formula_units_Z   36
loop_
 _symmetry_equiv_pos_site_id
 _symmetry_equiv_pos_as_xyz
  1  'x, y, z'
loop_
 _atom_site_type_symbol
 _atom_site_label
 _atom_site_symmetry_multiplicity
 _atom_site_fract_x
 _atom_site_fract_y
 _atom_site_fract_z
 _atom_site_occupancy
  In  In0  1  0.85475000  0.14523315  -0.01033734  1
  In  In1  1  0.17397890  0.85710194  0.37140031  1
  In  In2  1  0.47364511  0.64598853  0.52094038  1
  In  In3  1  0.02440393  0.50510963  0.48749925  1
  In  In4  1  -0.01132628  -0.03983989  0.65012930  1
  In  In5  1  0.66651221  0.17318583  0.83342677  1
  In  In6  1  0.50104019  0.83977461  0.68729773  1
  In  In7  1  0.00877862  0.16714287  0.52449292  1
  In  In8  1  0.17702537  0.83878157  0.66511781  1
  In  In9  1  0.18518487  0.66640092  0.52585325  1
  In  In10  1  0.50265046  0.35036470  0.15302153  1
  In  In11  1  -0.03603016  -0.03284319  0.37231270  1
  In  In12  1  0.19578738  0.65332490  0.79653509  1
  In  In13  1  0.33568894  0.33488617  0.31428791  1
  In  In14  1  0.51594039  0.15860289  0.67417299  1
  In  In15  1  0.01224241  -0.01365438  -0.01013016  1
  In  In16  1  0.48911771  0.00815646  0.16305826  1
  In  In17  1  0.65038134  0.18830518  0.20069767  1
  In  In18  1  0.30548411  0.35345982  0.66385267  1
  In  In19  1  0.51574274  0.31765958  0.51823643  1
  In  In20  1  0.81868733  0.51354300  -0.00988371  1
  In  In21  1  -0.00946028  0.35515452  0.34226260  1
  In  In22  1  0.65396007  0.67651338  -0.01942839  1
  In  In23  1  -0.00502554  0.16035593  0.15807259  1
  In  In24  1  -0.01327173  0.69724850  0.64567036  1
  In  In25  1  0.34191333  0.14542491  0.50066339  1
  In  In26  1  0.30907457  0.66462876  0.33495073  1
  In  In27  1  0.66558484  0.35240241  -0.00276899  1
  In  In28  1  0.02017002  0.30357676  -0.04204582  1
  In  In29  1  0.68561689  0.84818093  0.52940305  1
  In  In30  1  0.83640965  0.32895351  0.79417279  1
  In  In31  1  0.48746073  0.51265957  0.34611751  1
  In  In32  1  0.50300525  0.67464770  0.16641738  1
  In  In33  1  0.83931773  0.52061242  0.36171719  1
  In  In34  1  0.83746966  0.66980131  0.19532579  1
  In  In35  1  0.48251727  0.82843855  0.32338029  1
  In  In36  1  0.33220871  0.34135843  -0.01645476  1
  In  In37  1  0.67346130  0.85363319  0.18134930  1
  In  In38  1  0.33793019  0.19058903  0.16102632  1
  In  In39  1  0.01826302  0.53350927  0.18288854  1
  In  In40  1  0.31791834  0.81517455  0.13931484  1
  In  In41  1  0.84225939  0.49976521  0.65706788  1
  In  In42  1  0.82519458  0.30544785  0.54918966  1
  In  In43  1  0.14702764  -0.01040103  0.82485091  1
  In  In44  1  0.18388729  0.16890910  0.66922006  1
  In  In45  1  0.16591239  0.35063082  0.16308359  1
  In  In46  1  0.00151134  0.80925047  0.17494754  1
  In  In47  1  0.00844770  0.69006434  -0.01266659  1
  In  In48  1  0.48811943  0.49971477  0.00700880  1
  In  In49  1  0.65652992  0.00378494  0.02469482  1
  In  In50  1  0.49026301  0.09528316  -0.00668174  1
  In  In51  1  0.49308536  0.65502690  0.79712432  1
  In  In52  1  0.69656317  -0.02388182  0.35808333  1
  In  In53  1  0.16304781  0.16370449  0.34728199  1
  In  In54  1  -0.00522659  0.50173393  0.81363084  1
  In  In55  1  0.66248629  0.34409110  0.33868952  1
  In  In56  1  0.16531144  0.50134506  0.01213971  1
  In  In57  1  0.47013763  0.34040342  0.83522845  1
  In  In58  1  0.85179192  0.82841350  0.00151656  1
  In  In59  1  0.31947016  0.00074323  0.65617331  1
  In  In60  1  0.81209802  0.17226627  0.33832450  1
  In  In61  1  0.68677209  0.67007548  0.66358396  1
  In  In62  1  0.50578433  0.14740492  0.37186154  1
  In  In63  1  0.32779386  0.14811290  0.82624363  1
  In  In64  1  0.48866760  0.00712117  0.50912795  1
  In  In65  1  0.66812865  0.83924691  0.82202392  1
  In  In66  1  0.65221229  0.49804752  0.50296729  1
  In  In67  1  0.16658853  -0.01464891  0.16141582  1
  In  In68  1  0.02947873  0.32861692  0.68637501  1
  In  In69  1  0.31071589  0.65222627  -0.00478912  1
  In  In70  1  0.82926429  0.00017607  0.80985365  1
  In  In71  1  0.80692868  -0.00419230  0.18477414  1
  Te  Te72  1  0.09329797  0.08742910  0.07112592  1
  Te  Te73  1  0.06815878  0.07179363  0.42098757  1
  Te  Te74  1  0.07984502  0.07069447  0.71651861  1
  Te  Te75  1  0.05750821  0.41545170  0.07769908  1
  Te  Te76  1  0.10858532  0.42084023  0.39883399  1
  Te  Te77  1  0.10825443  0.43315753  0.75112909  1
  Te  Te78  1  0.09955241  0.77330989  0.07111694  1
  Te  Te79  1  0.09419151  0.75871461  0.44815263  1
  Te  Te80  1  0.08542298  0.75040333  0.74861567  1
  Te  Te81  1  0.36194692  0.05811732  0.07572555  1
  Te  Te82  1  0.38805983  0.04681338  0.38960057  1
  Te  Te83  1  0.42556053  0.06254931  0.74905437  1
  Te  Te84  1  0.38651416  0.42848345  0.09686849  1
  Te  Te85  1  0.42659054  0.39698145  0.42169424  1
  Te  Te86  1  0.39326471  0.43634554  0.75246360  1
  Te  Te87  1  0.42176919  0.74106604  0.05764965  1
  Te  Te88  1  0.40549396  0.74334207  0.42246221  1
  Te  Te89  1  0.39450995  0.74232439  0.72598717  1
  Te  Te90  1  0.74589103  0.10929482  0.10038024  1
  Te  Te91  1  0.76304629  0.07825173  0.44266644  1
  Te  Te92  1  0.75807363  0.10960573  0.73171349  1
  Te  Te93  1  0.74501086  0.43344917  0.08871165  1
  Te  Te94  1  0.76194095  0.40170843  0.43920900  1
  Te  Te95  1  0.74463226  0.42708012  0.73959813  1
  Te  Te96  1  0.74808929  0.75401569  0.08754335  1
  Te  Te97  1  0.76559738  0.75575274  0.44570928  1
  Te  Te98  1  0.76732090  0.77588722  0.73224149  1
  Te  Te99  1  0.07582662  0.25234592  0.25156910  1
  Te  Te100  1  0.11309372  0.26639837  0.57385516  1
  Te  Te101  1  0.11895099  0.22779032  0.88234252  1
  Te  Te102  1  0.13182178  0.60659001  0.23502085  1
  Te  Te103  1  0.07969705  0.58473635  0.60328183  1
  Te  Te104  1  0.08861234  0.58878714  0.90717645  1
  Te  Te105  1  0.06839976  0.92481901  0.26177261  1
  Te  Te106  1  0.08454750  0.89025956  0.55935639  1
  Te  Te107  1  0.06236538  0.88951857  0.89308904  1
  Te  Te108  1  0.44992939  0.23926467  0.25977248  1
  Te  Te109  1  0.40158310  0.24244466  0.60374062  1
  Te  Te110  1  0.42595027  0.22512343  0.92678701  1
  Te  Te111  1  0.40512817  0.58749839  0.24310796  1
  Te  Te112  1  0.38936186  0.54743558  0.59513427  1
  Te  Te113  1  0.41119432  0.57977043  0.90569124  1
  Te  Te114  1  0.39370668  0.91057520  0.23313093  1
  Te  Te115  1  0.40826087  0.90341929  0.58070762  1
  Te  Te116  1  0.41308956  0.97545509  0.95912151  1
  Te  Te117  1  0.76370110  0.27990362  0.24155678  1
  Te  Te118  1  0.73510145  0.22814339  0.63163513  1
  Te  Te119  1  0.76278451  0.24993327  0.92236510  1
  Te  Te120  1  0.74420993  0.58673263  0.27161373  1
  Te  Te121  1  0.76352215  0.58598504  0.55994045  1
  Te  Te122  1  0.74291033  0.59635345  0.89657246  1
  Te  Te123  1  0.78686071  0.87993628  0.27937064  1
  Te  Te124  1  0.78799412  0.95353188  0.56025715  1
  Te  Te125  1  0.76255526  0.93432328  0.93685130  1
  Te  Te126  1  0.23727178  0.25560333  0.06798054  1
  Te  Te127  1  0.26401176  0.25034257  0.41971705  1
  Te  Te128  1  0.24149213  0.26618284  0.77607400  1
  Te  Te129  1  0.22517039  0.59993439  0.10906249  1
  Te  Te130  1  0.25678953  0.56898034  0.43621897  1
  Te  Te131  1  0.28088111  0.56892103  0.70631195  1
  Te  Te132  1  0.22099470  0.89423236  0.05703998  1
  Te  Te133  1  0.27552380  0.94283632  0.42891004  1
  Te  Te134  1  0.26614488  0.91470019  0.76841355  1
  Te  Te135  1  0.58381302  0.24718801  0.07621972  1
  Te  Te136  1  0.61330450  0.23544852  0.43404301  1
  Te  Te137  1  0.57971479  0.26991332  0.75482513  1
  Te  Te138  1  0.59082924  0.58239816  0.08266946  1
  Te  Te139  1  0.58226125  0.60459161  0.42011543  1
  Te  Te140  1  0.58813771  0.57455316  0.71878839  1
  Te  Te141  1  0.56510936  0.89853796  0.08521272  1
  Te  Te142  1  0.57650953  0.90439274  0.42203202  1
  Te  Te143  1  0.61123153  0.93036921  0.72185654  1
  Te  Te144  1  0.91838172  0.25596607  0.07134153  1
  Te  Te145  1  0.91746745  0.24709008  0.42339059  1
  Te  Te146  1  0.93630501  0.23410482  0.74743294  1
  Te  Te147  1  0.92054116  0.60181206  0.07951894  1
  Te  Te148  1  0.95567858  0.60432972  0.40054127  1
  Te  Te149  1  0.90861473  0.60417789  0.74449832  1
  Te  Te150  1  0.91788607  0.93015456  0.10207673  1
  Te  Te151  1  0.88479240  0.87531985  0.46458179  1
  Te  Te152  1  0.89686025  0.88593456  0.74262276  1
  Te  Te153  1  0.24510210  0.09736525  0.23872794  1
  Te  Te154  1  0.22414087  0.06740066  0.55939186  1
  Te  Te155  1  0.21176075  0.09875651  0.90741031  1
  Te  Te156  1  0.23509446  0.43124139  0.26579804  1
  Te  Te157  1  0.26092223  0.45981884  0.56814403  1
  Te  Te158  1  0.24692608  0.43460693  0.91011360  1
  Te  Te159  1  0.23248567  0.76963989  0.25795724  1
  Te  Te160  1  0.28136037  0.75108497  0.60349280  1
  Te  Te161  1  0.25907860  0.74394642  0.89321546  1
  Te  Te162  1  0.59477579  0.06062052  0.26422289  1
  Te  Te163  1  0.59457346  0.08029676  0.57811013  1
  Te  Te164  1  0.59542269  0.05321738  0.89109592  1
  Te  Te165  1  0.58181611  0.43636394  0.24956011  1
  Te  Te166  1  0.57739914  0.42046829  0.60263112  1
  Te  Te167  1  0.57573107  0.42975427  0.90365229  1
  Te  Te168  1  0.59607670  0.74835678  0.26156334  1
  Te  Te169  1  0.57562694  0.74795748  0.58298186  1
  Te  Te170  1  0.56172397  0.75963383  0.89284628  1
  Te  Te171  1  0.91188666  0.08382903  0.26158260  1
  Te  Te172  1  0.91123330  0.07209310  0.58505626  1
  Te  Te173  1  0.93897837  0.07647226  0.88793131  1
  Te  Te174  1  0.91381245  0.44443701  0.24775238  1
  Te  Te175  1  0.93614745  0.40808992  0.57601569  1
  Te  Te176  1  0.91586172  0.41336190  0.90911808  1
  Te  Te177  1  0.94351837  0.72704480  0.28380575  1
  Te  Te178  1  0.87911245  0.74448281  0.55421276  1
  Te  Te179  1  0.89663017  0.73300825  0.90080692  1
