# generated using pymatgen
data_In2Te3
_symmetry_space_group_name_H-M   'P 1'
_cell_length_a   18.86581976
_cell_length_b   18.86876218
_cell_length_c   18.85919739
_cell_angle_alpha   89.94783073
_cell_angle_beta   90.17250866
_cell_angle_gamma   89.91737702
_symmetry_Int_Tables_number   1
_chemical_formula_structural   In2Te3
_chemical_formula_sum   'In72 Te108'
_cell_volume   6713.35628029
_cell_formula_units_Z   36
loop_
 _symmetry_equiv_pos_site_id
 _symmetry_equiv_pos_as_xyz
  1  'x, y, z'
loop_
 _atom_site_type_symbol
 _atom_site_label
 _atom_site_symmetry_multiplicity
 _atom_site_fract_x
 _atom_site_fract_y
 _atom_site_fract_z
 _atom_site_occupancy
  In  In0  1  0.32910356  0.50961857  0.48101420  1
  In  In1  1  0.51890906  0.46068920  0.33662825  1
  In  In2  1  0.82107060  0.66156715  0.84069669  1
  In  In3  1  0.31667461  0.17247937  0.16672703  1
  In  In4  1  0.66749438  0.00175465  0.66686874  1
  In  In5  1  0.13983840  0.85628639  0.33373185  1
  In  In6  1  0.68488181  0.02022922  0.01321450  1
  In  In7  1  0.50193288  0.49418283  -0.00288786  1
  In  In8  1  -0.00507639  0.66742466  0.68517866  1
  In  In9  1  0.82738204  0.01976094  0.48814949  1
  In  In10  1  0.32246624  0.46722285  0.85559420  1
  In  In11  1  0.31361631  0.82569366  0.82481981  1
  In  In12  1  0.00868435  0.17614789  0.48686721  1
  In  In13  1  0.15354411  0.67087061  0.83691868  1
  In  In14  1  0.67092187  0.14958297  0.83432069  1
  In  In15  1  0.86193165  0.19424955  0.02211293  1
  In  In16  1  0.68549944  0.64553737  0.30234213  1
  In  In17  1  0.16284966  0.49171612  0.66001270  1
  In  In18  1  -0.00949376  0.83397808  0.49849754  1
  In  In19  1  0.30750009  0.66844760  0.31278157  1
  In  In20  1  0.31695449  0.33879259  0.33212677  1
  In  In21  1  0.49708784  0.00218583  0.51435440  1
  In  In22  1  0.01011486  0.83111450  0.83965752  1
  In  In23  1  0.31757862  0.50712152  0.15719073  1
  In  In24  1  -0.01825552  0.49367664  0.88854912  1
  In  In25  1  0.82805735  0.34009522  0.50068273  1
  In  In26  1  0.51553202  0.00452332  0.83053447  1
  In  In27  1  0.12715871  0.79874301  0.01843789  1
  In  In28  1  0.70180439  0.31027561  0.31316092  1
  In  In29  1  0.65521794  0.86514346  0.50154427  1
  In  In30  1  0.69219970  0.49763101  0.84212549  1
  In  In31  1  0.49348553  0.66650428  0.50236807  1
  In  In32  1  0.33152726  0.81100872  0.16419287  1
  In  In33  1  0.33500669  0.67438635  0.66956849  1
  In  In34  1  0.66756590  0.67025119  0.68696808  1
  In  In35  1  0.81717052  0.65799251  0.50110971  1
  In  In36  1  0.49883417  0.64542416  0.84300294  1
  In  In37  1  0.85502118  0.82210770  0.35442297  1
  In  In38  1  0.33750063  0.17380645  0.81816094  1
  In  In39  1  0.33625938  0.32465297  0.65459462  1
  In  In40  1  0.01218183  0.63051967  0.25347577  1
  In  In41  1  0.50610912  0.64554811  0.17129061  1
  In  In42  1  0.16783804  0.34239850  0.85988217  1
  In  In43  1  0.69024854  0.30971947  0.03891014  1
  In  In44  1  0.51573203  0.17693106  0.33636041  1
  In  In45  1  0.50808316  0.33089802  0.82440886  1
  In  In46  1  0.82492969  -0.00541519  0.84070054  1
  In  In47  1  0.66116896  0.49319470  0.51564562  1
  In  In48  1  0.32511746  0.00635062  -0.00118305  1
  In  In49  1  0.50515513  0.01904063  0.18886274  1
  In  In50  1  0.14605425  0.16073672  0.01764133  1
  In  In51  1  0.67537970  0.34492622  0.67072824  1
  In  In52  1  0.68583640  0.49162845  0.16776709  1
  In  In53  1  0.00333003  -0.02113316  0.00285781  1
  In  In54  1  0.32982944  0.18048273  0.49246384  1
  In  In55  1  0.84432152  0.84588406  -0.00510628  1
  In  In56  1  0.69352994  0.83707007  0.15369437  1
  In  In57  1  0.31106980  -0.00586447  0.32183395  1
  In  In58  1  0.15409987  0.01959848  0.48350399  1
  In  In59  1  0.01066715  0.33070320  0.31717970  1
  In  In60  1  0.70752704  0.04730616  0.31320961  1
  In  In61  1  -0.01047068  0.47629278  0.47289995  1
  In  In62  1  0.17648278  0.66874402  0.49998128  1
  In  In63  1  0.85205554  0.50299583  0.30252847  1
  In  In64  1  -0.00094204  0.32556117  0.66182890  1
  In  In65  1  0.50457025  0.81848919  0.36574482  1
  In  In66  1  0.16778152  0.00447946  0.17889099  1
  In  In67  1  -0.00085818  0.01180645  0.66681653  1
  In  In68  1  -0.00366162  0.17840289  0.81573954  1
  In  In69  1  0.33782925  -0.01042389  0.65785043  1
  In  In70  1  0.51548359  0.81541184  -0.00955515  1
  In  In71  1  0.32990509  0.33972266  0.00349577  1
  Te  Te72  1  0.05395021  0.08180567  0.10719412  1
  Te  Te73  1  0.05988380  0.07902751  0.38680147  1
  Te  Te74  1  0.09191949  0.09041299  0.74921952  1
  Te  Te75  1  0.01779389  0.43819899  0.02599944  1
  Te  Te76  1  0.09978126  0.41445046  0.40158973  1
  Te  Te77  1  0.07738032  0.42423645  0.76581513  1
  Te  Te78  1  0.02246334  0.73646031  0.10674334  1
  Te  Te79  1  0.07414136  0.74164141  0.41131108  1
  Te  Te80  1  0.09901504  0.76727956  0.73236233  1
  Te  Te81  1  0.41631079  0.09094271  0.08577978  1
  Te  Te82  1  0.41499174  0.07657939  0.39955126  1
  Te  Te83  1  0.42958832  0.08648057  0.73518055  1
  Te  Te84  1  0.42368941  0.41334308  0.09902357  1
  Te  Te85  1  0.42072895  0.39751751  0.43103478  1
  Te  Te86  1  0.41449438  0.42141033  0.74558437  1
  Te  Te87  1  0.42065646  0.72791110  0.07454532  1
  Te  Te88  1  0.38620863  0.74233417  0.42376511  1
  Te  Te89  1  0.43007808  0.75342567  0.75771847  1
  Te  Te90  1  0.79386088  0.07942885  0.09574877  1
  Te  Te91  1  0.72512848  0.11990187  0.44377448  1
  Te  Te92  1  0.77108701  0.09087169  0.73675622  1
  Te  Te93  1  0.78317365  0.42333457  0.07378861  1
  Te  Te94  1  0.75150874  0.43881157  0.39831768  1
  Te  Te95  1  0.77529828  0.40180428  0.76535712  1
  Te  Te96  1  0.76077363  0.74380777  0.06434797  1
  Te  Te97  1  0.73020371  0.75057393  0.41431414  1
  Te  Te98  1  0.76343117  0.76156721  0.74912460  1
  Te  Te99  1  0.06751405  0.23380112  0.22045352  1
  Te  Te100  1  0.09373426  0.26276240  0.57063055  1
  Te  Te101  1  0.06490114  0.25548210  0.92982991  1
  Te  Te102  1  0.12010818  0.53866040  0.19896019  1
  Te  Te103  1  0.06990211  0.58128912  0.57767179  1
  Te  Te104  1  0.08544773  0.59343777  0.94104857  1
  Te  Te105  1  0.05580186  0.92350409  0.23319748  1
  Te  Te106  1  0.08484030  0.92123537  0.57876772  1
  Te  Te107  1  0.11025661  0.91497616  0.91733751  1
  Te  Te108  1  0.41459303  0.25380748  0.24984275  1
  Te  Te109  1  0.42923907  0.23536985  0.58524701  1
  Te  Te110  1  0.42077321  0.25006511  0.92061446  1
  Te  Te111  1  0.42111485  0.56853212  0.27149855  1
  Te  Te112  1  0.41566732  0.57151806  0.59127161  1
  Te  Te113  1  0.39397360  0.57939432  0.93170574  1
  Te  Te114  1  0.41529934  0.90366710  0.25132999  1
  Te  Te115  1  0.42359669  0.89633201  0.58126219  1
  Te  Te116  1  0.41660270  0.91516624  0.91814229  1
  Te  Te117  1  0.80044626  0.25537237  0.21524630  1
  Te  Te118  1  0.74856976  0.24959992  0.58314570  1
  Te  Te119  1  0.75710432  0.24143951  0.91909763  1
  Te  Te120  1  0.78833777  0.60258710  0.20251554  1
  Te  Te121  1  0.75455380  0.57052716  0.60739344  1
  Te  Te122  1  0.77436698  0.56609727  0.94445751  1
  Te  Te123  1  0.76516770  0.91059897  0.26303666  1
  Te  Te124  1  0.77032813  0.91573358  0.58349643  1
  Te  Te125  1  0.72531482  0.91061370  0.91684110  1
  Te  Te126  1  0.22572381  0.26823494  0.09101807  1
  Te  Te127  1  0.22912112  0.24674537  0.40796025  1
  Te  Te128  1  0.23364325  0.26031896  0.74822751  1
  Te  Te129  1  0.22784728  0.62079980  0.12663630  1
  Te  Te130  1  0.22141340  0.57052578  0.39131526  1
  Te  Te131  1  0.24974111  0.57361309  0.75782956  1
  Te  Te132  1  0.24290256  0.90977613  0.08363792  1
  Te  Te133  1  0.24828812  0.90763354  0.42741778  1
  Te  Te134  1  0.24503316  0.93732491  0.76004356  1
  Te  Te135  1  0.58374743  0.22901974  0.09503447  1
  Te  Te136  1  0.59855593  0.27247946  0.41193018  1
  Te  Te137  1  0.58594579  0.23357528  0.74104056  1
  Te  Te138  1  0.60119698  0.58098948  0.07389343  1
  Te  Te139  1  0.58368033  0.58672491  0.40784024  1
  Te  Te140  1  0.58445481  0.55985846  0.75132248  1
  Te  Te141  1  0.57517505  0.92364451  0.09076745  1
  Te  Te142  1  0.58973874  0.94225598  0.38775116  1
  Te  Te143  1  0.59040658  0.90869751  0.74979471  1
  Te  Te144  1  0.94495483  0.25911836  0.13659339  1
  Te  Te145  1  0.90759195  0.25580131  0.40395773  1
  Te  Te146  1  0.89820451  0.27230421  0.75636377  1
  Te  Te147  1  0.98509628  0.58488495  0.10874931  1
  Te  Te148  1  0.91932817  0.59642835  0.40626563  1
  Te  Te149  1  0.91885034  0.56884721  0.76684174  1
  Te  Te150  1  0.91189033  0.92190438  0.10320208  1
  Te  Te151  1  0.93177249  0.94295654  0.40762632  1
  Te  Te152  1  0.91725756  0.91285435  0.75140523  1
  Te  Te153  1  0.22691940  0.11076981  0.27273844  1
  Te  Te154  1  0.24737364  0.08892532  0.58176711  1
  Te  Te155  1  0.24193014  0.10067741  0.91470983  1
  Te  Te156  1  0.23143654  0.41035906  0.23106587  1
  Te  Te157  1  0.24585815  0.41103028  0.56413016  1
  Te  Te158  1  0.22109340  0.44121867  0.96505799  1
  Te  Te159  1  0.20809436  0.75466057  0.23434053  1
  Te  Te160  1  0.24272787  0.75950508  0.59382528  1
  Te  Te161  1  0.24635244  0.74536208  0.93456769  1
  Te  Te162  1  0.60779531  0.13003654  0.21297035  1
  Te  Te163  1  0.60419935  0.08989571  0.56349218  1
  Te  Te164  1  0.57428260  0.09485960  0.93837540  1
  Te  Te165  1  0.59347948  0.38813999  0.22827218  1
  Te  Te166  1  0.56844991  0.41052989  0.59044621  1
  Te  Te167  1  0.59752587  0.39810763  0.92812993  1
  Te  Te168  1  0.58399273  0.75547538  0.24381723  1
  Te  Te169  1  0.58760088  0.75348892  0.58352518  1
  Te  Te170  1  0.60042393  0.72452283  0.91460292  1
  Te  Te171  1  0.83249845  0.11246028  0.25831748  1
  Te  Te172  1  0.91372339  0.10456004  0.58240826  1
  Te  Te173  1  0.91915999  0.08239117  0.92192203  1
  Te  Te174  1  0.92781523  0.41018758  0.21739883  1
  Te  Te175  1  0.90972881  0.43075898  0.59145337  1
  Te  Te176  1  0.89128559  0.39099657  0.95984495  1
  Te  Te177  1  0.92222031  0.75185159  0.24129166  1
  Te  Te178  1  0.90456531  0.74680344  0.58958389  1
  Te  Te179  1  0.92753779  0.73842826  0.92266349  1
