# generated using pymatgen
data_In2Te3
_symmetry_space_group_name_H-M   'P 1'
_cell_length_a   18.96869706
_cell_length_b   18.92403504
_cell_length_c   18.94705302
_cell_angle_alpha   89.92384595
_cell_angle_beta   90.10501511
_cell_angle_gamma   90.06751274
_symmetry_Int_Tables_number   1
_chemical_formula_structural   In2Te3
_chemical_formula_sum   'In72 Te108'
_cell_volume   6801.29325992
_cell_formula_units_Z   36
loop_
 _symmetry_equiv_pos_site_id
 _symmetry_equiv_pos_as_xyz
  1  'x, y, z'
loop_
 _atom_site_type_symbol
 _atom_site_label
 _atom_site_symmetry_multiplicity
 _atom_site_fract_x
 _atom_site_fract_y
 _atom_site_fract_z
 _atom_site_occupancy
  In  In0  1  0.16294113  0.16847967  0.66631258  1
  In  In1  1  0.65562276  0.00174204  0.33235704  1
  In  In2  1  0.15407276  0.30143983  0.53961367  1
  In  In3  1  0.49136383  0.16959915  0.67164115  1
  In  In4  1  0.16991782  0.00112228  0.84318380  1
  In  In5  1  0.84802157  -0.00558806  0.52015870  1
  In  In6  1  0.83656527  0.00630982  0.18838547  1
  In  In7  1  0.34129262  0.32090661  0.31097992  1
  In  In8  1  0.14569537  0.65856010  0.82213449  1
  In  In9  1  0.68315772  0.32873388  0.67422001  1
  In  In10  1  0.68470146  0.33818716  -0.02932137  1
  In  In11  1  0.48570790  0.69744800  0.48133222  1
  In  In12  1  0.51148714  0.52171946  0.31351367  1
  In  In13  1  0.48617438  0.32784494  0.14810994  1
  In  In14  1  0.69693562  0.48759508  0.52194435  1
  In  In15  1  0.83234414  0.67272750  0.83827452  1
  In  In16  1  0.32577956  0.50087428  0.82634390  1
  In  In17  1  0.16977506  0.81397786  -0.01082871  1
  In  In18  1  -0.00327660  0.66431201  0.33250980  1
  In  In19  1  0.20184014  0.85331582  0.32482214  1
  In  In20  1  0.03989601  0.15751034  0.49093818  1
  In  In21  1  0.01595706  0.84791155  0.83674412  1
  In  In22  1  0.84540580  0.85179114  -0.02124567  1
  In  In23  1  0.66092206  0.16005362  0.17420661  1
  In  In24  1  0.32666428  0.84383548  0.84117204  1
  In  In25  1  0.82974470  0.66305695  0.18955417  1
  In  In26  1  0.00513162  -0.00436987  0.66668824  1
  In  In27  1  0.16315515  0.15329269  0.33375235  1
  In  In28  1  0.31704690  0.33641303  -0.00810378  1
  In  In29  1  0.49844217  0.66360138  0.85316746  1
  In  In30  1  0.84851033  0.16360919  0.36002557  1
  In  In31  1  0.67844841  0.49659458  0.15458974  1
  In  In32  1  0.02049806  0.47870003  0.81254168  1
  In  In33  1  0.17239833  0.31602621  0.16912583  1
  In  In34  1  -0.03241716  0.47515219  0.53981832  1
  In  In35  1  0.02441135  0.83197677  0.15513195  1
  In  In36  1  -0.00214136  0.84267130  0.49439543  1
  In  In37  1  0.48211765  0.52446178  0.68282059  1
  In  In38  1  0.46005681  0.84592930  0.28447622  1
  In  In39  1  0.31882795  0.48896871  0.47921008  1
  In  In40  1  0.31516868  0.14171053  0.48482758  1
  In  In41  1  0.66465147  0.82102960  0.83065721  1
  In  In42  1  0.32950360  0.68848771  0.66690657  1
  In  In43  1  0.49580920  0.48001406  0.01042382  1
  In  In44  1  0.52864531  0.32668350  0.48991445  1
  In  In45  1  0.40175171  0.71416061  0.16568913  1
  In  In46  1  0.65441288  0.67247853  0.00538692  1
  In  In47  1  0.85536907  0.66170053  0.50972799  1
  In  In48  1  0.00888384  0.32546490  0.02755757  1
  In  In49  1  0.00600167  0.49176926  0.16440467  1
  In  In50  1  0.15212701  0.17036914  -0.00617062  1
  In  In51  1  -0.00852057  0.67973495  0.68367837  1
  In  In52  1  0.82955542  0.50041854  0.00340504  1
  In  In53  1  0.48258383  0.14552816  0.01795719  1
  In  In54  1  0.67743971  0.32369796  0.34826028  1
  In  In55  1  0.70722784  0.15219955  0.79298297  1
  In  In56  1  0.67976865  0.84920168  0.50335277  1
  In  In57  1  0.48949079  -0.00360183  0.48098611  1
  In  In58  1  0.34052388  0.15741290  0.85240545  1
  In  In59  1  0.01725135  0.34277468  0.32864112  1
  In  In60  1  0.65377898  0.17784726  0.52302304  1
  In  In61  1  0.64588534  -0.00125254  0.00230578  1
  In  In62  1  0.17264543  0.00311404  0.14942878  1
  In  In63  1  0.32790162  0.31906199  0.67204888  1
  In  In64  1  0.48511576  -0.00267777  0.83230328  1
  In  In65  1  0.66247660  0.82805931  0.17235341  1
  In  In66  1  0.82968784  0.34014283  0.82323077  1
  In  In67  1  0.51011910  0.84798162  0.64008357  1
  In  In68  1  0.16688329  0.66863910  0.51407455  1
  In  In69  1  0.66679682  0.67767655  0.35497325  1
  In  In70  1  0.14361859  0.50709285  0.34141976  1
  In  In71  1  0.93018243  0.17105131  -0.05199465  1
  Te  Te72  1  0.07039117  0.08945808  0.08614343  1
  Te  Te73  1  0.11960873  0.04922906  0.43156098  1
  Te  Te74  1  0.07594977  0.08976804  0.76406661  1
  Te  Te75  1  0.11279140  0.42400663  0.08039774  1
  Te  Te76  1  0.08603207  0.41852084  0.45094525  1
  Te  Te77  1  0.10847143  0.41624083  0.71430477  1
  Te  Te78  1  0.07634761  0.72903778  0.06524028  1
  Te  Te79  1  0.09286582  0.75821030  0.40531157  1
  Te  Te80  1  0.09886230  0.77424313  0.73431768  1
  Te  Te81  1  0.43472047  0.04526003  0.11502096  1
  Te  Te82  1  0.42021255  0.09458611  0.39635588  1
  Te  Te83  1  0.39386214  0.07385410  0.73722567  1
  Te  Te84  1  0.38304956  0.42602216  0.09701822  1
  Te  Te85  1  0.43099841  0.41420156  0.40602373  1
  Te  Te86  1  0.42148242  0.40493919  0.75599178  1
  Te  Te87  1  0.38733689  0.81316095  0.05475123  1
  Te  Te88  1  0.38686436  0.76739582  0.39380067  1
  Te  Te89  1  0.43349961  0.76324178  0.74868682  1
  Te  Te90  1  0.74918960  0.07598413  0.08398454  1
  Te  Te91  1  0.73969864  0.07704611  0.43398664  1
  Te  Te92  1  0.75150624  0.07234406  0.68033245  1
  Te  Te93  1  0.76590428  0.39225143  0.08899127  1
  Te  Te94  1  0.77006110  0.40818155  0.42373673  1
  Te  Te95  1  0.72893904  0.43149093  0.76815592  1
  Te  Te96  1  0.76300329  0.75395136  0.07536999  1
  Te  Te97  1  0.77292167  0.75911216  0.42320218  1
  Te  Te98  1  0.75918861  0.75477108  0.74204298  1
  Te  Te99  1  0.07062457  0.23069805  0.24165113  1
  Te  Te100  1  0.05488168  0.28498721  0.65751147  1
  Te  Te101  1  0.05751886  0.24674791  0.90414126  1
  Te  Te102  1  0.09042701  0.59917392  0.23363391  1
  Te  Te103  1  0.06391377  0.58644881  0.58835651  1
  Te  Te104  1  0.07844790  0.56754034  0.91446775  1
  Te  Te105  1  0.09015515  0.92718173  0.25398047  1
  Te  Te106  1  0.09242036  0.93087881  0.56643294  1
  Te  Te107  1  0.08150329  0.93121043  0.94427362  1
  Te  Te108  1  0.41898909  0.22782760  0.23096612  1
  Te  Te109  1  0.41325262  0.24925129  0.56428244  1
  Te  Te110  1  0.42803200  0.25619754  0.92618483  1
  Te  Te111  1  0.39778206  0.58616673  0.24936466  1
  Te  Te112  1  0.40483881  0.58877428  0.56562705  1
  Te  Te113  1  0.40527259  0.57665086  0.93313353  1
  Te  Te114  1  0.37938242  0.96129470  0.23484589  1
  Te  Te115  1  0.39987145  0.91328632  0.56625742  1
  Te  Te116  1  0.40687573  0.92633776  0.93710270  1
  Te  Te117  1  0.76300379  0.23718924  0.25700846  1
  Te  Te118  1  0.76258160  0.27052997  0.56365848  1
  Te  Te119  1  0.76916418  0.22358161  0.91292993  1
  Te  Te120  1  0.74256950  0.57114170  0.27079675  1
  Te  Te121  1  0.76575563  0.58926877  0.59986409  1
  Te  Te122  1  0.73628572  0.58250390  0.91699119  1
  Te  Te123  1  0.75193871  0.90539348  0.26610305  1
  Te  Te124  1  0.74569152  0.93137088  0.61027274  1
  Te  Te125  1  0.74151958  0.93157511  0.90428212  1
  Te  Te126  1  0.26146292  0.22919412  0.08470592  1
  Te  Te127  1  0.24202774  0.26576940  0.41470261  1
  Te  Te128  1  0.24515825  0.24444164  0.77352617  1
  Te  Te129  1  0.27887981  0.64766445  0.11863656  1
  Te  Te130  1  0.24730738  0.59924616  0.40414876  1
  Te  Te131  1  0.24139081  0.58342712  0.72989223  1
  Te  Te132  1  0.25839358  0.88470048  0.09304482  1
  Te  Te133  1  0.30351565  0.89763177  0.42184215  1
  Te  Te134  1  0.24637735  0.92148435  0.74762783  1
  Te  Te135  1  0.59429724  0.25250763  0.06845311  1
  Te  Te136  1  0.57740097  0.21982261  0.39517400  1
  Te  Te137  1  0.58892090  0.24373582  0.75948729  1
  Te  Te138  1  0.57038009  0.58445439  0.09539265  1
  Te  Te139  1  0.58602860  0.57553998  0.43476311  1
  Te  Te140  1  0.58357146  0.60308488  0.75162925  1
  Te  Te141  1  0.56982695  0.91114038  0.09421179  1
  Te  Te142  1  0.57066591  0.89162667  0.39987781  1
  Te  Te143  1  0.58542420  0.92384610  0.74738279  1
  Te  Te144  1  0.92286537  0.22186432  0.08576246  1
  Te  Te145  1  0.94311679  0.25861318  0.43259976  1
  Te  Te146  1  0.90108995  0.26420261  0.72005382  1
  Te  Te147  1  0.91566385  0.59070685  0.08833275  1
  Te  Te148  1  0.92333228  0.56311697  0.41686880  1
  Te  Te149  1  0.91311354  0.57235340  0.75592652  1
  Te  Te150  1  0.91930183  0.92518762  0.08677792  1
  Te  Te151  1  0.91774550  0.93200664  0.40690819  1
  Te  Te152  1  0.91188401  0.93195411  0.76850971  1
  Te  Te153  1  0.25826818  0.07550335  0.24976087  1
  Te  Te154  1  0.24105849  0.07085832  0.58848561  1
  Te  Te155  1  0.25934616  0.07102088  0.94527373  1
  Te  Te156  1  0.23895058  0.42033354  0.25850994  1
  Te  Te157  1  0.24616901  0.42037399  0.59266307  1
  Te  Te158  1  0.23354950  0.41360091  0.90007501  1
  Te  Te159  1  0.24916210  0.76193919  0.21112031  1
  Te  Te160  1  0.25098113  0.77161982  0.57563330  1
  Te  Te161  1  0.25784437  0.72454865  0.90312331  1
  Te  Te162  1  0.56776838  0.05632570  0.22531216  1
  Te  Te163  1  0.57011803  0.07053661  0.58933397  1
  Te  Te164  1  0.57681264  0.09492780  0.90522111  1
  Te  Te165  1  0.58770886  0.40244634  0.24351846  1
  Te  Te166  1  0.57122234  0.42075074  0.59932249  1
  Te  Te167  1  0.58793102  0.42884618  0.90910490  1
  Te  Te168  1  0.57265663  0.73618871  0.25254995  1
  Te  Te169  1  0.59731472  0.74227172  0.57576498  1
  Te  Te170  1  0.56558194  0.77244805  0.93608481  1
  Te  Te171  1  0.92987616  0.06292437  0.28922813  1
  Te  Te172  1  0.93336780  0.10322482  0.58377766  1
  Te  Te173  1  0.90538051  0.05802576  0.86077387  1
  Te  Te174  1  0.91715857  0.41316715  0.24890778  1
  Te  Te175  1  0.88407547  0.38359139  0.62255294  1
  Te  Te176  1  0.92324154  0.41082187  0.92541725  1
  Te  Te177  1  0.91940471  0.76610917  0.25158500  1
  Te  Te178  1  0.91019929  0.77449908  0.59776191  1
  Te  Te179  1  0.93665057  0.74625544  0.91953746  1
