# generated using pymatgen
data_In2Te3
_symmetry_space_group_name_H-M   'P 1'
_cell_length_a   19.02198358
_cell_length_b   19.01777991
_cell_length_c   19.03345820
_cell_angle_alpha   89.99971790
_cell_angle_beta   90.10594587
_cell_angle_gamma   89.82251382
_symmetry_Int_Tables_number   1
_chemical_formula_structural   In2Te3
_chemical_formula_sum   'In72 Te108'
_cell_volume   6885.42093797
_cell_formula_units_Z   36
loop_
 _symmetry_equiv_pos_site_id
 _symmetry_equiv_pos_as_xyz
  1  'x, y, z'
loop_
 _atom_site_type_symbol
 _atom_site_label
 _atom_site_symmetry_multiplicity
 _atom_site_fract_x
 _atom_site_fract_y
 _atom_site_fract_z
 _atom_site_occupancy
  In  In0  1  0.67343721  -0.00528371  0.32227237  1
  In  In1  1  0.49285281  0.66661525  0.17596159  1
  In  In2  1  0.17321720  0.67210493  0.84285908  1
  In  In3  1  0.83852422  0.33754093  0.16728325  1
  In  In4  1  0.65232267  0.03657865  0.64729846  1
  In  In5  1  0.67372747  0.16311057  0.82952759  1
  In  In6  1  0.80637709  0.16670745  -0.00077695  1
  In  In7  1  0.16148550  0.82503532  0.00817753  1
  In  In8  1  0.09372338  0.45816875  0.67542830  1
  In  In9  1  0.30268161  0.50356126  0.52826124  1
  In  In10  1  0.51865522  0.83400892  0.64713610  1
  In  In11  1  0.49796280  -0.01849566  0.17801216  1
  In  In12  1  0.86285706  0.17174362  0.34471199  1
  In  In13  1  0.33923887  0.83357910  0.18672847  1
  In  In14  1  0.49689114  0.16883300  0.65988072  1
  In  In15  1  0.63938777  0.84116331  0.82239801  1
  In  In16  1  0.32135401  0.68257206  0.65374321  1
  In  In17  1  -0.02308277  0.66108254  0.00375737  1
  In  In18  1  0.49267047  0.05179004  0.85648003  1
  In  In19  1  0.47935565  0.31897352  0.86947082  1
  In  In20  1  -0.03698439  0.19463832  0.83512937  1
  In  In21  1  0.81006790  0.80880441  -0.02033415  1
  In  In22  1  0.82906210  0.16947619  0.63203100  1
  In  In23  1  0.63739100  0.45156677  0.16361365  1
  In  In24  1  0.48548873  0.66721691  0.83561457  1
  In  In25  1  0.84246815  0.51425321  0.35351014  1
  In  In26  1  0.00983930  0.82653648  0.48675615  1
  In  In27  1  0.00950781  0.00712820  0.03979893  1
  In  In28  1  0.17629927  0.83021151  0.62876451  1
  In  In29  1  -0.02363397  0.34987755  -0.01764089  1
  In  In30  1  0.19407433  0.02134491  0.82340480  1
  In  In31  1  0.17827219  0.01174872  0.47627492  1
  In  In32  1  0.67591896  0.65007273  0.31752219  1
  In  In33  1  0.32996940  0.48699803  0.85951326  1
  In  In34  1  0.01677959  -0.00999729  0.34454979  1
  In  In35  1  0.16683426  0.20801648  0.69821753  1
  In  In36  1  0.46775001  0.68043369  0.45240007  1
  In  In37  1  0.02888002  0.85040699  0.81282924  1
  In  In38  1  0.00926127  0.51343934  0.16339561  1
  In  In39  1  0.83326151  -0.01141055  0.49801278  1
  In  In40  1  0.49903105  0.50744946  0.68333246  1
  In  In41  1  0.66000512  0.82371316  0.15056953  1
  In  In42  1  0.00930015  0.17838674  0.19734045  1
  In  In43  1  0.67005582  0.64633850  0.65276866  1
  In  In44  1  0.16810640  0.81942549  0.33573288  1
  In  In45  1  0.82054798  0.66185702  0.81656760  1
  In  In46  1  0.69994443  0.33913393  0.66388785  1
  In  In47  1  0.34136347  0.19425991  0.17385980  1
  In  In48  1  0.86606288  0.49627752  0.65608757  1
  In  In49  1  0.33615674  0.33873639  0.34762402  1
  In  In50  1  0.32599145  0.67125665  0.01542561  1
  In  In51  1  0.34472604  0.00412792  0.67299984  1
  In  In52  1  0.69277821  0.82103754  0.48038018  1
  In  In53  1  0.48651143  0.00034474  0.49591779  1
  In  In54  1  -0.01746805  0.01565906  0.67332334  1
  In  In55  1  -0.01769286  0.78777283  0.19775878  1
  In  In56  1  0.18301276  0.51132947  0.33289500  1
  In  In57  1  0.66527015  0.64788783  -0.00454556  1
  In  In58  1  0.16326590  0.34782041  0.51658374  1
  In  In59  1  0.64657420  0.30970388  -0.01561246  1
  In  In60  1  0.36838981  0.46745025  0.15439787  1
  In  In61  1  0.02331823  0.33184272  0.34984937  1
  In  In62  1  0.33511857  0.16708491  0.52134164  1
  In  In63  1  0.50490089  0.33387464  0.48624851  1
  In  In64  1  0.64149124  0.19186882  0.18107577  1
  In  In65  1  0.16037888  0.48174161  0.01593068  1
  In  In66  1  0.82242299  -0.01422196  0.14713394  1
  In  In67  1  0.19032831  0.01359432  0.20372762  1
  In  In68  1  0.66992882  0.50465626  0.48295430  1
  In  In69  1  -0.02084727  0.65006042  0.61395601  1
  In  In70  1  0.83877350  -0.02521572  0.84350435  1
  In  In71  1  0.34179623  0.00567279  -0.00797490  1
  Te  Te72  1  0.10798948  0.09882932  0.10772616  1
  Te  Te73  1  0.09350100  0.10132704  0.39835655  1
  Te  Te74  1  0.06725855  0.09374107  0.76941078  1
  Te  Te75  1  0.06913156  0.38992254  0.09388698  1
  Te  Te76  1  0.08545791  0.44443975  0.42918769  1
  Te  Te77  1  0.08944964  0.38111517  0.80391463  1
  Te  Te78  1  0.07823427  0.73232770  0.09219902  1
  Te  Te79  1  0.06697815  0.72566711  0.39479208  1
  Te  Te80  1  0.09878456  0.74454661  0.73074939  1
  Te  Te81  1  0.41554053  0.08191677  0.09862510  1
  Te  Te82  1  0.40030478  0.08876187  0.41502259  1
  Te  Te83  1  0.38959457  0.12382601  0.76149758  1
  Te  Te84  1  0.43279844  0.37381907  0.05314024  1
  Te  Te85  1  0.40544939  0.43769503  0.43738466  1
  Te  Te86  1  0.41719430  0.40926391  0.76126055  1
  Te  Te87  1  0.42430196  0.76465446  0.08180401  1
  Te  Te88  1  0.39712222  0.78438065  0.38012111  1
  Te  Te89  1  0.42025454  0.76244702  0.73808355  1
  Te  Te90  1  0.72403941  0.08889296  0.09769332  1
  Te  Te91  1  0.75489259  0.08509883  0.41170067  1
  Te  Te92  1  0.76919608  0.07500324  0.74825903  1
  Te  Te93  1  0.74294576  0.39640235  0.06841594  1
  Te  Te94  1  0.75650678  0.41175975  0.41172925  1
  Te  Te95  1  0.75897501  0.44559667  0.74159648  1
  Te  Te96  1  0.75739136  0.72356214  0.09123024  1
  Te  Te97  1  0.77260410  0.73149879  0.39537477  1
  Te  Te98  1  0.73302519  0.75738370  0.73776404  1
  Te  Te99  1  0.11349669  0.25043058  0.26719488  1
  Te  Te100  1  0.07942029  0.25033276  0.59081748  1
  Te  Te101  1  0.06722633  0.24794784  0.92333629  1
  Te  Te102  1  0.09953521  0.59490299  0.24365409  1
  Te  Te103  1  0.09357515  0.56921459  0.57858752  1
  Te  Te104  1  0.08779464  0.58504705  0.92867719  1
  Te  Te105  1  0.07547478  0.90740549  0.23276082  1
  Te  Te106  1  0.07699215  0.93472534  0.58012297  1
  Te  Te107  1  0.08808751  0.93222361  0.92639333  1
  Te  Te108  1  0.44109427  0.27100060  0.26250814  1
  Te  Te109  1  0.41240378  0.27486327  0.59199084  1
  Te  Te110  1  0.38497821  0.24287060  0.95088578  1
  Te  Te111  1  0.42144924  0.56386404  0.25115179  1
  Te  Te112  1  0.42723714  0.59597707  0.58285435  1
  Te  Te113  1  0.41959942  0.57922184  0.93852412  1
  Te  Te114  1  0.42474993  0.90611568  0.28506811  1
  Te  Te115  1  0.40328427  0.90272047  0.57571450  1
  Te  Te116  1  0.42592832  0.93036680  0.89867720  1
  Te  Te117  1  0.75924648  0.24792197  0.25813346  1
  Te  Te118  1  0.73366989  0.24895082  0.55499189  1
  Te  Te119  1  0.76682478  0.26407694  0.89306187  1
  Te  Te120  1  0.73868465  0.53597305  0.24217916  1
  Te  Te121  1  0.77225697  0.58062944  0.56576040  1
  Te  Te122  1  0.77276737  0.57671760  0.92400539  1
  Te  Te123  1  0.75655374  0.89400043  0.24651885  1
  Te  Te124  1  0.73313999  0.92266570  0.58964018  1
  Te  Te125  1  0.72295424  0.92077745  0.92272050  1
  Te  Te126  1  0.29821357  0.29456959  0.06802745  1
  Te  Te127  1  0.24607482  0.25344982  0.43296126  1
  Te  Te128  1  0.27447267  0.22305984  0.79331656  1
  Te  Te129  1  0.25999587  0.56389610  0.09524964  1
  Te  Te130  1  0.25632575  0.60078843  0.42789216  1
  Te  Te131  1  0.26832574  0.58925749  0.76057434  1
  Te  Te132  1  0.24673625  0.92032468  0.09037273  1
  Te  Te133  1  0.25771747  0.90555309  0.41565849  1
  Te  Te134  1  0.24788569  0.90830896  0.74217971  1
  Te  Te135  1  0.54960730  0.26960133  0.09150626  1
  Te  Te136  1  0.57333528  0.28002722  0.36852809  1
  Te  Te137  1  0.59190098  0.25341985  0.74099129  1
  Te  Te138  1  0.57628380  0.57079261  0.09001193  1
  Te  Te139  1  0.56848031  0.57920449  0.39795498  1
  Te  Te140  1  0.59527431  0.58533367  0.76970946  1
  Te  Te141  1  0.58177392  0.92061172  0.07595525  1
  Te  Te142  1  0.59102203  0.91504328  0.42138284  1
  Te  Te143  1  0.56571642  0.95176593  0.73906174  1
  Te  Te144  1  0.91209184  0.22910264  0.08722385  1
  Te  Te145  1  0.91960509  0.27119083  0.43309101  1
  Te  Te146  1  0.90571306  0.26394653  0.71862119  1
  Te  Te147  1  0.90365424  0.55382129  0.06885818  1
  Te  Te148  1  0.93776619  0.62075515  0.39266051  1
  Te  Te149  1  0.93759909  0.59488889  0.74995605  1
  Te  Te150  1  0.91053292  0.89401990  0.06507444  1
  Te  Te151  1  0.90824072  0.90234478  0.39936704  1
  Te  Te152  1  0.90833855  0.89860333  0.73294675  1
  Te  Te153  1  0.28945341  0.09546074  0.27300665  1
  Te  Te154  1  0.23543862  0.08537593  0.60354919  1
  Te  Te155  1  0.24130002  0.09879679  0.93675701  1
  Te  Te156  1  0.25364083  0.41133843  0.24470287  1
  Te  Te157  1  0.23819706  0.41437923  0.62928289  1
  Te  Te158  1  0.24060251  0.39315774  0.92850788  1
  Te  Te159  1  0.24669951  0.73750414  0.24359237  1
  Te  Te160  1  0.24174342  0.73313478  0.53933801  1
  Te  Te161  1  0.26515362  0.76784529  0.91416425  1
  Te  Te162  1  0.56921143  0.08662170  0.26369964  1
  Te  Te163  1  0.57667516  0.11443599  0.54291186  1
  Te  Te164  1  0.58885380  0.11988171  0.94129575  1
  Te  Te165  1  0.54700960  0.39245132  0.26559771  1
  Te  Te166  1  0.58469255  0.42646979  0.58796873  1
  Te  Te167  1  0.58218960  0.41469383  0.90572053  1
  Te  Te168  1  0.58251407  0.75519676  0.25989953  1
  Te  Te169  1  0.58659748  0.73222779  0.55666983  1
  Te  Te170  1  0.57608646  0.74971434  0.92450932  1
  Te  Te171  1  0.91413349  0.06251057  0.24186705  1
  Te  Te172  1  0.93155469  0.09000307  0.55274740  1
  Te  Te173  1  0.91317698  0.07093366  0.93290461  1
  Te  Te174  1  0.92782354  0.41649184  0.25953244  1
  Te  Te175  1  0.96717920  0.39097346  0.62647347  1
  Te  Te176  1  0.96321476  0.42948638  0.86093668  1
  Te  Te177  1  0.89320313  0.69406231  0.26671047  1
  Te  Te178  1  0.90651276  0.76787959  0.57222355  1
  Te  Te179  1  0.93008721  0.76272120  0.89575587  1
