# generated using pymatgen
data_In2Te3
_symmetry_space_group_name_H-M   'P 1'
_cell_length_a   19.01173503
_cell_length_b   19.07027201
_cell_length_c   19.06234144
_cell_angle_alpha   90.00460528
_cell_angle_beta   89.87246298
_cell_angle_gamma   90.21178675
_symmetry_Int_Tables_number   1
_chemical_formula_structural   In2Te3
_chemical_formula_sum   'In72 Te108'
_cell_volume   6911.15830049
_cell_formula_units_Z   36
loop_
 _symmetry_equiv_pos_site_id
 _symmetry_equiv_pos_as_xyz
  1  'x, y, z'
loop_
 _atom_site_type_symbol
 _atom_site_label
 _atom_site_symmetry_multiplicity
 _atom_site_fract_x
 _atom_site_fract_y
 _atom_site_fract_z
 _atom_site_occupancy
  In  In0  1  0.83138405  0.83724661  0.33199035  1
  In  In1  1  0.30049661  0.31405639  0.65986617  1
  In  In2  1  0.32073278  0.68980830  0.34939191  1
  In  In3  1  0.15847993  0.00199024  0.48447554  1
  In  In4  1  0.81226707  0.81145977  -0.00424235  1
  In  In5  1  0.18091174  0.31014331  0.84643801  1
  In  In6  1  0.15061708  0.66587422  0.16868170  1
  In  In7  1  -0.03047489  -0.05528931  0.66096549  1
  In  In8  1  0.01358542  0.50907749  0.48783749  1
  In  In9  1  0.82219554  0.18580998  0.34461956  1
  In  In10  1  0.65636698  0.65862419  0.33226430  1
  In  In11  1  0.34398814  0.02198547  0.03469314  1
  In  In12  1  0.66193948  0.49145524  0.84283737  1
  In  In13  1  0.02496050  0.34299884  0.67121523  1
  In  In14  1  0.82224451  0.65881706  0.18861756  1
  In  In15  1  0.50787270  0.64911697  0.15684018  1
  In  In16  1  0.17373401  0.49300667  0.01377134  1
  In  In17  1  0.15693035  0.14268589  0.66566403  1
  In  In18  1  0.54643669  0.19678722  0.00380623  1
  In  In19  1  0.18552552  0.33101026  0.18188909  1
  In  In20  1  0.37828322  0.06008085  0.25626203  1
  In  In21  1  0.47082010  0.48951040  0.67660301  1
  In  In22  1  0.29032892  0.50114098  0.85647730  1
  In  In23  1  -0.01534076  0.00914004  -0.02485879  1
  In  In24  1  0.82167311  0.48656852  0.31102328  1
  In  In25  1  0.19144540  0.32130176  0.48554884  1
  In  In26  1  0.49329491  0.67897556  0.84953893  1
  In  In27  1  0.78987319  0.16125120  -0.00712119  1
  In  In28  1  0.48615986  0.36322829  0.87660409  1
  In  In29  1  0.68889447  0.51618670  0.49835751  1
  In  In30  1  0.16097324  0.66857617  0.84442958  1
  In  In31  1  0.82853014  0.36290555  0.85753342  1
  In  In32  1  0.84759067  0.00271051  0.14755794  1
  In  In33  1  0.65031566  0.16370469  0.79357625  1
  In  In34  1  0.19710843  0.84643847  0.67641396  1
  In  In35  1  0.51916135  0.34102822  0.48736461  1
  In  In36  1  0.67770206  0.33553809  0.67931220  1
  In  In37  1  0.48805197  0.49342628  0.34175093  1
  In  In38  1  0.36984128  0.17154021  0.48227912  1
  In  In39  1  0.33404817  0.85725665  0.49162658  1
  In  In40  1  0.49281996  0.86938569  0.33477302  1
  In  In41  1  0.38046636  0.32047361  0.04828499  1
  In  In42  1  0.36421748  0.00183725  0.64682008  1
  In  In43  1  -0.00953062  0.33881419  -0.00328337  1
  In  In44  1  -0.00749915  0.15730118  0.80304974  1
  In  In45  1  -0.00827530  0.34750012  0.32658371  1
  In  In46  1  0.82349542  0.65830361  0.82118412  1
  In  In47  1  0.32828599  0.64488406  0.02055343  1
  In  In48  1  -0.07983957  0.66316906  0.62643785  1
  In  In49  1  0.37399391  0.28889341  0.31047348  1
  In  In50  1  0.17465899  0.15642582  0.01861019  1
  In  In51  1  0.00590577  0.18165275  0.14970971  1
  In  In52  1  0.68124796  0.84801024  0.17632800  1
  In  In53  1  0.14260670  0.83022264  0.31735480  1
  In  In54  1  0.52018150  0.13130714  0.61483969  1
  In  In55  1  0.52953075  0.83630708  0.01226345  1
  In  In56  1  0.00432528  -0.00572408  0.32210376  1
  In  In57  1  0.84056316  0.16950848  0.63965084  1
  In  In58  1  0.70037738  0.68792062  0.65585822  1
  In  In59  1  0.76796764  -0.01997140  0.81073867  1
  In  In60  1  -0.00736173  0.67500539  0.31798116  1
  In  In61  1  0.18267926  0.84764690  0.01387609  1
  In  In62  1  -0.00089328  0.81582360  0.86233284  1
  In  In63  1  0.35307736  0.85244747  0.84330838  1
  In  In64  1  0.13666962  0.52798960  0.68002376  1
  In  In65  1  0.61843626  0.29576645  0.28449133  1
  In  In66  1  0.67505521  0.82671348  0.49084248  1
  In  In67  1  0.31621363  0.53092735  0.50421765  1
  In  In68  1  0.83035443  0.35935770  0.49718404  1
  In  In69  1  0.35842056  0.70955663  0.67667435  1
  In  In70  1  0.83693685  0.00030524  0.48977331  1
  In  In71  1  0.81215463  0.49806654  0.03181049  1
  Te  Te72  1  0.07485535  0.06426035  0.08467678  1
  Te  Te73  1  0.08060686  0.09105139  0.40157156  1
  Te  Te74  1  0.07155919  0.04793889  0.74286310  1
  Te  Te75  1  0.08243528  0.40399424  0.09644437  1
  Te  Te76  1  0.10287286  0.41621442  0.40856412  1
  Te  Te77  1  0.09743216  0.41827468  0.78061346  1
  Te  Te78  1  0.09280145  0.73665658  0.05263908  1
  Te  Te79  1  0.07009291  0.75042072  0.41537852  1
  Te  Te80  1  0.09213754  0.76486784  0.75299894  1
  Te  Te81  1  0.46203618  0.10278324  0.08631231  1
  Te  Te82  1  0.41404801  0.05192305  0.40744596  1
  Te  Te83  1  0.45524226  0.07762192  0.73454510  1
  Te  Te84  1  0.44777001  0.43924707  0.10052433  1
  Te  Te85  1  0.39768315  0.41441470  0.44055083  1
  Te  Te86  1  0.37540652  0.40722813  0.76152939  1
  Te  Te87  1  0.42173999  0.74561500  0.07984145  1
  Te  Te88  1  0.43085590  0.76171055  0.42266501  1
  Te  Te89  1  0.45869339  0.79276220  0.75328973  1
  Te  Te90  1  0.72859907  0.05532517  0.07513758  1
  Te  Te91  1  0.74500090  0.09649474  0.43030540  1
  Te  Te92  1  0.73351137  0.08034184  0.69909810  1
  Te  Te93  1  0.72297986  0.38299762  0.05694557  1
  Te  Te94  1  0.72407677  0.40697342  0.40058727  1
  Te  Te95  1  0.76632038  0.43931572  0.74291809  1
  Te  Te96  1  0.72926839  0.73118692  0.09404331  1
  Te  Te97  1  0.76300179  0.72929242  0.41203586  1
  Te  Te98  1  0.72317937  0.75826232  0.78081877  1
  Te  Te99  1  0.08582328  0.24730501  0.25890264  1
  Te  Te100  1  0.09311136  0.24724564  0.57739651  1
  Te  Te101  1  0.06862804  0.23222581  0.91506242  1
  Te  Te102  1  0.05211867  0.57405400  0.22877219  1
  Te  Te103  1  0.06564032  0.61477071  0.58303802  1
  Te  Te104  1  0.08920525  0.59487066  0.94935652  1
  Te  Te105  1  0.07003466  0.91305766  0.22148052  1
  Te  Te106  1  0.09606598  0.90547988  0.58063419  1
  Te  Te107  1  0.09509965  0.92117391  0.91477543  1
  Te  Te108  1  0.45369629  0.20355326  0.21507505  1
  Te  Te109  1  0.42833455  0.25896553  0.59764182  1
  Te  Te110  1  0.41749268  0.23934818  0.92648137  1
  Te  Te111  1  0.41504926  0.60025896  0.26558950  1
  Te  Te112  1  0.42053637  0.60081499  0.58851149  1
  Te  Te113  1  0.40971669  0.56855499  0.91814625  1
  Te  Te114  1  0.40517395  0.91652673  0.22687992  1
  Te  Te115  1  0.44938621  0.90506822  0.57396221  1
  Te  Te116  1  0.43006008  0.92949754  0.94342943  1
  Te  Te117  1  0.73104371  0.21800303  0.23077430  1
  Te  Te118  1  0.74042929  0.25756875  0.56761988  1
  Te  Te119  1  0.73193447  0.25399256  0.88908484  1
  Te  Te120  1  0.71289947  0.55930424  0.23495749  1
  Te  Te121  1  0.78779431  0.59199050  0.58188099  1
  Te  Te122  1  0.74206529  0.58389818  0.92974752  1
  Te  Te123  1  0.75938682  0.94747567  0.26043387  1
  Te  Te124  1  0.77299664  0.89772606  0.57889708  1
  Te  Te125  1  0.73313929  0.93257363  0.95360787  1
  Te  Te126  1  0.27261094  0.22137889  0.11483000  1
  Te  Te127  1  0.26122244  0.22503503  0.39197538  1
  Te  Te128  1  0.25525872  0.21046644  0.76136588  1
  Te  Te129  1  0.25571229  0.56035131  0.11998217  1
  Te  Te130  1  0.23061825  0.58674862  0.40259170  1
  Te  Te131  1  0.26020170  0.60440239  0.74043524  1
  Te  Te132  1  0.27197490  0.91479968  0.11007414  1
  Te  Te133  1  0.24425974  0.92206206  0.39075533  1
  Te  Te134  1  0.27270546  0.94675018  0.75817017  1
  Te  Te135  1  0.62821528  0.26912749  0.10586604  1
  Te  Te136  1  0.57336868  0.22877052  0.41030275  1
  Te  Te137  1  0.56598405  0.28905150  0.76706017  1
  Te  Te138  1  0.55000547  0.54884905  0.05907716  1
  Te  Te139  1  0.57139137  0.58325170  0.43195114  1
  Te  Te140  1  0.56447234  0.57343235  0.76061302  1
  Te  Te141  1  0.57792641  0.93043631  0.11452855  1
  Te  Te142  1  0.60893060  0.93093237  0.40651656  1
  Te  Te143  1  0.62577352  0.94655261  0.84345954  1
  Te  Te144  1  0.89593656  0.24466175  0.06718985  1
  Te  Te145  1  0.92301963  0.26109597  0.43086429  1
  Te  Te146  1  0.90835387  0.26752090  0.74232741  1
  Te  Te147  1  0.91220172  0.56706634  0.11663444  1
  Te  Te148  1  0.91015123  0.57205661  0.39784118  1
  Te  Te149  1  0.93932798  0.59759068  0.75457319  1
  Te  Te150  1  0.91798584  0.90240969  0.05971081  1
  Te  Te151  1  0.93236482  0.90448479  0.42052121  1
  Te  Te152  1  0.89752491  0.90039718  0.78922304  1
  Te  Te153  1  0.24955902  0.09084082  0.19056714  1
  Te  Te154  1  0.26245964  0.09005162  0.56914741  1
  Te  Te155  1  0.25283913  0.07270126  0.93074729  1
  Te  Te156  1  0.29109712  0.39681159  0.25877246  1
  Te  Te157  1  0.22750737  0.43139941  0.59586125  1
  Te  Te158  1  0.25961219  0.37948656  0.95607918  1
  Te  Te159  1  0.24916808  0.75759699  0.23614464  1
  Te  Te160  1  0.25760463  0.75423680  0.57313574  1
  Te  Te161  1  0.26990886  0.74728769  0.91621334  1
  Te  Te162  1  0.52097229  0.10319549  0.30800303  1
  Te  Te163  1  0.55819150  0.01768211  0.53176667  1
  Te  Te164  1  0.58480358  0.08970774  0.90477332  1
  Te  Te165  1  0.54567305  0.41286374  0.23102464  1
  Te  Te166  1  0.59071438  0.43234794  0.58942156  1
  Te  Te167  1  0.59855767  0.41759231  0.95916418  1
  Te  Te168  1  0.57683760  0.75901887  0.25395100  1
  Te  Te169  1  0.59156065  0.74380736  0.57912000  1
  Te  Te170  1  0.60167382  0.74447338  0.92191338  1
  Te  Te171  1  0.91455928  0.10239355  0.24454651  1
  Te  Te172  1  0.93746873  0.07338897  0.58064501  1
  Te  Te173  1  0.88889592  0.09329597  0.89294447  1
  Te  Te174  1  0.89145547  0.38837450  0.23024534  1
  Te  Te175  1  0.93266094  0.42734314  0.58719001  1
  Te  Te176  1  0.92356307  0.45301097  0.92743348  1
  Te  Te177  1  0.91629513  0.77043526  0.22751182  1
  Te  Te178  1  0.90027481  0.80942758  0.62770711  1
  Te  Te179  1  0.91132585  0.71606478  0.93429425  1
