# generated using pymatgen
data_In2Te3
_symmetry_space_group_name_H-M   'P 1'
_cell_length_a   18.83765478
_cell_length_b   18.82384196
_cell_length_c   18.81924540
_cell_angle_alpha   89.93011378
_cell_angle_beta   89.96141837
_cell_angle_gamma   90.04171127
_symmetry_Int_Tables_number   1
_chemical_formula_structural   In2Te3
_chemical_formula_sum   'In72 Te108'
_cell_volume   6673.24039744
_cell_formula_units_Z   36
loop_
 _symmetry_equiv_pos_site_id
 _symmetry_equiv_pos_as_xyz
  1  'x, y, z'
loop_
 _atom_site_type_symbol
 _atom_site_label
 _atom_site_symmetry_multiplicity
 _atom_site_fract_x
 _atom_site_fract_y
 _atom_site_fract_z
 _atom_site_occupancy
  In  In0  1  0.00447662  0.17616427  0.16562205  1
  In  In1  1  0.01240246  0.14911698  0.49914602  1
  In  In2  1  0.80656751  0.80582485  0.67009051  1
  In  In3  1  0.49107661  0.33751538  0.80790385  1
  In  In4  1  0.83184717  0.49422692  0.33853478  1
  In  In5  1  0.30538941  0.82756825  0.49470080  1
  In  In6  1  0.67704449  0.18160690  0.52241821  1
  In  In7  1  -0.00291830  0.00404837  0.66409525  1
  In  In8  1  0.00151234  0.49356523  0.81114483  1
  In  In9  1  0.66980583  -0.00713846  0.32860937  1
  In  In10  1  0.83887909  0.83410502  -0.00984187  1
  In  In11  1  0.67335229  0.83115884  0.83532096  1
  In  In12  1  0.84797190  0.51247911  0.64941077  1
  In  In13  1  0.30691686  0.16797124  0.51025650  1
  In  In14  1  0.52453473  0.64111101  0.82490222  1
  In  In15  1  -0.00148441  0.67826624  0.68220005  1
  In  In16  1  0.51468446  0.83103686  -0.00456208  1
  In  In17  1  0.53052078  0.16521329  0.01134929  1
  In  In18  1  0.49700706  0.81459619  0.65412368  1
  In  In19  1  0.15679390  0.32007629  0.17389561  1
  In  In20  1  0.17591502  0.02275957  0.16884682  1
  In  In21  1  0.81271149  0.34228048  0.16482848  1
  In  In22  1  0.53842727  0.50434165  0.00339330  1
  In  In23  1  0.01716884  0.00705830  0.33947090  1
  In  In24  1  -0.02514493  0.79273301  0.18311379  1
  In  In25  1  0.01376092  0.30806285  -0.04813947  1
  In  In26  1  -0.01804497  0.67385319  -0.00334138  1
  In  In27  1  0.51937654  0.36199707  0.49662231  1
  In  In28  1  0.83864617  0.35059614  0.83720452  1
  In  In29  1  0.68622601  0.65621351  0.32001145  1
  In  In30  1  0.17878212  0.48404250  0.00080712  1
  In  In31  1  0.34244426  0.66703093  0.66755098  1
  In  In32  1  0.35910968  0.67956621  -0.00754055  1
  In  In33  1  0.84153814  0.18805245  0.32469289  1
  In  In34  1  0.14461910  0.66186594  0.18540786  1
  In  In35  1  0.82128995  -0.01125088  0.14288561  1
  In  In36  1  0.15158235  0.16056772  0.67359232  1
  In  In37  1  0.33513090  0.16007004  0.83957023  1
  In  In38  1  0.00366128  0.83761587  0.51431613  1
  In  In39  1  0.85322887  -0.00263488  0.50727966  1
  In  In40  1  0.48652853  0.17901903  0.68941219  1
  In  In41  1  0.16661481  0.49135945  0.65696852  1
  In  In42  1  0.52563983  0.46471354  0.30331824  1
  In  In43  1  0.84277934  0.00585203  0.83228412  1
  In  In44  1  0.66892781  0.34230847  0.66666256  1
  In  In45  1  0.47675475  0.86000016  0.32057737  1
  In  In46  1  0.03209624  0.35282124  0.35927102  1
  In  In47  1  0.31929432  0.32965436  0.01137588  1
  In  In48  1  0.67073000  0.82709696  0.14605631  1
  In  In49  1  0.50039471  0.66316775  0.15990888  1
  In  In50  1  0.50103557  0.02176854  0.85820606  1
  In  In51  1  0.66540243  0.79737990  0.48299289  1
  In  In52  1  0.33851032  0.33570248  0.65230624  1
  In  In53  1  0.48945372  0.19448653  0.33238472  1
  In  In54  1  0.29135883  0.86344577  0.80132625  1
  In  In55  1  0.32563745  0.32805813  0.33825583  1
  In  In56  1  0.47611820  0.01737660  0.50269065  1
  In  In57  1  0.83236561  0.14869830  0.00210101  1
  In  In58  1  0.68541590  0.00231248  0.68972161  1
  In  In59  1  0.15829267  0.67798001  0.82451462  1
  In  In60  1  0.31884134  0.00810339  -0.00557886  1
  In  In61  1  0.33768543  0.49866946  0.16817909  1
  In  In62  1  -0.01062918  0.51946414  0.16463545  1
  In  In63  1  0.47753912  -0.00457687  0.16959682  1
  In  In64  1  0.50757281  0.64742972  0.51531916  1
  In  In65  1  0.17320600  0.83895013  0.33158783  1
  In  In66  1  0.66030119  0.33689833  0.00279134  1
  In  In67  1  0.13644300  0.87218398  -0.03116908  1
  In  In68  1  -0.01575341  0.33791170  0.66578976  1
  In  In69  1  0.68933320  0.49026908  0.50476411  1
  In  In70  1  0.31273006  0.66348308  0.36017931  1
  In  In71  1  0.14909435  0.65413768  0.51086368  1
  Te  Te72  1  0.08163096  0.08770967  0.07533580  1
  Te  Te73  1  0.11672403  0.06554849  0.43201528  1
  Te  Te74  1  0.06272626  0.08755356  0.77072215  1
  Te  Te75  1  0.07346231  0.41193456  0.08369169  1
  Te  Te76  1  0.12312440  0.43857331  0.43871479  1
  Te  Te77  1  0.10113184  0.39566349  0.75720009  1
  Te  Te78  1  0.08951968  0.75256610  0.07524572  1
  Te  Te79  1  0.08056770  0.74983007  0.41386965  1
  Te  Te80  1  0.07757202  0.77893745  0.75498001  1
  Te  Te81  1  0.41029799  0.09740243  0.07832303  1
  Te  Te82  1  0.39390781  0.09394722  0.40160324  1
  Te  Te83  1  0.40790808  0.06193806  0.74528836  1
  Te  Te84  1  0.42479100  0.41806582  0.07666297  1
  Te  Te85  1  0.41769624  0.43048343  0.40755944  1
  Te  Te86  1  0.40404389  0.43448872  0.73992391  1
  Te  Te87  1  0.41638319  0.77472265  0.09870412  1
  Te  Te88  1  0.42639324  0.75193686  0.42633472  1
  Te  Te89  1  0.41819770  0.75219147  0.76986178  1
  Te  Te90  1  0.73458908  0.09922117  0.10145349  1
  Te  Te91  1  0.75587864  0.08532530  0.41874848  1
  Te  Te92  1  0.77042575  0.10512052  0.74880667  1
  Te  Te93  1  0.76437257  0.43365938  0.05536125  1
  Te  Te94  1  0.74866114  0.39447907  0.41112506  1
  Te  Te95  1  0.75637684  0.44052808  0.74746793  1
  Te  Te96  1  0.76467065  0.73696544  0.07662100  1
  Te  Te97  1  0.77574952  0.74750750  0.39724899  1
  Te  Te98  1  0.74470500  0.71845074  0.77213082  1
  Te  Te99  1  0.09063585  0.23014310  0.27814216  1
  Te  Te100  1  0.08380256  0.25765783  0.57899942  1
  Te  Te101  1  0.13248070  0.22096998  0.95632422  1
  Te  Te102  1  0.07301032  0.57128053  0.27965167  1
  Te  Te103  1  0.05126471  0.56797709  0.59042317  1
  Te  Te104  1  0.08576063  0.57950401  0.91965281  1
  Te  Te105  1  0.07529360  0.90854589  0.23561874  1
  Te  Te106  1  0.09951817  0.92350745  0.58972726  1
  Te  Te107  1  0.05764436  0.96323350  0.88455794  1
  Te  Te108  1  0.40735556  0.26528416  0.23307788  1
  Te  Te109  1  0.43738341  0.24611269  0.56068575  1
  Te  Te110  1  0.43117515  0.24931204  0.91996325  1
  Te  Te111  1  0.41865930  0.58777430  0.26476727  1
  Te  Te112  1  0.39482582  0.57081602  0.56938371  1
  Te  Te113  1  0.42243630  0.56863378  0.91454051  1
  Te  Te114  1  0.36558664  0.93796134  0.25665218  1
  Te  Te115  1  0.40173368  0.90989449  0.58334965  1
  Te  Te116  1  0.40996359  0.91144856  0.91408398  1
  Te  Te117  1  0.73073988  0.24923976  0.24782234  1
  Te  Te118  1  0.77178177  0.27484600  0.58484538  1
  Te  Te119  1  0.75460108  0.25211296  0.91855074  1
  Te  Te120  1  0.73648116  0.54613804  0.23584988  1
  Te  Te121  1  0.77441973  0.59936080  0.55386296  1
  Te  Te122  1  0.68400198  0.53102517  0.95173407  1
  Te  Te123  1  0.75937940  0.89864418  0.24955931  1
  Te  Te124  1  0.73985866  0.91586743  0.57161040  1
  Te  Te125  1  0.74291114  0.93251333  0.92401872  1
  Te  Te126  1  0.23233583  0.22782479  0.08153389  1
  Te  Te127  1  0.22750596  0.25012624  0.41762574  1
  Te  Te128  1  0.25468435  0.24982993  0.74649128  1
  Te  Te129  1  0.25542821  0.59549301  0.08071664  1
  Te  Te130  1  0.22966369  0.55745028  0.42585767  1
  Te  Te131  1  0.24836832  0.57932510  0.75289067  1
  Te  Te132  1  0.23711168  0.91008366  0.07684253  1
  Te  Te133  1  0.23410390  0.93799861  0.42537364  1
  Te  Te134  1  0.21179145  0.94846300  0.71256900  1
  Te  Te135  1  0.57824158  0.26933548  0.11081106  1
  Te  Te136  1  0.60067336  0.26165242  0.41565779  1
  Te  Te137  1  0.60293616  0.24034686  0.76156356  1
  Te  Te138  1  0.61565969  0.59138169  0.10048267  1
  Te  Te139  1  0.58696021  0.57031814  0.40818706  1
  Te  Te140  1  0.58833778  0.56313503  0.72068294  1
  Te  Te141  1  0.58691942  0.93541956  0.07850318  1
  Te  Te142  1  0.57589929  0.91885650  0.43055173  1
  Te  Te143  1  0.57321058  0.91375591  0.75057941  1
  Te  Te144  1  0.91553267  0.25936298  0.07335554  1
  Te  Te145  1  0.92993666  0.25643297  0.42569375  1
  Te  Te146  1  0.94072526  0.25580769  0.78339689  1
  Te  Te147  1  0.89101786  0.60159187  0.08938833  1
  Te  Te148  1  0.94174685  0.58856767  0.37450728  1
  Te  Te149  1  0.90244860  0.59925642  0.77119003  1
  Te  Te150  1  0.93450061  0.90571995  0.08593559  1
  Te  Te151  1  0.92093258  0.90766638  0.40530317  1
  Te  Te152  1  0.90214469  0.90417095  0.73470772  1
  Te  Te153  1  0.28276959  0.07294446  0.25314714  1
  Te  Te154  1  0.25803694  0.07107025  0.61374026  1
  Te  Te155  1  0.22506444  0.08570309  0.90858459  1
  Te  Te156  1  0.23535607  0.42581015  0.25088508  1
  Te  Te157  1  0.24086711  0.40354631  0.56042250  1
  Te  Te158  1  0.25732549  0.40804227  0.90364639  1
  Te  Te159  1  0.25869929  0.74568767  0.24431950  1
  Te  Te160  1  0.23060667  0.74704798  0.60028378  1
  Te  Te161  1  0.25035780  0.75967571  0.91795396  1
  Te  Te162  1  0.56844821  0.08086088  0.25844890  1
  Te  Te163  1  0.58233313  0.08138690  0.59382453  1
  Te  Te164  1  0.61526348  0.09266449  0.91461566  1
  Te  Te165  1  0.60935546  0.38456323  0.21390361  1
  Te  Te166  1  0.57137912  0.44923485  0.61303055  1
  Te  Te167  1  0.59764703  0.42350705  0.88149685  1
  Te  Te168  1  0.57888175  0.76208450  0.25963352  1
  Te  Te169  1  0.60739546  0.72270724  0.60432694  1
  Te  Te170  1  0.60035818  0.72917570  0.92730699  1
  Te  Te171  1  0.91076648  0.07388721  0.24793566  1
  Te  Te172  1  0.90356753  0.10726303  0.59849353  1
  Te  Te173  1  0.93676974  0.06154348  0.93694465  1
  Te  Te174  1  0.93029105  0.39687216  0.24843016  1
  Te  Te175  1  0.92236533  0.42110489  0.56063203  1
  Te  Te176  1  0.92783783  0.43298903  0.93008923  1
  Te  Te177  1  0.90340598  0.70556305  0.27835772  1
  Te  Te178  1  0.90506142  0.73796317  0.57434430  1
  Te  Te179  1  0.93023467  0.76704662  0.89516007  1
