# generated using pymatgen
data_In2Te3
_symmetry_space_group_name_H-M   'P 1'
_cell_length_a   18.76212303
_cell_length_b   18.77228027
_cell_length_c   18.76741294
_cell_angle_alpha   89.88526012
_cell_angle_beta   89.99240951
_cell_angle_gamma   90.04166078
_symmetry_Int_Tables_number   1
_chemical_formula_structural   In2Te3
_chemical_formula_sum   'In72 Te108'
_cell_volume   6610.01476225
_cell_formula_units_Z   36
loop_
 _symmetry_equiv_pos_site_id
 _symmetry_equiv_pos_as_xyz
  1  'x, y, z'
loop_
 _atom_site_type_symbol
 _atom_site_label
 _atom_site_symmetry_multiplicity
 _atom_site_fract_x
 _atom_site_fract_y
 _atom_site_fract_z
 _atom_site_occupancy
  In  In0  1  0.01448177  0.34462040  0.29797012  1
  In  In1  1  -0.01837858  0.68053601  0.67945001  1
  In  In2  1  0.00106099  0.82274332  0.83985888  1
  In  In3  1  0.83501671  -0.00803554  0.15672639  1
  In  In4  1  0.34404175  0.35985963  0.31779208  1
  In  In5  1  -0.02822640  0.49113365  0.48778685  1
  In  In6  1  0.13828778  0.00998659  0.48753636  1
  In  In7  1  0.15913456  0.85705689  0.33881905  1
  In  In8  1  0.35540004  0.64551595  0.31632267  1
  In  In9  1  0.18737556  -0.00066368  0.83826862  1
  In  In10  1  0.17280742  0.17284472  0.68637337  1
  In  In11  1  0.50809189  0.34863734  0.17486879  1
  In  In12  1  0.66521842  0.80844321  0.16612086  1
  In  In13  1  0.01244023  0.36752731  0.03505723  1
  In  In14  1  0.50937142  0.19208916  0.34674578  1
  In  In15  1  0.16263145  0.67290011  0.15748630  1
  In  In16  1  0.79864343  0.19060748  0.66465704  1
  In  In17  1  0.16970234  0.34512725  0.87716795  1
  In  In18  1  0.81399099  0.33628688  0.49494917  1
  In  In19  1  0.16040086  0.67154413  0.86667432  1
  In  In20  1  0.51060875  0.50121058  0.32673924  1
  In  In21  1  0.68260055  0.17378509  0.83551252  1
  In  In22  1  0.80637372  0.79796212  0.34182107  1
  In  In23  1  0.15478240  0.49566394  0.67162423  1
  In  In24  1  0.19126596  0.31883325  0.49069712  1
  In  In25  1  0.00071769  -0.01216044  0.64116126  1
  In  In26  1  0.49094582  -0.00912008  0.82974200  1
  In  In27  1  -0.01453762  0.35138252  0.63726222  1
  In  In28  1  0.33178016  0.67103521  0.01047004  1
  In  In29  1  -0.01345174  0.16659398  0.46938509  1
  In  In30  1  0.81408849  0.00940168  0.48428253  1
  In  In31  1  -0.00698969  0.52629535  0.84553629  1
  In  In32  1  0.68357325  0.21014265  0.19109621  1
  In  In33  1  0.50397782  0.34277262  0.86313051  1
  In  In34  1  0.51503254  0.68088783  0.82900564  1
  In  In35  1  0.51141464  0.50388778  0.01304155  1
  In  In36  1  0.65972428  0.34361059  0.65604951  1
  In  In37  1  0.81456529  0.83734274  0.65101112  1
  In  In38  1  0.82802753  0.34347419  0.82804715  1
  In  In39  1  -0.00932811  0.63408264  0.02998266  1
  In  In40  1  0.51547331  0.14249036  0.64349467  1
  In  In41  1  0.00293047  -0.00274766  0.30921131  1
  In  In42  1  0.48931349  0.00046268  0.15782148  1
  In  In43  1  0.35726438  0.16543210  0.49369462  1
  In  In44  1  0.32009634  0.47902348  0.84982271  1
  In  In45  1  0.49228992  0.17032651  0.02693751  1
  In  In46  1  0.67713381  0.65652483  0.65783312  1
  In  In47  1  0.33807106  -0.00027164  -0.00117585  1
  In  In48  1  0.00106275  -0.00517593  0.01783050  1
  In  In49  1  0.51545138  0.50448040  0.65383903  1
  In  In50  1  0.00039046  0.16661333  0.16981476  1
  In  In51  1  0.36575188  0.65830438  0.67396547  1
  In  In52  1  0.51208365  0.83922079  0.31370808  1
  In  In53  1  0.17646007  0.49800888  0.30963015  1
  In  In54  1  0.33659724  0.00304451  0.67868930  1
  In  In55  1  0.80361412  0.49025580  0.30238204  1
  In  In56  1  0.80226374  0.00339993  0.83858461  1
  In  In57  1  0.33766148  0.31000490  0.66311455  1
  In  In58  1  0.17669301  0.65823580  0.48435820  1
  In  In59  1  0.02693599  0.19721258  0.85178191  1
  In  In60  1  0.80557941  0.65052579  0.84895689  1
  In  In61  1  -0.01677636  0.66578355  0.30453882  1
  In  In62  1  0.49551462  0.83928728  0.68219149  1
  In  In63  1  0.51439209  0.65355058  0.48878272  1
  In  In64  1  0.18867812  -0.00504116  0.19180061  1
  In  In65  1  0.66813465  0.65573245  0.01085704  1
  In  In66  1  0.84092072  0.17431336  -0.01061614  1
  In  In67  1  0.34898336  0.82224569  0.16198944  1
  In  In68  1  0.66481116  -0.01559714  0.00325801  1
  In  In69  1  0.64787587  0.00767289  0.34915480  1
  In  In70  1  0.33454002  0.84433594  0.51217362  1
  In  In71  1  -0.00659136  0.84103077  0.51982186  1
  Te  Te72  1  0.10173046  0.07805948  0.09304410  1
  Te  Te73  1  0.09428751  0.10660422  0.37371434  1
  Te  Te74  1  0.07225283  0.07609674  0.74926792  1
  Te  Te75  1  0.11061053  0.43211550  0.12547646  1
  Te  Te76  1  0.08877380  0.41475708  0.42219258  1
  Te  Te77  1  0.07116812  0.40635963  0.76386389  1
  Te  Te78  1  0.07340292  0.75027421  0.06970678  1
  Te  Te79  1  0.07132599  0.74680917  0.41395876  1
  Te  Te80  1  0.09801106  0.74902257  0.74655597  1
  Te  Te81  1  0.38324198  0.09842130  0.10802562  1
  Te  Te82  1  0.44913198  0.07782696  0.41898014  1
  Te  Te83  1  0.41796460  0.10494602  0.75661202  1
  Te  Te84  1  0.41385664  0.41210524  0.07874075  1
  Te  Te85  1  0.43671795  0.41046028  0.41962461  1
  Te  Te86  1  0.41992007  0.41776104  0.74715152  1
  Te  Te87  1  0.43837163  0.72431983  0.10022227  1
  Te  Te88  1  0.41153055  0.75182689  0.41569003  1
  Te  Te89  1  0.39777859  0.76643733  0.77502158  1
  Te  Te90  1  0.74556548  0.09448610  0.07930947  1
  Te  Te91  1  0.74826472  0.10786329  0.39526145  1
  Te  Te92  1  0.72064493  0.06812428  0.72636213  1
  Te  Te93  1  0.76935779  0.45469242  0.13539437  1
  Te  Te94  1  0.71644156  0.40192040  0.39566925  1
  Te  Te95  1  0.74174091  0.42950778  0.74481129  1
  Te  Te96  1  0.77028375  0.74060449  0.08561758  1
  Te  Te97  1  0.72373327  0.71838999  0.43610148  1
  Te  Te98  1  0.74020033  0.75586140  0.75681995  1
  Te  Te99  1  0.10734823  0.25676391  0.22362892  1
  Te  Te100  1  0.08302333  0.24251356  0.57585766  1
  Te  Te101  1  0.09881108  0.24316414  0.97989946  1
  Te  Te102  1  0.06438498  0.56333995  0.22735675  1
  Te  Te103  1  0.06910435  0.58266120  0.57749075  1
  Te  Te104  1  0.10107877  0.55901558  0.94757928  1
  Te  Te105  1  0.06888602  0.89401301  0.22139387  1
  Te  Te106  1  0.11463736  0.89839005  0.59208675  1
  Te  Te107  1  0.09050537  0.91339995  0.92310027  1
  Te  Te108  1  0.41466624  0.24639791  0.24095701  1
  Te  Te109  1  0.44868372  0.26144050  0.57106541  1
  Te  Te110  1  0.40635904  0.25911167  0.93987533  1
  Te  Te111  1  0.42056908  0.55626677  0.21953972  1
  Te  Te112  1  0.40986322  0.56656649  0.56155878  1
  Te  Te113  1  0.42002058  0.58192285  0.90593891  1
  Te  Te114  1  0.40044281  0.92862365  0.25958640  1
  Te  Te115  1  0.43383518  0.93760210  0.58108317  1
  Te  Te116  1  0.42308063  0.90283098  0.92726956  1
  Te  Te117  1  0.78242272  0.26780564  0.28211641  1
  Te  Te118  1  0.70619421  0.23185503  0.54794207  1
  Te  Te119  1  0.74071207  0.27623394  0.93439522  1
  Te  Te120  1  0.75112111  0.59205132  0.19921140  1
  Te  Te121  1  0.73488828  0.59825856  0.53612436  1
  Te  Te122  1  0.73792310  0.54696557  0.93173821  1
  Te  Te123  1  0.74127462  0.91591291  0.25559599  1
  Te  Te124  1  0.72345964  0.92028139  0.56475831  1
  Te  Te125  1  0.75751925  0.89621425  0.92866720  1
  Te  Te126  1  0.25096301  0.26491546  0.01120350  1
  Te  Te127  1  0.26691577  0.23699344  0.39022083  1
  Te  Te128  1  0.25593194  0.25655232  0.78069641  1
  Te  Te129  1  0.26132206  0.57801225  0.10254661  1
  Te  Te130  1  0.26918230  0.55996876  0.41316931  1
  Te  Te131  1  0.24877354  0.58328024  0.75510787  1
  Te  Te132  1  0.24877791  0.90523483  0.08365950  1
  Te  Te133  1  0.25918604  0.94000346  0.41906252  1
  Te  Te134  1  0.25206813  0.90378167  0.74661454  1
  Te  Te135  1  0.59870955  0.26939183  0.07831169  1
  Te  Te136  1  0.61784470  0.25990668  0.41982609  1
  Te  Te137  1  0.57697026  0.25205488  0.75517253  1
  Te  Te138  1  0.60097959  0.56954721  0.11574230  1
  Te  Te139  1  0.61138961  0.60474060  0.38232142  1
  Te  Te140  1  0.59857760  0.57316772  0.76062578  1
  Te  Te141  1  0.56756503  0.89566817  0.08101242  1
  Te  Te142  1  0.58463354  0.89942912  0.42725212  1
  Te  Te143  1  0.59533320  0.90740036  0.76745381  1
  Te  Te144  1  0.91009247  0.26334428  0.09035641  1
  Te  Te145  1  0.90497809  0.27065536  0.38694938  1
  Te  Te146  1  0.91743311  0.24503982  0.74970492  1
  Te  Te147  1  0.88058566  0.56040220  0.09896543  1
  Te  Te148  1  0.89227014  0.58106177  0.39455288  1
  Te  Te149  1  0.89171925  0.57640212  0.74253415  1
  Te  Te150  1  0.89910276  0.89829825  0.06278388  1
  Te  Te151  1  0.91533455  0.91465106  0.40987476  1
  Te  Te152  1  0.91435430  0.91149808  0.74546224  1
  Te  Te153  1  0.23553352  0.09766026  0.28446424  1
  Te  Te154  1  0.24463006  0.09089083  0.57826296  1
  Te  Te155  1  0.25792537  0.09891005  0.91988132  1
  Te  Te156  1  0.23555083  0.39479356  0.21554252  1
  Te  Te157  1  0.25660349  0.41755679  0.58720047  1
  Te  Te158  1  0.26016943  0.41804713  0.97534371  1
  Te  Te159  1  0.24445824  0.74878337  0.26984065  1
  Te  Te160  1  0.25942744  0.73432548  0.58752800  1
  Te  Te161  1  0.25214441  0.76667701  0.92956382  1
  Te  Te162  1  0.58705634  0.09312009  0.23038358  1
  Te  Te163  1  0.61955260  0.05525769  0.58900014  1
  Te  Te164  1  0.58124219  0.09337579  0.92445284  1
  Te  Te165  1  0.61218062  0.40594496  0.26610727  1
  Te  Te166  1  0.59989759  0.43524755  0.55528709  1
  Te  Te167  1  0.60712724  0.43236865  0.92139489  1
  Te  Te168  1  0.58814761  0.72186582  0.26245642  1
  Te  Te169  1  0.57714672  0.75109973  0.58748517  1
  Te  Te170  1  0.59694975  0.75627024  0.92419577  1
  Te  Te171  1  0.89678111  0.09194608  0.25432703  1
  Te  Te172  1  0.90619169  0.09596576  0.58349322  1
  Te  Te173  1  0.92168344  0.07749374  0.90403260  1
  Te  Te174  1  0.91528961  0.42818562  0.21900806  1
  Te  Te175  1  0.86996207  0.44090963  0.59103039  1
  Te  Te176  1  0.91651039  0.42234061  0.92767629  1
  Te  Te177  1  0.89355583  0.75678930  0.22974616  1
  Te  Te178  1  0.89362216  0.73529109  0.56711607  1
  Te  Te179  1  0.91894269  0.72436032  0.92050542  1
