# generated using pymatgen
data_In2Te3
_symmetry_space_group_name_H-M   'P 1'
_cell_length_a   19.02409032
_cell_length_b   19.00357970
_cell_length_c   18.98477511
_cell_angle_alpha   90.07752184
_cell_angle_beta   90.22436996
_cell_angle_gamma   89.80710621
_symmetry_Int_Tables_number   1
_chemical_formula_structural   In2Te3
_chemical_formula_sum   'In72 Te108'
_cell_volume   6863.38864470
_cell_formula_units_Z   36
loop_
 _symmetry_equiv_pos_site_id
 _symmetry_equiv_pos_as_xyz
  1  'x, y, z'
loop_
 _atom_site_type_symbol
 _atom_site_label
 _atom_site_symmetry_multiplicity
 _atom_site_fract_x
 _atom_site_fract_y
 _atom_site_fract_z
 _atom_site_occupancy
  In  In0  1  0.34342738  0.17722296  0.17942994  1
  In  In1  1  0.32796051  0.83566818  0.16590019  1
  In  In2  1  0.66998220  0.80401327  0.79291962  1
  In  In3  1  0.83638099  0.48546059  0.65224327  1
  In  In4  1  0.32015732  0.49894211  0.82911069  1
  In  In5  1  0.15615692  0.32201940  0.50764223  1
  In  In6  1  0.01518680  0.01584364  0.36103068  1
  In  In7  1  0.17649491  0.83148774  0.64799268  1
  In  In8  1  0.66445735  0.01481354  0.67069020  1
  In  In9  1  -0.01320259  0.86504960  0.20833209  1
  In  In10  1  0.15754633  0.66076952  0.81805352  1
  In  In11  1  -0.01999512  0.68440688  0.02185033  1
  In  In12  1  0.35273511  0.19080254  0.80518353  1
  In  In13  1  0.66079991  0.66449613  0.33291058  1
  In  In14  1  0.46156827  0.48694113  0.00254850  1
  In  In15  1  0.82333918  0.83814473  0.33964058  1
  In  In16  1  0.14768856  -0.00082714  0.79545288  1
  In  In17  1  0.19709312  0.02300847  0.15654480  1
  In  In18  1  0.30204197  0.13827858  0.50713482  1
  In  In19  1  0.65745866  0.34931121  0.66127659  1
  In  In20  1  0.00262970  -0.01066362  0.63966816  1
  In  In21  1  0.16084501  0.68146908  0.50000570  1
  In  In22  1  0.18290196  0.78747935  -0.01508794  1
  In  In23  1  0.17937079  0.83872222  0.36067233  1
  In  In24  1  0.68161144  0.50142897  0.50503540  1
  In  In25  1  0.46724344  0.81932914  0.68516156  1
  In  In26  1  0.34908646  -0.01619295  0.34340634  1
  In  In27  1  0.48203566  0.32690958  0.83598292  1
  In  In28  1  0.85460110  0.81793464  0.67705249  1
  In  In29  1  0.02398822  -0.00179810  0.02746533  1
  In  In30  1  0.50188560  0.03120302  0.83996461  1
  In  In31  1  0.65650638  0.84554912  0.52388658  1
  In  In32  1  0.14931318  0.65800306  0.15786459  1
  In  In33  1  0.82436246  0.16888906  0.35873420  1
  In  In34  1  -0.00330178  0.82337058  0.86306603  1
  In  In35  1  0.33904230  0.03089913  -0.01325262  1
  In  In36  1  0.81296402  0.82103558  0.00010815  1
  In  In37  1  0.66984470  0.49974911  0.15345281  1
  In  In38  1  0.82641403  0.15513948  -0.00083811  1
  In  In39  1  0.83343088  0.01061408  0.19198446  1
  In  In40  1  0.81462078  0.32422388  0.17905574  1
  In  In41  1  -0.00457355  0.49421835  0.48301078  1
  In  In42  1  0.36266361  0.51724650  0.50191726  1
  In  In43  1  0.67536576  0.65009062  -0.02379226  1
  In  In44  1  -0.00654505  0.18683905  0.81470351  1
  In  In45  1  0.36072604  0.68894837  0.36090261  1
  In  In46  1  0.00237251  0.17077044  0.50673557  1
  In  In47  1  0.15600411  0.48879411  -0.01892604  1
  In  In48  1  0.50673594  0.51681572  0.32028653  1
  In  In49  1  0.82732063  0.02222435  0.82742240  1
  In  In50  1  0.49995641  -0.01686408  0.52317817  1
  In  In51  1  0.51592430  0.17594764  0.64798499  1
  In  In52  1  -0.01310535  0.65453476  0.63943165  1
  In  In53  1  0.32475789  0.32883119  0.64766648  1
  In  In54  1  0.50332626  0.83457027  -0.00161595  1
  In  In55  1  0.50484169  0.33968917  0.18267007  1
  In  In56  1  0.82854634  0.21500535  0.65349043  1
  In  In57  1  0.82819723  0.47889705  0.34909985  1
  In  In58  1  0.16731548  0.49780887  0.31651861  1
  In  In59  1  -0.02334694  0.50253870  0.15792928  1
  In  In60  1  0.31151229  0.64396818  -0.03576258  1
  In  In61  1  0.52764749  0.32852805  0.45666153  1
  In  In62  1  0.67343642  0.33346343  -0.00903855  1
  In  In63  1  0.51093437  0.54125695  0.67584076  1
  In  In64  1  -0.01916754  0.41916532  0.79163930  1
  In  In65  1  0.16673179  0.30939672  0.19337797  1
  In  In66  1  0.66388514  -0.01128018  0.00641149  1
  In  In67  1  -0.00878760  0.32692251  0.00111032  1
  In  In68  1  0.16949523  0.15171556  0.00000285  1
  In  In69  1  0.67377815  0.02110729  0.33255921  1
  In  In70  1  0.48972615  0.67785834  0.16918315  1
  In  In71  1  0.50855991  0.15912285  0.03649611  1
  Te  Te72  1  0.07323017  0.11530949  0.11718931  1
  Te  Te73  1  0.10802715  0.07480863  0.46082208  1
  Te  Te74  1  0.07374790  0.10476077  0.71639471  1
  Te  Te75  1  0.08523344  0.41286375  0.09701589  1
  Te  Te76  1  0.08335360  0.40392000  0.39865823  1
  Te  Te77  1  0.10328838  0.36803515  0.72621568  1
  Te  Te78  1  0.07472768  0.78146614  0.09715077  1
  Te  Te79  1  0.07313792  0.75047797  0.40463325  1
  Te  Te80  1  0.07148991  0.76217095  0.74422825  1
  Te  Te81  1  0.41854271  0.06297117  0.11053090  1
  Te  Te82  1  0.42137739  0.08102635  0.43588031  1
  Te  Te83  1  0.41880517  0.07765708  0.71607091  1
  Te  Te84  1  0.39994441  0.41315318  0.11100132  1
  Te  Te85  1  0.41948962  0.41795399  0.39884485  1
  Te  Te86  1  0.42133099  0.41963984  0.73277695  1
  Te  Te87  1  0.39480829  0.73835673  0.05807062  1
  Te  Te88  1  0.47097869  0.71255165  0.45492615  1
  Te  Te89  1  0.40627688  0.72905598  0.78195428  1
  Te  Te90  1  0.73822646  0.08473812  0.09906685  1
  Te  Te91  1  0.78648299  0.04253743  0.42693519  1
  Te  Te92  1  0.74600352  0.11792936  0.74571716  1
  Te  Te93  1  0.76852533  0.42128358  0.07112821  1
  Te  Te94  1  0.74888167  0.38917884  0.43729874  1
  Te  Te95  1  0.73032237  0.44360464  0.75251403  1
  Te  Te96  1  0.72427876  0.74101714  0.08042952  1
  Te  Te97  1  0.73663551  0.75449619  0.42988796  1
  Te  Te98  1  0.75557273  0.71561485  0.71479775  1
  Te  Te99  1  0.08501534  0.20356357  0.24487187  1
  Te  Te100  1  0.04715423  0.28901212  0.60819287  1
  Te  Te101  1  0.08893785  0.24894751  0.91509312  1
  Te  Te102  1  0.05946995  0.58779515  0.25481864  1
  Te  Te103  1  0.09137196  0.56892145  0.57509387  1
  Te  Te104  1  0.07379620  0.60415280  0.92964548  1
  Te  Te105  1  0.11040532  0.94006567  0.25500469  1
  Te  Te106  1  0.11112063  0.93312673  0.55875538  1
  Te  Te107  1  0.10227838  0.91847022  0.92039779  1
  Te  Te108  1  0.44870588  0.23205752  0.27030744  1
  Te  Te109  1  0.43205604  0.26475728  0.56009456  1
  Te  Te110  1  0.41832639  0.23347787  0.93590149  1
  Te  Te111  1  0.39581373  0.59130212  0.24842585  1
  Te  Te112  1  0.39491563  0.61033195  0.61344657  1
  Te  Te113  1  0.43092559  0.58662757  0.88871364  1
  Te  Te114  1  0.42534435  0.88968541  0.25955931  1
  Te  Te115  1  0.39597239  0.89321038  0.57651734  1
  Te  Te116  1  0.41684151  0.92777623  0.90908946  1
  Te  Te117  1  0.73030894  0.24033535  0.26686973  1
  Te  Te118  1  0.72952397  0.27042240  0.55806770  1
  Te  Te119  1  0.77434694  0.26094040  0.91250671  1
  Te  Te120  1  0.75396350  0.57557144  0.25401289  1
  Te  Te121  1  0.78453447  0.59138351  0.55987668  1
  Te  Te122  1  0.72983551  0.56163077  0.87314050  1
  Te  Te123  1  0.73341849  0.91128097  0.24013920  1
  Te  Te124  1  0.76125819  0.91853903  0.60670728  1
  Te  Te125  1  0.74180591  0.91348512  0.89269871  1
  Te  Te126  1  0.25395402  0.24736618  0.07951838  1
  Te  Te127  1  0.24692115  0.24356298  0.42360584  1
  Te  Te128  1  0.23869924  0.27176760  0.75349072  1
  Te  Te129  1  0.24281897  0.57146949  0.07965041  1
  Te  Te130  1  0.25536514  0.58987576  0.40958401  1
  Te  Te131  1  0.21651177  0.55268248  0.74126235  1
  Te  Te132  1  0.25382005  0.91862515  0.05967924  1
  Te  Te133  1  0.28855706  0.89256556  0.44400620  1
  Te  Te134  1  0.25633620  0.92755952  0.72905353  1
  Te  Te135  1  0.60339667  0.25730775  0.10018806  1
  Te  Te136  1  0.60110653  0.22570098  0.37643945  1
  Te  Te137  1  0.58745437  0.25269849  0.75724493  1
  Te  Te138  1  0.56446989  0.57990667  0.07788436  1
  Te  Te139  1  0.56828692  0.59275464  0.43951168  1
  Te  Te140  1  0.63006160  0.58080947  0.75404411  1
  Te  Te141  1  0.56769769  0.92373028  0.09374389  1
  Te  Te142  1  0.58647425  0.92211028  0.41528552  1
  Te  Te143  1  0.57540810  0.92351477  0.75199179  1
  Te  Te144  1  0.90923188  0.24116650  0.09313065  1
  Te  Te145  1  0.92546373  0.25645169  0.41753306  1
  Te  Te146  1  0.89306895  0.28903034  0.76788086  1
  Te  Te147  1  0.88717160  0.59257965  0.08409705  1
  Te  Te148  1  0.89288624  0.58636658  0.42826932  1
  Te  Te149  1  0.93472501  0.56052935  0.74290762  1
  Te  Te150  1  0.90182998  0.92259219  0.07804887  1
  Te  Te151  1  0.91064798  0.93178846  0.42160250  1
  Te  Te152  1  0.93017595  0.92889648  0.76641880  1
  Te  Te153  1  0.26255954  0.08967401  0.27315200  1
  Te  Te154  1  0.28173255  0.08743134  0.64100044  1
  Te  Te155  1  0.24747865  0.09242181  0.88088715  1
  Te  Te156  1  0.26091469  0.40087352  0.25827169  1
  Te  Te157  1  0.25424108  0.42877421  0.55978016  1
  Te  Te158  1  0.25797069  0.40428918  0.92126438  1
  Te  Te159  1  0.23808379  0.74592962  0.24622160  1
  Te  Te160  1  0.26551126  0.72540111  0.59413505  1
  Te  Te161  1  0.27500374  0.75735663  0.86142661  1
  Te  Te162  1  0.56697216  0.10879593  0.28091439  1
  Te  Te163  1  0.60385706  0.09373186  0.55731622  1
  Te  Te164  1  0.60044800  0.10345235  0.92725565  1
  Te  Te165  1  0.60733557  0.41975033  0.26411803  1
  Te  Te166  1  0.56045864  0.42886065  0.57484379  1
  Te  Te167  1  0.56890993  0.41808849  0.92015805  1
  Te  Te168  1  0.57738048  0.75611154  0.25437183  1
  Te  Te169  1  0.56253746  0.75124920  0.59073102  1
  Te  Te170  1  0.58393824  0.74729341  0.90267671  1
  Te  Te171  1  0.92957075  0.09781718  0.26592055  1
  Te  Te172  1  0.90387482  0.09579532  0.59439015  1
  Te  Te173  1  0.94060843  0.07954112  0.92045908  1
  Te  Te174  1  0.91976381  0.40187653  0.25543258  1
  Te  Te175  1  0.92591625  0.39785150  0.57270276  1
  Te  Te176  1  0.93710891  0.44187750  0.92930745  1
  Te  Te177  1  0.89986947  0.75576182  0.24476678  1
  Te  Te178  1  0.94028574  0.77180376  0.56801086  1
  Te  Te179  1  0.88738455  0.73071887  0.90328457  1
