# generated using pymatgen
data_In2Te3
_symmetry_space_group_name_H-M   'P 1'
_cell_length_a   18.87373457
_cell_length_b   18.87041058
_cell_length_c   18.85398879
_cell_angle_alpha   90.05422404
_cell_angle_beta   90.14697882
_cell_angle_gamma   90.07320335
_symmetry_Int_Tables_number   1
_chemical_formula_structural   In2Te3
_chemical_formula_sum   'In72 Te108'
_cell_volume   6714.91404547
_cell_formula_units_Z   36
loop_
 _symmetry_equiv_pos_site_id
 _symmetry_equiv_pos_as_xyz
  1  'x, y, z'
loop_
 _atom_site_type_symbol
 _atom_site_label
 _atom_site_symmetry_multiplicity
 _atom_site_fract_x
 _atom_site_fract_y
 _atom_site_fract_z
 _atom_site_occupancy
  In  In0  1  0.15819811  0.81088771  0.35163591  1
  In  In1  1  0.02039630  0.03008476  0.03701497  1
  In  In2  1  0.30177945  0.48384011  0.19445788  1
  In  In3  1  -0.01790972  0.83480860  0.18902024  1
  In  In4  1  0.17142341  0.14652396  0.67431010  1
  In  In5  1  0.34264159  0.52155027  0.82507549  1
  In  In6  1  0.49831402  0.85876257  -0.01131084  1
  In  In7  1  0.66515809  0.83594470  0.16904403  1
  In  In8  1  0.51005082  0.33435620  0.81435471  1
  In  In9  1  0.47540724  0.69216492  0.46746871  1
  In  In10  1  0.18742719  0.29833047  0.82068893  1
  In  In11  1  0.67715977  0.48908866  0.80641467  1
  In  In12  1  -0.00079605  0.53196220  0.46445482  1
  In  In13  1  0.31796255  0.83654558  0.20273913  1
  In  In14  1  0.01842921  0.83239108  0.81290862  1
  In  In15  1  0.35556561  -0.00930721  0.01060993  1
  In  In16  1  0.83227397  0.49635827  0.65234600  1
  In  In17  1  0.84943026  0.34630093  0.18473391  1
  In  In18  1  -0.00865807  0.66161901  0.00033609  1
  In  In19  1  0.50472897  0.82501323  0.65077009  1
  In  In20  1  0.16338902  0.49294904  0.66147161  1
  In  In21  1  0.31811395  0.52029167  0.46889634  1
  In  In22  1  0.47863946  -0.01351089  0.20324165  1
  In  In23  1  0.30883082  0.67942871  0.62201163  1
  In  In24  1  0.83538238  -0.00577146  0.83549051  1
  In  In25  1  -0.02301466  0.34512561  0.67752007  1
  In  In26  1  0.85342228  0.65556077  0.18983368  1
  In  In27  1  0.48839393  0.64412362  0.79832518  1
  In  In28  1  0.49485108  0.65795694  0.18937986  1
  In  In29  1  -0.02284503  0.19087803  0.82581678  1
  In  In30  1  0.48319627  0.49087438  0.33976708  1
  In  In31  1  -0.01484902  0.69921200  0.63627313  1
  In  In32  1  0.66705403  0.00797756  0.35144367  1
  In  In33  1  0.67918114  0.66943785  0.31405072  1
  In  In34  1  0.31150360  0.69744466  0.02613257  1
  In  In35  1  0.15428595  0.16584904  0.03083384  1
  In  In36  1  0.66954046  0.16781747  0.81826011  1
  In  In37  1  0.15090847  0.30663373  0.20872004  1
  In  In38  1  0.81934492  0.66024115  0.79456275  1
  In  In39  1  0.69534654  0.50744979  0.17327327  1
  In  In40  1  0.31021893  0.13928305  0.79870128  1
  In  In41  1  -0.00555352  -0.04533485  0.59718214  1
  In  In42  1  0.33795766  0.17745810  0.49880767  1
  In  In43  1  0.17217530  -0.01543513  0.83954713  1
  In  In44  1  0.84015806  0.16865342  0.35128146  1
  In  In45  1  0.51876937  0.50335881  -0.00412598  1
  In  In46  1  0.01157738  0.00552208  0.34302152  1
  In  In47  1  0.81002184  0.17880465  0.00787355  1
  In  In48  1  0.67958779  -0.02833521  0.63286501  1
  In  In49  1  0.50117317  0.00819517  0.48846939  1
  In  In50  1  0.49585236  0.30516119  0.17807472  1
  In  In51  1  0.48909020  0.01700263  0.84165955  1
  In  In52  1  0.32444152  -0.01479535  0.65164572  1
  In  In53  1  0.50145623  0.17669214  -0.00195053  1
  In  In54  1  0.68239213  0.82477210  0.81022895  1
  In  In55  1  0.00657802  0.15142386  0.49192252  1
  In  In56  1  -0.00795737  0.50119337  0.86117529  1
  In  In57  1  0.68368725  0.48898238  0.49721761  1
  In  In58  1  0.85401985  0.84316177  -0.00030296  1
  In  In59  1  0.35831585  0.33461928  0.00109963  1
  In  In60  1  0.15121016  0.49413848  -0.00509618  1
  In  In61  1  0.01694024  0.52380166  0.20070083  1
  In  In62  1  0.65830061  0.15188419  0.16500573  1
  In  In63  1  0.65294631  0.33065002  0.35240733  1
  In  In64  1  -0.02512345  0.34919271  0.00845772  1
  In  In65  1  0.17321023  0.83459567  0.02431993  1
  In  In66  1  0.31461804  0.16137726  0.21606498  1
  In  In67  1  0.14484886  0.33696346  0.49598020  1
  In  In68  1  0.69439224  0.18529834  0.51085657  1
  In  In69  1  0.68329045  0.67759435  -0.02949171  1
  In  In70  1  0.83381845  0.84478796  0.35107862  1
  In  In71  1  0.52785009  0.49935583  0.64926616  1
  Te  Te72  1  0.09856385  0.09430957  0.15075734  1
  Te  Te73  1  0.11766076  0.10117031  0.39948652  1
  Te  Te74  1  0.07602340  0.08344043  0.77416159  1
  Te  Te75  1  0.08637170  0.40907127  0.10350936  1
  Te  Te76  1  0.07596343  0.42346787  0.39302279  1
  Te  Te77  1  0.09079580  0.41273874  0.76989157  1
  Te  Te78  1  0.06943014  0.74678365  0.09720762  1
  Te  Te79  1  0.09436710  0.70266818  0.43421345  1
  Te  Te80  1  0.09650268  0.75140169  0.71949440  1
  Te  Te81  1  0.41949029  0.09795202  0.10034044  1
  Te  Te82  1  0.39366759  0.07346297  0.40486587  1
  Te  Te83  1  0.42649712  0.08172182  0.71868114  1
  Te  Te84  1  0.42329795  0.43570134  0.09593176  1
  Te  Te85  1  0.41062298  0.40856377  0.43650376  1
  Te  Te86  1  0.42063257  0.42807107  0.73470111  1
  Te  Te87  1  0.42572089  0.77084203  0.09822708  1
  Te  Te88  1  0.38810143  0.76575447  0.37531747  1
  Te  Te89  1  0.40085989  0.74640941  0.73144249  1
  Te  Te90  1  0.74670693  0.06952159  0.08233811  1
  Te  Te91  1  0.77137792  0.06947002  0.44365026  1
  Te  Te92  1  0.74848164  0.06624003  0.73449497  1
  Te  Te93  1  0.76457646  0.41474244  0.08394245  1
  Te  Te94  1  0.76629522  0.39935884  0.41386213  1
  Te  Te95  1  0.73616210  0.39266028  0.70662629  1
  Te  Te96  1  0.76837179  0.74532951  0.08953349  1
  Te  Te97  1  0.73570759  0.75691516  0.41765850  1
  Te  Te98  1  0.76417425  0.76389206  0.70222717  1
  Te  Te99  1  0.04989024  0.20778892  0.24928895  1
  Te  Te100  1  0.08094923  0.25154407  0.60903579  1
  Te  Te101  1  0.08314621  0.25816037  0.92821772  1
  Te  Te102  1  0.11839230  0.60446650  0.27580338  1
  Te  Te103  1  0.08622376  0.59271359  0.57725647  1
  Te  Te104  1  0.09704131  0.60569196  0.90569200  1
  Te  Te105  1  0.09453440  0.91202852  0.25411330  1
  Te  Te106  1  0.12513209  0.88837301  0.57103659  1
  Te  Te107  1  0.06683102  0.91571915  0.93900351  1
  Te  Te108  1  0.40079785  0.26309827  0.27874842  1
  Te  Te109  1  0.40660012  0.23632845  0.61471853  1
  Te  Te110  1  0.40728750  0.23634449  0.89350356  1
  Te  Te111  1  0.38763911  0.58869163  0.26924016  1
  Te  Te112  1  0.41875017  0.58505200  0.57513834  1
  Te  Te113  1  0.41602955  0.59996595  0.93570489  1
  Te  Te114  1  0.40134034  0.90613259  0.30686478  1
  Te  Te115  1  0.41302153  0.90342194  0.55909538  1
  Te  Te116  1  0.39332063  0.90757500  0.88852863  1
  Te  Te117  1  0.74261816  0.24734982  0.24997258  1
  Te  Te118  1  0.76525239  0.27396665  0.60682588  1
  Te  Te119  1  0.76001819  0.25762393  0.89485491  1
  Te  Te120  1  0.78647014  0.55297507  0.28873754  1
  Te  Te121  1  0.76698122  0.59206300  0.56333148  1
  Te  Te122  1  0.76524437  0.56922713  0.90732998  1
  Te  Te123  1  0.75480083  0.92851585  0.25109759  1
  Te  Te124  1  0.78295841  0.88025453  0.58195470  1
  Te  Te125  1  0.74055120  0.91053394  0.92341932  1
  Te  Te126  1  0.26127876  0.26249783  0.09497297  1
  Te  Te127  1  0.22837263  0.24148259  0.41712460  1
  Te  Te128  1  0.28308487  0.26279343  0.70455813  1
  Te  Te129  1  0.24044449  0.57673429  0.08720207  1
  Te  Te130  1  0.20790570  0.59977712  0.40554517  1
  Te  Te131  1  0.24548610  0.59700771  0.73789515  1
  Te  Te132  1  0.25099410  0.93753637  0.10628809  1
  Te  Te133  1  0.21923793  0.91001280  0.44765017  1
  Te  Te134  1  0.23041747  0.90213807  0.73269440  1
  Te  Te135  1  0.59700445  0.26607694  0.07452655  1
  Te  Te136  1  0.57778270  0.23536765  0.43402277  1
  Te  Te137  1  0.57889528  0.24040772  0.72657714  1
  Te  Te138  1  0.59851869  0.60627906  0.08530836  1
  Te  Te139  1  0.58182112  0.58569611  0.40536970  1
  Te  Te140  1  0.61337569  0.60140057  0.72543754  1
  Te  Te141  1  0.57585803  0.93598852  0.09563924  1
  Te  Te142  1  0.59146367  0.90762824  0.42753395  1
  Te  Te143  1  0.57919251  0.92295923  0.75215877  1
  Te  Te144  1  0.92005148  0.23881784  0.09490556  1
  Te  Te145  1  0.92697722  0.25777833  0.42926608  1
  Te  Te146  1  0.88291591  0.23491572  0.71776504  1
  Te  Te147  1  0.91816099  0.56135026  0.08668492  1
  Te  Te148  1  0.89405345  0.60663888  0.39222046  1
  Te  Te149  1  0.93909786  0.58180093  0.74145788  1
  Te  Te150  1  0.91360191  0.93915824  0.10078953  1
  Te  Te151  1  0.94261258  0.91228380  0.43868283  1
  Te  Te152  1  0.92418058  0.92058304  0.73575785  1
  Te  Te153  1  0.24816301  0.07336158  0.31332913  1
  Te  Te154  1  0.23800562  0.07304971  0.56323729  1
  Te  Te155  1  0.24943586  0.08661818  0.93387959  1
  Te  Te156  1  0.22891726  0.40209444  0.29270508  1
  Te  Te157  1  0.25364120  0.41882197  0.56751032  1
  Te  Te158  1  0.26233798  0.41804529  0.91289145  1
  Te  Te159  1  0.22225427  0.72959742  0.23999429  1
  Te  Te160  1  0.24023269  0.78067517  0.53609162  1
  Te  Te161  1  0.24176226  0.76285567  0.91554210  1
  Te  Te162  1  0.56721599  0.09155754  0.27069099  1
  Te  Te163  1  0.59547875  0.08471643  0.58039200  1
  Te  Te164  1  0.59473226  0.08067568  0.92797269  1
  Te  Te165  1  0.58351386  0.42695777  0.23899915  1
  Te  Te166  1  0.57762365  0.40096260  0.55304303  1
  Te  Te167  1  0.60119382  0.40812866  0.91305016  1
  Te  Te168  1  0.57027725  0.76694594  0.26482474  1
  Te  Te169  1  0.58109424  0.74242038  0.55724630  1
  Te  Te170  1  0.57030243  0.75155200  0.89982414  1
  Te  Te171  1  0.92357672  0.09002175  0.25571780  1
  Te  Te172  1  0.92171284  0.08141275  0.58994430  1
  Te  Te173  1  0.92344576  0.08483518  0.92533133  1
  Te  Te174  1  0.95001498  0.41218399  0.27407372  1
  Te  Te175  1  0.93101281  0.42696973  0.55992973  1
  Te  Te176  1  0.89460706  0.39488771  0.89275660  1
  Te  Te177  1  0.93479765  0.73411980  0.29506364  1
  Te  Te178  1  0.90899570  0.79179884  0.54914712  1
  Te  Te179  1  0.90803290  0.74513660  0.89518483  1
