# generated using pymatgen
data_In2Te3
_symmetry_space_group_name_H-M   'P 1'
_cell_length_a   19.00306126
_cell_length_b   19.03280857
_cell_length_c   19.03917165
_cell_angle_alpha   89.93447442
_cell_angle_beta   90.22305045
_cell_angle_gamma   90.03510508
_symmetry_Int_Tables_number   1
_chemical_formula_structural   In2Te3
_chemical_formula_sum   'In72 Te108'
_cell_volume   6886.06062698
_cell_formula_units_Z   36
loop_
 _symmetry_equiv_pos_site_id
 _symmetry_equiv_pos_as_xyz
  1  'x, y, z'
loop_
 _atom_site_type_symbol
 _atom_site_label
 _atom_site_symmetry_multiplicity
 _atom_site_fract_x
 _atom_site_fract_y
 _atom_site_fract_z
 _atom_site_occupancy
  In  In0  1  0.65550222  0.50579126  0.48763556  1
  In  In1  1  0.51483579  0.32439666  0.49408877  1
  In  In2  1  0.68793778  0.33794015  0.65735034  1
  In  In3  1  0.17976213  -0.00213347  0.48835915  1
  In  In4  1  -0.02216882  0.66589465  0.34572953  1
  In  In5  1  0.17775957  0.17226251  0.69458106  1
  In  In6  1  0.79931312  0.67073056  0.49168960  1
  In  In7  1  0.34252303  0.01394824  0.33560036  1
  In  In8  1  0.33237007  0.87966153  0.14968147  1
  In  In9  1  0.02970849  0.83473252  0.51098895  1
  In  In10  1  0.17689016  0.31341323  0.16621433  1
  In  In11  1  0.84095095  0.32927466  0.83568317  1
  In  In12  1  0.34327188  0.50523598  0.82183111  1
  In  In13  1  0.66398986  0.51095691  0.17611862  1
  In  In14  1  0.00334346  0.31006152  0.00696033  1
  In  In15  1  0.31356193  0.66860218  0.00114783  1
  In  In16  1  0.63666620  0.52487751  0.84158668  1
  In  In17  1  0.17208029  0.50789380  0.68926363  1
  In  In18  1  0.15497224  0.66995825  0.84515411  1
  In  In19  1  -0.01445235  -0.01504635  0.28443156  1
  In  In20  1  0.67174744  -0.01723788  -0.02023979  1
  In  In21  1  0.65858006  0.14855147  0.18117312  1
  In  In22  1  0.85477748  0.49733535  0.66616838  1
  In  In23  1  0.34287198  0.48597899  0.17029485  1
  In  In24  1  0.81658417  0.82382430  0.33870628  1
  In  In25  1  0.18522367  0.85592874  0.66423976  1
  In  In26  1  0.81846916  0.15599818  -0.00009370  1
  In  In27  1  0.66427846  0.15979728  0.84672459  1
  In  In28  1  0.52976986  0.14628144  0.64450424  1
  In  In29  1  0.35321796  0.17248861  0.48031941  1
  In  In30  1  0.52537986  0.87177493  0.65694317  1
  In  In31  1  0.80504480  0.48853601  0.00068647  1
  In  In32  1  0.14358865  0.34322581  0.50456454  1
  In  In33  1  0.34412987  0.32292828  0.31040352  1
  In  In34  1  0.34672471  0.12400978  0.14261487  1
  In  In35  1  0.79589583  0.84325856  0.65747581  1
  In  In36  1  0.15009266  0.15745847  0.33397944  1
  In  In37  1  0.35133564  0.17330446  0.82033180  1
  In  In38  1  0.16664897  0.51720209  0.37509435  1
  In  In39  1  -0.02326962  0.13125898  0.15704369  1
  In  In40  1  -0.01214465  -0.01177367  -0.00230986  1
  In  In41  1  0.66698355  0.66993935  0.00926911  1
  In  In42  1  0.81854928  0.66228728  0.17229316  1
  In  In43  1  0.31872435  0.51386762  0.52048583  1
  In  In44  1  -0.03326197  0.68227422  0.68912432  1
  In  In45  1  0.34546757  0.00582990  0.66498546  1
  In  In46  1  0.68542941  0.82534690  0.82604831  1
  In  In47  1  -0.00071496  0.46075721  0.51752947  1
  In  In48  1  0.49700691  0.30678453  0.15803245  1
  In  In49  1  0.02499780  0.31230543  0.68890913  1
  In  In50  1  0.47416772  0.86051023  -0.02837821  1
  In  In51  1  -0.00658767  0.49555755  0.17126155  1
  In  In52  1  0.66251949  0.31561220  0.34410564  1
  In  In53  1  0.18329601  0.66183097  0.51884864  1
  In  In54  1  0.37051695  0.70256600  0.65157628  1
  In  In55  1  0.49435143  0.34046935  0.84250960  1
  In  In56  1  0.66712904  -0.00002289  0.33679753  1
  In  In57  1  0.16213755  0.85997770  0.31877617  1
  In  In58  1  0.51636034  0.68183118  0.16558534  1
  In  In59  1  0.84345462  0.27778285  0.47958458  1
  In  In60  1  0.65428471  0.82943350  0.18111156  1
  In  In61  1  -0.07680813  0.84642980  0.85381985  1
  In  In62  1  0.49281973  0.50815583  0.34404471  1
  In  In63  1  0.19573230  0.16261337  -0.02169750  1
  In  In64  1  0.47655446  0.67935193  0.82238595  1
  In  In65  1  0.78430402  0.13029072  0.65825559  1
  In  In66  1  0.82000784  0.49326274  0.32110235  1
  In  In67  1  0.18649368  0.50291516  -0.01999901  1
  In  In68  1  0.15323177  0.83527750  -0.00730802  1
  In  In69  1  0.15045674  0.70459568  0.17075922  1
  In  In70  1  0.00670337  0.16750798  0.84834752  1
  In  In71  1  0.82880773  -0.00445409  0.48789254  1
  Te  Te72  1  0.08221926  0.09432670  0.05405162  1
  Te  Te73  1  0.06875217  0.05362340  0.40306029  1
  Te  Te74  1  0.07907501  0.08419007  0.75401737  1
  Te  Te75  1  0.09511709  0.41190549  0.08375081  1
  Te  Te76  1  0.05691434  0.39871965  0.38832400  1
  Te  Te77  1  0.07804131  0.42506074  0.76433855  1
  Te  Te78  1  0.05598789  0.74268501  0.06210973  1
  Te  Te79  1  0.09872574  0.74582776  0.40864463  1
  Te  Te80  1  0.09421789  0.74863491  0.72936419  1
  Te  Te81  1  0.43883068  0.08342105  0.03226971  1
  Te  Te82  1  0.44236725  0.06897194  0.43026230  1
  Te  Te83  1  0.44825452  0.07653631  0.74990417  1
  Te  Te84  1  0.41681198  0.40217836  0.07989175  1
  Te  Te85  1  0.40150550  0.40977662  0.42128543  1
  Te  Te86  1  0.43275753  0.42525760  0.74021288  1
  Te  Te87  1  0.41201121  0.75924919  0.07582292  1
  Te  Te88  1  0.49973808  0.78721280  0.53057384  1
  Te  Te89  1  0.42005394  0.79963524  0.75400117  1
  Te  Te90  1  0.74776674  0.05853699  0.08690257  1
  Te  Te91  1  0.77508909  0.09236223  0.38764300  1
  Te  Te92  1  0.71734771  0.04810539  0.76185246  1
  Te  Te93  1  0.74054118  0.41083543  0.10476575  1
  Te  Te94  1  0.75934622  0.40688320  0.43314162  1
  Te  Te95  1  0.74861134  0.42843222  0.76354970  1
  Te  Te96  1  0.75566609  0.76644477  0.08279417  1
  Te  Te97  1  0.70967659  0.77495859  0.43253890  1
  Te  Te98  1  0.76485661  0.73146340  0.74602690  1
  Te  Te99  1  0.06941915  0.23317109  0.23086165  1
  Te  Te100  1  0.08405095  0.22841592  0.57921818  1
  Te  Te101  1  0.10654499  0.26457967  0.90784482  1
  Te  Te102  1  0.07980480  0.59073614  0.25963234  1
  Te  Te103  1  0.07970888  0.57460963  0.58341169  1
  Te  Te104  1  0.07512381  0.58226681  0.93075978  1
  Te  Te105  1  0.09797079  0.92511060  0.20285570  1
  Te  Te106  1  0.08378189  0.94632574  0.59471731  1
  Te  Te107  1  0.06380546  0.90949790  0.89601500  1
  Te  Te108  1  0.42003790  0.21203709  0.24802856  1
  Te  Te109  1  0.42567644  0.24737409  0.58939912  1
  Te  Te110  1  0.43291723  0.23606096  0.92609656  1
  Te  Te111  1  0.41680077  0.59356620  0.24417622  1
  Te  Te112  1  0.42434523  0.57915122  0.59545020  1
  Te  Te113  1  0.41657339  0.58750572  0.92760730  1
  Te  Te114  1  0.43156308  0.94417990  0.23817075  1
  Te  Te115  1  0.42643217  0.93718458  0.56271835  1
  Te  Te116  1  0.37384719  0.97117742  0.95615468  1
  Te  Te117  1  0.74938606  0.23634941  0.25903629  1
  Te  Te118  1  0.72571498  0.22935732  0.55912721  1
  Te  Te119  1  0.74104387  0.26353767  0.92715299  1
  Te  Te120  1  0.72603675  0.60490015  0.27705257  1
  Te  Te121  1  0.74619254  0.57412932  0.59272571  1
  Te  Te122  1  0.75306131  0.59812501  0.90920299  1
  Te  Te123  1  0.75870227  0.92054036  0.24082987  1
  Te  Te124  1  0.71571949  0.93177981  0.56617267  1
  Te  Te125  1  0.78045093  0.89954560  0.91574522  1
  Te  Te126  1  0.27544157  0.24511985  0.07857424  1
  Te  Te127  1  0.23862050  0.25693222  0.40765568  1
  Te  Te128  1  0.26139081  0.27217940  0.75708215  1
  Te  Te129  1  0.23631397  0.59064405  0.10558017  1
  Te  Te130  1  0.27969244  0.61260471  0.41200077  1
  Te  Te131  1  0.26322135  0.61558558  0.74434609  1
  Te  Te132  1  0.23776477  0.94223207  0.05515691  1
  Te  Te133  1  0.27095982  0.90417122  0.41429803  1
  Te  Te134  1  0.25668650  0.93920344  0.76145041  1
  Te  Te135  1  0.59289660  0.23192532  0.08020993  1
  Te  Te136  1  0.56925616  0.22202945  0.40721016  1
  Te  Te137  1  0.59725230  0.25145235  0.74221208  1
  Te  Te138  1  0.57108708  0.57371593  0.07483695  1
  Te  Te139  1  0.56472149  0.60290983  0.42809270  1
  Te  Te140  1  0.57803842  0.61204205  0.73626305  1
  Te  Te141  1  0.57710212  0.90545307  0.07036261  1
  Te  Te142  1  0.60461165  0.88699804  0.40855952  1
  Te  Te143  1  0.60294533  0.93595354  0.77033077  1
  Te  Te144  1  0.89854467  0.24543380  0.09204155  1
  Te  Te145  1  0.96720511  0.27124238  0.40818049  1
  Te  Te146  1  0.90354777  0.22601338  0.74834371  1
  Te  Te147  1  0.90307592  0.57799878  0.08300538  1
  Te  Te148  1  0.91049717  0.56284234  0.43197774  1
  Te  Te149  1  0.93070417  0.56705223  0.76921023  1
  Te  Te150  1  0.95386445  0.94224375  0.13603607  1
  Te  Te151  1  0.92940534  0.89848658  0.41527601  1
  Te  Te152  1  0.90676294  0.91025978  0.72438315  1
  Te  Te153  1  0.24034459  0.07808158  0.24331997  1
  Te  Te154  1  0.25570289  0.09849804  0.57315999  1
  Te  Te155  1  0.25324130  0.07285970  0.87619460  1
  Te  Te156  1  0.23528831  0.42159488  0.26531337  1
  Te  Te157  1  0.24338808  0.40821290  0.59770586  1
  Te  Te158  1  0.27301371  0.41161654  0.91074910  1
  Te  Te159  1  0.26285334  0.77499268  0.24077865  1
  Te  Te160  1  0.26841187  0.77656516  0.56715819  1
  Te  Te161  1  0.25641004  0.76716272  0.90338742  1
  Te  Te162  1  0.56584313  0.04716756  0.23845705  1
  Te  Te163  1  0.63060106  0.06092904  0.58302648  1
  Te  Te164  1  0.57034851  0.08081893  0.93043726  1
  Te  Te165  1  0.57614778  0.41273341  0.26213845  1
  Te  Te166  1  0.58136186  0.42109251  0.58939042  1
  Te  Te167  1  0.58753307  0.41868457  0.92528615  1
  Te  Te168  1  0.55359710  0.77469232  0.27365883  1
  Te  Te169  1  0.59313761  0.73744469  0.63675630  1
  Te  Te170  1  0.57661107  0.75304067  0.91881291  1
  Te  Te171  1  0.89141880  0.10007146  0.27502761  1
  Te  Te172  1  0.89929269  0.08253574  0.58312938  1
  Te  Te173  1  0.90130868  0.07441788  0.90595169  1
  Te  Te174  1  0.90135809  0.40575831  0.23886878  1
  Te  Te175  1  0.90661771  0.37061527  0.59974319  1
  Te  Te176  1  0.92142612  0.41247621  0.93194908  1
  Te  Te177  1  0.91768740  0.75551721  0.24355301  1
  Te  Te178  1  0.91681940  0.74183714  0.55939842  1
  Te  Te179  1  0.95274948  0.73860387  0.94392697  1
