# generated using pymatgen
data_In2Te3
_symmetry_space_group_name_H-M   'P 1'
_cell_length_a   18.77427368
_cell_length_b   18.78299480
_cell_length_c   18.78244323
_cell_angle_alpha   89.92029295
_cell_angle_beta   90.05148609
_cell_angle_gamma   90.05900386
_symmetry_Int_Tables_number   1
_chemical_formula_structural   In2Te3
_chemical_formula_sum   'In72 Te108'
_cell_volume   6623.37344263
_cell_formula_units_Z   36
loop_
 _symmetry_equiv_pos_site_id
 _symmetry_equiv_pos_as_xyz
  1  'x, y, z'
loop_
 _atom_site_type_symbol
 _atom_site_label
 _atom_site_symmetry_multiplicity
 _atom_site_fract_x
 _atom_site_fract_y
 _atom_site_fract_z
 _atom_site_occupancy
  In  In0  1  0.30572867  0.18850481  0.14189835  1
  In  In1  1  0.15298668  0.16354296  0.31655897  1
  In  In2  1  0.85073481  0.15979139  0.68898634  1
  In  In3  1  0.50620342  0.00130848  0.18065157  1
  In  In4  1  0.17007982  0.01827365  0.81922061  1
  In  In5  1  0.68748765  0.65043479  -0.02930045  1
  In  In6  1  0.86099378  0.32928920  0.15273635  1
  In  In7  1  -0.01611415  0.83619392  0.85149898  1
  In  In8  1  -0.00801078  0.00059348  0.00450179  1
  In  In9  1  0.32089695  0.33777818  0.68865223  1
  In  In10  1  0.64948021  0.33806519  0.01115581  1
  In  In11  1  0.48725060  0.50377768  0.00780594  1
  In  In12  1  0.33158676  -0.00158601  -0.02822700  1
  In  In13  1  0.16248208  0.65080863  0.83889216  1
  In  In14  1  0.12500748  0.79866091  0.02764882  1
  In  In15  1  0.67955146  0.49925671  0.18042736  1
  In  In16  1  0.01929559  0.37588586  0.69947929  1
  In  In17  1  0.31881341  0.51636155  0.82868655  1
  In  In18  1  0.82511010  0.53239838  0.34042951  1
  In  In19  1  0.02102874  0.32472516  0.31219865  1
  In  In20  1  0.00414247  0.66482271  0.32524624  1
  In  In21  1  0.48950726  0.67898922  0.48438920  1
  In  In22  1  0.32123111  0.83145578  0.17396819  1
  In  In23  1  0.84309727  0.82784971  0.00729143  1
  In  In24  1  0.36465081  -0.01897422  0.63293348  1
  In  In25  1  0.49440231  0.32916636  0.16079432  1
  In  In26  1  0.68464798  0.83902020  0.49575609  1
  In  In27  1  0.67549087  0.83624359  0.81050048  1
  In  In28  1  0.51661406  0.33518478  0.50343751  1
  In  In29  1  0.49776794  0.66754379  0.81953399  1
  In  In30  1  0.33913450  0.50785791  0.51637284  1
  In  In31  1  0.33196693  0.80453969  0.82580752  1
  In  In32  1  0.51384559  -0.00229250  0.81782070  1
  In  In33  1  0.51522175  0.83410554  0.03729960  1
  In  In34  1  0.18529293  0.16271926  0.67460403  1
  In  In35  1  -0.01983035  0.69741149  0.64746905  1
  In  In36  1  0.50057737  0.16642060  -0.01860151  1
  In  In37  1  0.83529317  0.81412496  0.32735651  1
  In  In38  1  0.66221719  0.83569941  0.18195073  1
  In  In39  1  -0.00017643  0.52423180  0.50052776  1
  In  In40  1  0.33913756  0.34605412  0.31828373  1
  In  In41  1  0.17718675  0.82958873  0.32999042  1
  In  In42  1  0.66672220  0.34026155  0.31985034  1
  In  In43  1  0.64975377  0.53400989  0.50989017  1
  In  In44  1  0.17150256  0.66268100  0.50949181  1
  In  In45  1  0.83395172  0.00582906  0.82606917  1
  In  In46  1  0.69527665  0.16959041  0.82343223  1
  In  In47  1  0.15415942  0.49964252  0.01704806  1
  In  In48  1  0.17470286  0.83224457  0.64819897  1
  In  In49  1  0.17326629  0.49699500  0.33060727  1
  In  In50  1  0.83612848  0.32263563  0.49385536  1
  In  In51  1  0.00354485  -0.01978356  0.67469490  1
  In  In52  1  0.50320641  0.15602590  0.64196923  1
  In  In53  1  -0.02073614  -0.00915472  0.32902816  1
  In  In54  1  0.83258818  0.51961184  0.68429009  1
  In  In55  1  0.49454178  0.34204984  0.84654537  1
  In  In56  1  0.50220136  0.67677276  0.18631685  1
  In  In57  1  0.86007445  0.36875123  0.86149902  1
  In  In58  1  0.30236419  0.18066105  0.82748370  1
  In  In59  1  0.65641312  0.13227560  0.48782659  1
  In  In60  1  0.32550912  0.51612890  0.16562238  1
  In  In61  1  -0.02025872  0.51453218  0.14391902  1
  In  In62  1  0.33727627  0.13326379  0.49771550  1
  In  In63  1  0.66672863  0.33689158  0.65760672  1
  In  In64  1  0.18119314  0.32198315  0.51981768  1
  In  In65  1  0.66949547  0.67271133  0.68397321  1
  In  In66  1  0.15535543  -0.00088406  0.16664356  1
  In  In67  1  0.82954820  0.14708951  0.03204982  1
  In  In68  1  0.01772555  0.14041484  0.49565812  1
  In  In69  1  0.66183372  -0.02298329  0.33160902  1
  In  In70  1  0.35053303  -0.01819673  0.34537674  1
  In  In71  1  0.82071936  0.14189628  0.31703760  1
  Te  Te72  1  0.07221155  0.09452674  0.08970718  1
  Te  Te73  1  0.10328538  0.05255322  0.40737422  1
  Te  Te74  1  0.06446597  0.10058058  0.75059735  1
  Te  Te75  1  0.06280905  0.40520157  0.08985878  1
  Te  Te76  1  0.08230874  0.41320991  0.42901662  1
  Te  Te77  1  0.11593777  0.42180277  0.80139126  1
  Te  Te78  1  0.03349090  0.72883775  0.11623753  1
  Te  Te79  1  0.08199725  0.75170179  0.42403456  1
  Te  Te80  1  0.08516466  0.76456228  0.75362256  1
  Te  Te81  1  0.41179805  0.07693789  0.07735899  1
  Te  Te82  1  0.44144358  0.08114719  0.40992653  1
  Te  Te83  1  0.40674473  0.09335523  0.75226964  1
  Te  Te84  1  0.39405516  0.40673107  0.07713053  1
  Te  Te85  1  0.42412381  0.42297069  0.41852895  1
  Te  Te86  1  0.42241172  0.43402782  0.74877566  1
  Te  Te87  1  0.40679257  0.73968499  0.08297002  1
  Te  Te88  1  0.37884193  0.77524531  0.44214143  1
  Te  Te89  1  0.43317491  0.76430033  0.72647130  1
  Te  Te90  1  0.72425376  0.06176172  0.08253736  1
  Te  Te91  1  0.76815308  0.05068061  0.42590783  1
  Te  Te92  1  0.73528939  0.06301593  0.72250377  1
  Te  Te93  1  0.75969307  0.41977437  0.07897331  1
  Te  Te94  1  0.73972275  0.42244004  0.42814279  1
  Te  Te95  1  0.75075741  0.41268764  0.75812121  1
  Te  Te96  1  0.73632427  0.74591894  0.08231548  1
  Te  Te97  1  0.71965332  0.73912708  0.38803456  1
  Te  Te98  1  0.77018203  0.72843910  0.77759494  1
  Te  Te99  1  0.08231522  0.23825413  0.20945050  1
  Te  Te100  1  0.06818875  0.24964785  0.59141279  1
  Te  Te101  1  0.13257855  0.23003092  0.93722578  1
  Te  Te102  1  0.09000869  0.57958021  0.23284403  1
  Te  Te103  1  0.08646136  0.58229899  0.60859581  1
  Te  Te104  1  0.06110894  0.58424655  0.92815947  1
  Te  Te105  1  0.07066794  0.89919641  0.24410690  1
  Te  Te106  1  0.08188313  0.91458790  0.56853410  1
  Te  Te107  1  0.09641877  0.91877219  0.91490496  1
  Te  Te108  1  0.41174931  0.23275344  0.24626919  1
  Te  Te109  1  0.40000976  0.25970676  0.58037786  1
  Te  Te110  1  0.39318994  0.26001340  0.92526144  1
  Te  Te111  1  0.41152801  0.58798894  0.26235877  1
  Te  Te112  1  0.43009025  0.59502866  0.59269596  1
  Te  Te113  1  0.40553398  0.60027905  0.92346688  1
  Te  Te114  1  0.43592702  0.88953789  0.25759672  1
  Te  Te115  1  0.42808424  0.89983754  0.52292171  1
  Te  Te116  1  0.43324505  0.90059525  0.91577002  1
  Te  Te117  1  0.75383611  0.25126577  0.23256316  1
  Te  Te118  1  0.74651694  0.23147692  0.57998903  1
  Te  Te119  1  0.75511895  0.26547262  0.92389858  1
  Te  Te120  1  0.75556678  0.61233259  0.23819879  1
  Te  Te121  1  0.76540977  0.60510358  0.57688133  1
  Te  Te122  1  0.79644131  0.55974734  0.92099981  1
  Te  Te123  1  0.77276319  0.92354135  0.23908758  1
  Te  Te124  1  0.77946347  0.87867432  0.60404406  1
  Te  Te125  1  0.75226799  0.91554549  0.91624949  1
  Te  Te126  1  0.22113766  0.27121119  0.05223767  1
  Te  Te127  1  0.25256342  0.24453775  0.40977701  1
  Te  Te128  1  0.19762238  0.28475717  0.77079486  1
  Te  Te129  1  0.24189674  0.60251673  0.08002861  1
  Te  Te130  1  0.26260539  0.58973266  0.40929986  1
  Te  Te131  1  0.25913515  0.61306161  0.73342781  1
  Te  Te132  1  0.24312806  0.91584331  0.06967169  1
  Te  Te133  1  0.26605809  0.89352232  0.43571585  1
  Te  Te134  1  0.26828148  0.92423243  0.74886179  1
  Te  Te135  1  0.58639580  0.22700050  0.09397160  1
  Te  Te136  1  0.58525392  0.24133049  0.40582762  1
  Te  Te137  1  0.57410879  0.24724060  0.75406309  1
  Te  Te138  1  0.58919483  0.59015136  0.08244796  1
  Te  Te139  1  0.57433826  0.59035536  0.39730210  1
  Te  Te140  1  0.60034248  0.57334781  0.77098035  1
  Te  Te141  1  0.61298676  0.94855462  0.07609250  1
  Te  Te142  1  0.56988486  0.91706674  0.43479788  1
  Te  Te143  1  0.57078747  0.89884282  0.72405654  1
  Te  Te144  1  0.92717242  0.25820528  0.04142466  1
  Te  Te145  1  0.92679318  0.23671123  0.40611884  1
  Te  Te146  1  0.92867999  0.27114378  0.76600786  1
  Te  Te147  1  0.88153087  0.57934480  0.05178971  1
  Te  Te148  1  0.90379894  0.62212402  0.43550544  1
  Te  Te149  1  0.94752268  0.59067088  0.74431423  1
  Te  Te150  1  0.91263771  0.92058590  0.09958675  1
  Te  Te151  1  0.91785494  0.89253085  0.42544626  1
  Te  Te152  1  0.89590513  0.89392007  0.74053836  1
  Te  Te153  1  0.26532608  0.07248997  0.24771401  1
  Te  Te154  1  0.23690576  0.05567138  0.58027250  1
  Te  Te155  1  0.22026976  0.10332976  0.94342993  1
  Te  Te156  1  0.23183599  0.40120629  0.22908455  1
  Te  Te157  1  0.23499418  0.43503404  0.60450527  1
  Te  Te158  1  0.23480794  0.42296831  0.91148286  1
  Te  Te159  1  0.24426709  0.72813118  0.24590999  1
  Te  Te160  1  0.27427464  0.74124401  0.58580100  1
  Te  Te161  1  0.23677111  0.74938720  0.93149109  1
  Te  Te162  1  0.59471022  0.08826578  0.25986762  1
  Te  Te163  1  0.58709700  0.04803148  0.58876339  1
  Te  Te164  1  0.60405316  0.08011483  0.90943065  1
  Te  Te165  1  0.56300388  0.43035665  0.25251719  1
  Te  Te166  1  0.56961344  0.43992907  0.60126194  1
  Te  Te167  1  0.59131082  0.43989183  0.91314901  1
  Te  Te168  1  0.58948203  0.75236293  0.28393649  1
  Te  Te169  1  0.59079047  0.75008183  0.58011308  1
  Te  Te170  1  0.58500663  0.75674340  0.92404150  1
  Te  Te171  1  0.93046308  0.09303194  0.23243533  1
  Te  Te172  1  0.91275237  0.06969700  0.58185273  1
  Te  Te173  1  0.91873500  0.09697740  0.91024418  1
  Te  Te174  1  0.90978885  0.42550195  0.27060457  1
  Te  Te175  1  0.91377484  0.41824889  0.58448035  1
  Te  Te176  1  0.94039684  0.47677016  0.92708618  1
  Te  Te177  1  0.91803840  0.73659041  0.22382348  1
  Te  Te178  1  0.89014180  0.78749981  0.56148634  1
  Te  Te179  1  0.93164399  0.72872003  0.93795799  1
