# generated using pymatgen
data_In2Te3
_symmetry_space_group_name_H-M   'P 1'
_cell_length_a   18.85688196
_cell_length_b   18.86745979
_cell_length_c   18.85777972
_cell_angle_alpha   90.08020498
_cell_angle_beta   89.91379571
_cell_angle_gamma   90.04607407
_symmetry_Int_Tables_number   1
_chemical_formula_structural   In2Te3
_chemical_formula_sum   'In72 Te108'
_cell_volume   6709.23211272
_cell_formula_units_Z   36
loop_
 _symmetry_equiv_pos_site_id
 _symmetry_equiv_pos_as_xyz
  1  'x, y, z'
loop_
 _atom_site_type_symbol
 _atom_site_label
 _atom_site_symmetry_multiplicity
 _atom_site_fract_x
 _atom_site_fract_y
 _atom_site_fract_z
 _atom_site_occupancy
  In  In0  1  0.33478252  0.15127894  0.84325864  1
  In  In1  1  0.82043827  0.83647444  0.34854779  1
  In  In2  1  0.64188269  0.67774115  0.31574392  1
  In  In3  1  0.79387096  0.32532083  0.18785203  1
  In  In4  1  0.14055474  0.17843991  0.66971905  1
  In  In5  1  0.49187715  -0.03658872  0.49706390  1
  In  In6  1  0.33341140  0.16459655  0.50219168  1
  In  In7  1  0.81017981  0.86180902  0.63499016  1
  In  In8  1  0.03281857  0.67953763  0.00348995  1
  In  In9  1  0.85613949  0.30365807  0.79036064  1
  In  In10  1  0.84023800  0.66602407  0.48131769  1
  In  In11  1  0.84344729  0.52453271  -0.02254990  1
  In  In12  1  0.32709855  0.30603072  0.34647536  1
  In  In13  1  -0.04137296  0.11874435  0.20294459  1
  In  In14  1  0.17033338  0.52060043  -0.01003164  1
  In  In15  1  0.65734940  0.82838871  0.83485874  1
  In  In16  1  0.66518779  0.50093955  0.50922927  1
  In  In17  1  -0.01564103  0.33660549  0.36740231  1
  In  In18  1  0.65673508  0.84648529  0.18015382  1
  In  In19  1  0.67491820  0.32866731  0.01439852  1
  In  In20  1  0.15767341  0.15944009  0.32955534  1
  In  In21  1  -0.00945913  0.49115328  0.53387908  1
  In  In22  1  0.65164351  0.66958183  0.65595737  1
  In  In23  1  0.16437456  0.84282122  0.33430919  1
  In  In24  1  0.49760005  0.36035433  0.52019973  1
  In  In25  1  0.32619653  0.36591100  0.67616419  1
  In  In26  1  0.82030097  0.16522002  -0.00646080  1
  In  In27  1  0.00982320  0.66746244  0.67630652  1
  In  In28  1  0.36163525  0.84104832  0.16023314  1
  In  In29  1  0.00318036  0.68866151  0.31626426  1
  In  In30  1  0.14777872  0.35262652  0.82835027  1
  In  In31  1  0.32495789  0.52860368  0.16826395  1
  In  In32  1  0.65892981  -0.00026416  -0.01378919  1
  In  In33  1  0.00196507  0.46317599  0.80267224  1
  In  In34  1  0.17434441  0.68804834  0.16828085  1
  In  In35  1  0.17472309  -0.01569773  0.17039363  1
  In  In36  1  0.19224091  -0.01681849  0.82528868  1
  In  In37  1  0.32942305  0.81644122  0.49555451  1
  In  In38  1  0.63601713  0.11511268  0.15978731  1
  In  In39  1  0.82775086  0.65869714  0.84163483  1
  In  In40  1  0.00295271  0.84731850  0.48033594  1
  In  In41  1  0.51717897  0.34855856  0.16659935  1
  In  In42  1  0.00299047  0.30670181  0.00661197  1
  In  In43  1  0.71911006  0.27342812  0.39590632  1
  In  In44  1  0.20369520  0.65763918  0.82248474  1
  In  In45  1  0.49741010  0.52393347  -0.00492240  1
  In  In46  1  0.69526211  0.47894819  0.83228594  1
  In  In47  1  0.00614288  -0.00186685  0.63956514  1
  In  In48  1  0.50054289  0.68013535  0.83312903  1
  In  In49  1  0.51661819  -0.00867292  0.83315418  1
  In  In50  1  -0.02486122  0.15161968  0.49431242  1
  In  In51  1  0.17429572  0.52907067  0.36370679  1
  In  In52  1  -0.01693323  -0.00152469  -0.00639111  1
  In  In53  1  0.32965531  0.33913562  -0.02756676  1
  In  In54  1  0.49636186  0.69350261  0.50255102  1
  In  In55  1  -0.01511749  0.49534793  0.15398475  1
  In  In56  1  0.48863620  0.49970466  0.30482586  1
  In  In57  1  0.34579571  0.82332649  0.82339131  1
  In  In58  1  0.64446301  0.51572124  0.17265405  1
  In  In59  1  0.80134781  0.49817137  0.35703950  1
  In  In60  1  0.48287342  0.33196063  0.81812765  1
  In  In61  1  0.17136173  0.00760674  0.50604198  1
  In  In62  1  0.02012704  0.82479981  0.82839642  1
  In  In63  1  0.66527401  0.01224678  0.65208055  1
  In  In64  1  0.16190194  0.15913348  -0.00810637  1
  In  In65  1  0.82217339  0.01619824  0.79823259  1
  In  In66  1  0.50319577  0.16187117  0.33189241  1
  In  In67  1  0.81906845  0.83518484  0.03172163  1
  In  In68  1  0.32003330  0.55337298  0.55180205  1
  In  In69  1  0.51438418  0.16686548  0.68604900  1
  In  In70  1  0.38981950  0.06241808  0.15708844  1
  In  In71  1  0.17464117  0.32211211  0.18318587  1
  Te  Te72  1  0.06667341  0.09432514  0.09112527  1
  Te  Te73  1  0.06949891  0.06549080  0.40905511  1
  Te  Te74  1  0.08336787  0.06471817  0.75334126  1
  Te  Te75  1  0.09786549  0.41275449  0.07515727  1
  Te  Te76  1  0.09260592  0.42004721  0.43257213  1
  Te  Te77  1  0.10461809  0.42213283  0.70480803  1
  Te  Te78  1  0.07782834  0.77756299  0.10247137  1
  Te  Te79  1  0.09473764  0.73811384  0.42390490  1
  Te  Te80  1  0.11949338  0.75414873  0.73783028  1
  Te  Te81  1  0.46312098  0.02528265  0.03349057  1
  Te  Te82  1  0.40962342  0.07192032  0.41360274  1
  Te  Te83  1  0.41536670  0.06796991  0.74608392  1
  Te  Te84  1  0.40611914  0.42253667  0.08407218  1
  Te  Te85  1  0.41113413  0.41700130  0.40845320  1
  Te  Te86  1  0.41883423  0.44976663  0.75549166  1
  Te  Te87  1  0.44407599  0.72383700  0.11895313  1
  Te  Te88  1  0.43679994  0.77948595  0.39558801  1
  Te  Te89  1  0.40987601  0.72853816  0.72467174  1
  Te  Te90  1  0.75890590  0.06112692  0.08412754  1
  Te  Te91  1  0.73821357  0.13543282  0.45115844  1
  Te  Te92  1  0.73865165  0.12073375  0.72992481  1
  Te  Te93  1  0.75331517  0.43948012  0.08535868  1
  Te  Te94  1  0.78311579  0.39601986  0.47305002  1
  Te  Te95  1  0.77960680  0.41433015  0.72538170  1
  Te  Te96  1  0.72102717  0.74567948  0.09144980  1
  Te  Te97  1  0.72490578  0.74594441  0.42684552  1
  Te  Te98  1  0.76171664  0.75501863  0.74126076  1
  Te  Te99  1  0.06058416  0.25143330  0.25360019  1
  Te  Te100  1  0.04613518  0.25473056  0.58128903  1
  Te  Te101  1  0.07351716  0.23445290  0.89405922  1
  Te  Te102  1  0.09032971  0.57114379  0.23619945  1
  Te  Te103  1  0.09061543  0.58608412  0.58383099  1
  Te  Te104  1  0.06736756  0.57885455  0.89308287  1
  Te  Te105  1  0.07091056  0.92433099  0.25555264  1
  Te  Te106  1  0.10446821  0.89479415  0.58388561  1
  Te  Te107  1  0.09183564  0.91674650  0.92502424  1
  Te  Te108  1  0.41885717  0.25159652  0.23840290  1
  Te  Te109  1  0.41019502  0.25456694  0.59880788  1
  Te  Te110  1  0.43170503  0.23564228  0.92577206  1
  Te  Te111  1  0.42288072  0.61761419  0.23987672  1
  Te  Te112  1  0.44582786  0.60658608  0.61428575  1
  Te  Te113  1  0.40376448  0.60331419  0.91642737  1
  Te  Te114  1  0.42427213  0.94942989  0.24333585  1
  Te  Te115  1  0.39137583  0.91023028  0.59368119  1
  Te  Te116  1  0.42508911  0.91055742  0.92012210  1
  Te  Te117  1  0.72009777  0.21243031  0.24921464  1
  Te  Te118  1  0.76796882  0.18799249  0.58516109  1
  Te  Te119  1  0.75076678  0.26230354  0.90094435  1
  Te  Te120  1  0.75327404  0.59339342  0.25039506  1
  Te  Te121  1  0.76207988  0.58883467  0.58739084  1
  Te  Te122  1  0.72086043  0.59966049  0.93178184  1
  Te  Te123  1  0.75318080  0.93664279  0.25497936  1
  Te  Te124  1  0.73478437  0.94472437  0.53285214  1
  Te  Te125  1  0.76696566  0.91643257  0.90232422  1
  Te  Te126  1  0.25353022  0.25115836  0.07296027  1
  Te  Te127  1  0.22049841  0.24596856  0.43789839  1
  Te  Te128  1  0.25194660  0.25063778  0.76305604  1
  Te  Te129  1  0.26124379  0.61844574  0.06248652  1
  Te  Te130  1  0.28815005  0.60791615  0.41307611  1
  Te  Te131  1  0.26631662  0.54055668  0.75945499  1
  Te  Te132  1  0.25264472  0.89989971  0.07922887  1
  Te  Te133  1  0.26002728  0.93191573  0.41061390  1
  Te  Te134  1  0.27353170  0.91068835  0.72483166  1
  Te  Te135  1  0.57664675  0.23496782  0.08181949  1
  Te  Te136  1  0.57011294  0.25465642  0.43514976  1
  Te  Te137  1  0.59381573  0.28277162  0.73282799  1
  Te  Te138  1  0.55884812  0.61595229  0.10042472  1
  Te  Te139  1  0.57145506  0.57693307  0.41647069  1
  Te  Te140  1  0.60105306  0.57872037  0.76636578  1
  Te  Te141  1  0.56991187  0.91872573  0.07732260  1
  Te  Te142  1  0.61861551  0.92448082  0.43305254  1
  Te  Te143  1  0.58309244  0.90407877  0.72608229  1
  Te  Te144  1  0.89853911  0.24740917  0.10054638  1
  Te  Te145  1  0.88942583  0.22351517  0.39298176  1
  Te  Te146  1  0.96655407  0.24218208  0.71675929  1
  Te  Te147  1  0.91585365  0.60831693  0.08219259  1
  Te  Te148  1  0.93182884  0.57293951  0.40264704  1
  Te  Te149  1  0.91107922  0.57484009  0.74602410  1
  Te  Te150  1  0.92019101  0.91700297  0.09875427  1
  Te  Te151  1  0.90153004  0.94007675  0.42430719  1
  Te  Te152  1  0.92371529  0.90697675  0.74164751  1
  Te  Te153  1  0.25678628  0.09628188  0.23393953  1
  Te  Te154  1  0.24955277  0.09050760  0.60597796  1
  Te  Te155  1  0.26297779  0.05867835  0.94023700  1
  Te  Te156  1  0.25379954  0.42440747  0.26370172  1
  Te  Te157  1  0.25654216  0.41975495  0.55916291  1
  Te  Te158  1  0.26217706  0.44833002  0.88839875  1
  Te  Te159  1  0.26754771  0.76085675  0.26022917  1
  Te  Te160  1  0.26528480  0.69644595  0.55759118  1
  Te  Te161  1  0.24852574  0.75947923  0.91743720  1
  Te  Te162  1  0.57392354  0.04296988  0.27455963  1
  Te  Te163  1  0.56077694  0.08497361  0.56842934  1
  Te  Te164  1  0.60481983  0.09547785  0.88937375  1
  Te  Te165  1  0.60760411  0.40767503  0.27488658  1
  Te  Te166  1  0.59629685  0.41964542  0.61286056  1
  Te  Te167  1  0.58245626  0.41510557  0.92652538  1
  Te  Te168  1  0.55999371  0.79921260  0.28698171  1
  Te  Te169  1  0.58998466  0.77883461  0.57998095  1
  Te  Te170  1  0.56162371  0.77424665  0.93143606  1
  Te  Te171  1  0.87170850  0.03550517  0.28806287  1
  Te  Te172  1  0.88840478  0.08291416  0.59825418  1
  Te  Te173  1  0.91273612  0.09289229  0.89626087  1
  Te  Te174  1  0.90263343  0.41636778  0.25675545  1
  Te  Te175  1  0.88757808  0.40415073  0.59067286  1
  Te  Te176  1  0.91669105  0.40244086  0.92180085  1
  Te  Te177  1  0.89604705  0.75790627  0.24757523  1
  Te  Te178  1  0.91901206  0.75583253  0.57809226  1
  Te  Te179  1  0.91779983  0.75528287  0.91989176  1
