# generated using pymatgen
data_In2Te3
_symmetry_space_group_name_H-M   'P 1'
_cell_length_a   18.96570594
_cell_length_b   19.02645359
_cell_length_c   18.97187984
_cell_angle_alpha   89.91644166
_cell_angle_beta   90.04803335
_cell_angle_gamma   90.16508333
_symmetry_Int_Tables_number   1
_chemical_formula_structural   In2Te3
_chemical_formula_sum   'In72 Te108'
_cell_volume   6845.96711148
_cell_formula_units_Z   36
loop_
 _symmetry_equiv_pos_site_id
 _symmetry_equiv_pos_as_xyz
  1  'x, y, z'
loop_
 _atom_site_type_symbol
 _atom_site_label
 _atom_site_symmetry_multiplicity
 _atom_site_fract_x
 _atom_site_fract_y
 _atom_site_fract_z
 _atom_site_occupancy
  In  In0  1  0.50908924  0.51374637  0.35223897  1
  In  In1  1  0.61468014  0.56308931  -0.04963320  1
  In  In2  1  0.50205512  0.34053275  0.16650984  1
  In  In3  1  0.34944952  0.81119262  0.50998670  1
  In  In4  1  0.69684701  0.67290227  0.67774798  1
  In  In5  1  -0.03155551  0.51090515  0.15671704  1
  In  In6  1  0.32139942  0.14765880  0.51671439  1
  In  In7  1  0.13070912  0.65132617  0.17298824  1
  In  In8  1  0.33257619  0.80067935  0.16287488  1
  In  In9  1  0.16675154  0.33030008  0.16768440  1
  In  In10  1  0.30850405  0.48981332  0.50092606  1
  In  In11  1  0.15059650  -0.00432707  0.16865185  1
  In  In12  1  0.16751519  0.69314527  0.53006221  1
  In  In13  1  0.01713255  0.15818423  0.16158052  1
  In  In14  1  0.82407185  0.34735279  0.82784592  1
  In  In15  1  0.30945671  0.32037735  0.34510520  1
  In  In16  1  0.35005966  0.48668755  0.82536308  1
  In  In17  1  0.15347007  0.52385251  -0.02322090  1
  In  In18  1  0.32817663  0.63924757  0.34400769  1
  In  In19  1  0.85564808  -0.02668498  0.16733207  1
  In  In20  1  0.83916483  0.82472752  0.68105623  1
  In  In21  1  0.50505413  0.83482683  0.67235311  1
  In  In22  1  0.67773608  0.52461049  0.52176143  1
  In  In23  1  0.30792862  -0.01303537  0.32887100  1
  In  In24  1  0.66497123  0.36122954  -0.02859483  1
  In  In25  1  0.32948800  0.32091936  0.00664120  1
  In  In26  1  0.31651531  0.67078894  -0.02398284  1
  In  In27  1  0.50516419  0.00728555  0.82004383  1
  In  In28  1  0.32236440  0.47089359  0.16372996  1
  In  In29  1  -0.03905537  0.81820951  0.12764472  1
  In  In30  1  0.16991768  0.47112352  0.66644147  1
  In  In31  1  0.70491610  0.51000258  0.19455952  1
  In  In32  1  0.48769520  0.49650726  0.64883683  1
  In  In33  1  0.68848378  0.83373319  0.46775917  1
  In  In34  1  0.50164431  0.17211608  0.66326363  1
  In  In35  1  0.83915880  0.01139207  0.48906415  1
  In  In36  1  0.02227578  0.14820502  0.48481566  1
  In  In37  1  -0.00369231  0.33393681  -0.00321363  1
  In  In38  1  -0.00672167  0.34631534  0.35587584  1
  In  In39  1  0.85711339  0.51375997  0.34773542  1
  In  In40  1  0.51521872  -0.00091313  0.14228373  1
  In  In41  1  -0.01427023  0.49219186  0.52768678  1
  In  In42  1  0.15956718  0.67457404  0.81947146  1
  In  In43  1  -0.01199052  0.83503159  0.53053058  1
  In  In44  1  0.67450933  0.31234901  0.35863327  1
  In  In45  1  -0.01733598  0.00704394  0.66425625  1
  In  In46  1  0.14591293  0.83929582  0.34611023  1
  In  In47  1  0.85260377  0.14882063  0.01317922  1
  In  In48  1  -0.00330890  0.52237186  0.79342531  1
  In  In49  1  0.30561595  0.69981442  0.65260950  1
  In  In50  1  0.51308558  0.66700073  0.49428473  1
  In  In51  1  0.15154671  0.85618558  -0.01848856  1
  In  In52  1  0.51800471  0.67809852  0.15969268  1
  In  In53  1  0.82900002  0.15548990  0.31425735  1
  In  In54  1  -0.01691368  0.19168397  0.84668398  1
  In  In55  1  0.71024886  -0.03517033  0.00448740  1
  In  In56  1  0.80986952  0.50982018  -0.00552940  1
  In  In57  1  0.48319405  0.14997268  -0.02906181  1
  In  In58  1  0.72025594  0.81944405  0.15218887  1
  In  In59  1  0.46745208  0.16999199  0.33450101  1
  In  In60  1  0.53303201  0.84638969  0.30793127  1
  In  In61  1  0.68211746  0.01091730  0.68569887  1
  In  In62  1  0.52550430  0.68773990  0.83857485  1
  In  In63  1  0.66949762  0.16105448  0.83297271  1
  In  In64  1  0.85359824  0.82778213  0.34224035  1
  In  In65  1  0.30065343  0.16627472  0.82556494  1
  In  In66  1  0.16666677  -0.01862301  0.79766051  1
  In  In67  1  0.67477184  0.16937888  0.51889907  1
  In  In68  1  0.15752359  0.17767903  0.64701108  1
  In  In69  1  0.63957483  0.17204354  0.15990977  1
  In  In70  1  0.35266765  -0.01131956  -0.01400746  1
  In  In71  1  0.83177203  0.33012618  0.52976238  1
  Te  Te72  1  0.07108787  0.06223278  0.06235020  1
  Te  Te73  1  0.13009000  0.09847371  0.39978265  1
  Te  Te74  1  0.07300150  0.09926022  0.75407829  1
  Te  Te75  1  0.08735735  0.43462417  0.08157002  1
  Te  Te76  1  0.08262909  0.40048213  0.45969272  1
  Te  Te77  1  0.09282201  0.41471404  0.77729059  1
  Te  Te78  1  0.08644751  0.74528056  0.06687019  1
  Te  Te79  1  0.06418362  0.74480950  0.43008756  1
  Te  Te80  1  0.07543218  0.75210791  0.72503633  1
  Te  Te81  1  0.40686653  0.08968026  0.08739041  1
  Te  Te82  1  0.40541932  0.06097082  0.41778476  1
  Te  Te83  1  0.40488105  0.08740572  0.74516731  1
  Te  Te84  1  0.42688734  0.42561547  0.06598877  1
  Te  Te85  1  0.40980654  0.41776158  0.41188154  1
  Te  Te86  1  0.41259854  0.39784107  0.72709995  1
  Te  Te87  1  0.42594091  0.74555596  0.05950550  1
  Te  Te88  1  0.42547023  0.74750402  0.39145042  1
  Te  Te89  1  0.41223981  0.74708174  0.75267463  1
  Te  Te90  1  0.74928175  0.07752299  0.10861250  1
  Te  Te91  1  0.73384044  0.08215846  0.40680658  1
  Te  Te92  1  0.77886233  0.08718699  0.76639300  1
  Te  Te93  1  0.74843614  0.40863502  0.08908985  1
  Te  Te94  1  0.75582998  0.42181907  0.42519471  1
  Te  Te95  1  0.71345211  0.43689942  0.79036528  1
  Te  Te96  1  0.76022064  0.71966087  0.05003538  1
  Te  Te97  1  0.79897365  0.74067147  0.45016009  1
  Te  Te98  1  0.75400552  0.75918232  0.78429067  1
  Te  Te99  1  0.07539117  0.25663749  0.26304630  1
  Te  Te100  1  0.07182661  0.26480371  0.56104810  1
  Te  Te101  1  0.09026586  0.24365506  0.93312947  1
  Te  Te102  1  0.05374948  0.56809621  0.26311197  1
  Te  Te103  1  0.09187742  0.58057103  0.59937895  1
  Te  Te104  1  0.05434579  0.61354955  0.90960391  1
  Te  Te105  1  0.06666611  0.88699414  0.22892225  1
  Te  Te106  1  0.07765328  0.94430574  0.57064143  1
  Te  Te107  1  0.06363797  0.90282865  0.87228705  1
  Te  Te108  1  0.39517138  0.25677805  0.23339124  1
  Te  Te109  1  0.41353322  0.24698693  0.57254541  1
  Te  Te110  1  0.40853109  0.25417394  0.89474135  1
  Te  Te111  1  0.41971841  0.57778958  0.23908748  1
  Te  Te112  1  0.39580360  0.60216610  0.56630480  1
  Te  Te113  1  0.42336645  0.58835374  0.91050770  1
  Te  Te114  1  0.41484265  0.91243492  0.23605919  1
  Te  Te115  1  0.40569147  0.91539696  0.59854121  1
  Te  Te116  1  0.44183492  0.90710674  0.90608046  1
  Te  Te117  1  0.74196280  0.25345295  0.23683586  1
  Te  Te118  1  0.72710610  0.26750218  0.61461466  1
  Te  Te119  1  0.75934259  0.24815010  0.93494585  1
  Te  Te120  1  0.79341924  0.61173881  0.25413681  1
  Te  Te121  1  0.78185833  0.56203344  0.62344219  1
  Te  Te122  1  0.74670617  0.56320272  0.86850538  1
  Te  Te123  1  0.75543567  0.91546506  0.26452627  1
  Te  Te124  1  0.76166512  0.92019485  0.58405263  1
  Te  Te125  1  0.77598635  0.88875840  0.89921807  1
  Te  Te126  1  0.23357043  0.23706068  0.07774837  1
  Te  Te127  1  0.22869591  0.21862743  0.41929217  1
  Te  Te128  1  0.23420074  0.26425325  0.73928748  1
  Te  Te129  1  0.25317451  0.58683253  0.08808668  1
  Te  Te130  1  0.21691347  0.58646955  0.42836512  1
  Te  Te131  1  0.25825658  0.58325396  0.74764445  1
  Te  Te132  1  0.25626177  0.90778685  0.08808426  1
  Te  Te133  1  0.24679021  0.90174428  0.43853406  1
  Te  Te134  1  0.27061315  0.91934263  0.71381680  1
  Te  Te135  1  0.56720014  0.25573470  0.05578627  1
  Te  Te136  1  0.56537709  0.23755849  0.42910353  1
  Te  Te137  1  0.59938634  0.25160779  0.74236062  1
  Te  Te138  1  0.59474659  0.56070135  0.10452117  1
  Te  Te139  1  0.61861481  0.60461587  0.40515389  1
  Te  Te140  1  0.57206581  0.59976217  0.72446458  1
  Te  Te141  1  0.60038201  0.89297385  0.08236552  1
  Te  Te142  1  0.57474382  0.91513171  0.42861039  1
  Te  Te143  1  0.60387331  0.90655256  0.76319769  1
  Te  Te144  1  0.91764797  0.25509386  0.09940976  1
  Te  Te145  1  0.89743533  0.24211722  0.41826578  1
  Te  Te146  1  0.91720068  0.27351000  0.74202274  1
  Te  Te147  1  0.89860349  0.60400459  0.06612157  1
  Te  Te148  1  0.90982336  0.59751384  0.45652193  1
  Te  Te149  1  0.89317608  0.60127409  0.72783982  1
  Te  Te150  1  0.94657581  0.94991324  0.05075371  1
  Te  Te151  1  0.94025476  0.92905113  0.41584366  1
  Te  Te152  1  0.92960108  0.90960214  0.76317393  1
  Te  Te153  1  0.22412415  0.08805187  0.25982828  1
  Te  Te154  1  0.23685290  0.06090717  0.60280851  1
  Te  Te155  1  0.24118158  0.05753392  0.91249733  1
  Te  Te156  1  0.22831439  0.42740372  0.27159186  1
  Te  Te157  1  0.26501463  0.38515924  0.59395067  1
  Te  Te158  1  0.24972200  0.42289117  0.92183731  1
  Te  Te159  1  0.23687339  0.73834395  0.26254265  1
  Te  Te160  1  0.19133957  0.80838399  0.63952181  1
  Te  Te161  1  0.24717986  0.77597609  0.89365008  1
  Te  Te162  1  0.56881305  0.08130287  0.25740222  1
  Te  Te163  1  0.58346378  0.06819258  0.58743050  1
  Te  Te164  1  0.60513629  0.06622459  0.93597737  1
  Te  Te165  1  0.58896867  0.41123440  0.26930094  1
  Te  Te166  1  0.57725420  0.42558643  0.55722811  1
  Te  Te167  1  0.57262973  0.43453612  0.88367918  1
  Te  Te168  1  0.62191827  0.74246520  0.24836422  1
  Te  Te169  1  0.60090693  0.75586667  0.58065371  1
  Te  Te170  1  0.62092119  0.71192833  0.95055716  1
  Te  Te171  1  0.93704635  0.06876636  0.25575357  1
  Te  Te172  1  0.90664348  0.10887205  0.58089220  1
  Te  Te173  1  0.89619648  0.07922756  0.89177222  1
  Te  Te174  1  0.90419032  0.40758005  0.25040199  1
  Te  Te175  1  0.91515817  0.40485006  0.62608901  1
  Te  Te176  1  0.92172274  0.43507916  0.91405126  1
  Te  Te177  1  0.90820182  0.73461513  0.24092770  1
  Te  Te178  1  0.94755557  0.72817766  0.63287100  1
  Te  Te179  1  0.87096398  0.81375212  0.99712163  1
