# generated using pymatgen
data_In2Te3
_symmetry_space_group_name_H-M   'P 1'
_cell_length_a   18.99433443
_cell_length_b   18.97737359
_cell_length_c   18.95633428
_cell_angle_alpha   89.90714935
_cell_angle_beta   89.90264038
_cell_angle_gamma   90.30223523
_symmetry_Int_Tables_number   1
_chemical_formula_structural   In2Te3
_chemical_formula_sum   'In72 Te108'
_cell_volume   6832.93516552
_cell_formula_units_Z   36
loop_
 _symmetry_equiv_pos_site_id
 _symmetry_equiv_pos_as_xyz
  1  'x, y, z'
loop_
 _atom_site_type_symbol
 _atom_site_label
 _atom_site_symmetry_multiplicity
 _atom_site_fract_x
 _atom_site_fract_y
 _atom_site_fract_z
 _atom_site_occupancy
  In  In0  1  0.67711168  0.84445134  0.84647198  1
  In  In1  1  0.14628752  0.33779144  0.15984725  1
  In  In2  1  0.69110688  0.63861739  0.03664562  1
  In  In3  1  0.66650333  0.81465937  0.52052491  1
  In  In4  1  0.32452700  0.82047901  0.49090081  1
  In  In5  1  0.66733623  -0.00674886  0.63414007  1
  In  In6  1  0.85666885  -0.00668236  0.48540218  1
  In  In7  1  0.00319212  0.01398573  -0.00827905  1
  In  In8  1  0.82759532  0.49883725  0.31208263  1
  In  In9  1  0.49793091  0.84599029  0.02829125  1
  In  In10  1  0.34191011  0.34631591  -0.01422679  1
  In  In11  1  0.81038056  0.16620007  0.33874587  1
  In  In12  1  0.13876322  0.56271320  0.32435821  1
  In  In13  1  0.00093893  0.36376900  -0.02323686  1
  In  In14  1  0.16600552  0.16318507  0.35058523  1
  In  In15  1  0.66066654  0.67087036  0.68267200  1
  In  In16  1  0.31961086  -0.03350283  0.00317855  1
  In  In17  1  -0.00790217  0.00540111  0.35379119  1
  In  In18  1  0.03288589  0.80576334  0.86821611  1
  In  In19  1  0.86840219  0.19170022  -0.00136476  1
  In  In20  1  0.32109103  0.51392993  0.82562028  1
  In  In21  1  -0.03140245  0.33881731  0.32006710  1
  In  In22  1  0.52346587  0.29283340  0.19267012  1
  In  In23  1  0.50908113  0.79798595  0.66687155  1
  In  In24  1  -0.00435205  0.16430204  0.50370577  1
  In  In25  1  0.16512641  0.00561425  0.81901235  1
  In  In26  1  0.84900033  0.66121836  0.16624187  1
  In  In27  1  0.79972844  0.18355536  0.63319188  1
  In  In28  1  0.65903971  0.49448805  0.49583877  1
  In  In29  1  0.15792883  0.18173726  -0.01465384  1
  In  In30  1  0.83165725  0.48069353  0.05206767  1
  In  In31  1  0.15631628  0.53614469  -0.03754785  1
  In  In32  1  0.83690831  -0.00169397  0.80126838  1
  In  In33  1  0.16644583  0.82238034  0.34289544  1
  In  In34  1  0.86238998  0.33336658  0.80949020  1
  In  In35  1  0.32947384  0.17678975  0.81417055  1
  In  In36  1  0.35325748  0.68625287  -0.00841347  1
  In  In37  1  0.68713168  0.48993416  0.81929055  1
  In  In38  1  0.85275666  -0.00229230  0.16740731  1
  In  In39  1  0.18047468  0.16745785  0.64258127  1
  In  In40  1  0.85013184  0.49444308  0.67387568  1
  In  In41  1  0.67243375  0.81869226  0.19006930  1
  In  In42  1  0.51920746  0.33602667  0.49844679  1
  In  In43  1  0.82309561  0.85028348  0.35168848  1
  In  In44  1  0.46894237  0.85997015  0.30507604  1
  In  In45  1  0.31730217  0.32767110  0.65111134  1
  In  In46  1  0.29936479  0.83380879  0.81646427  1
  In  In47  1  -0.01240297  0.49759881  0.50382489  1
  In  In48  1  0.54581175  0.14246713  0.08731370  1
  In  In49  1  0.51042992  0.65223280  0.85665465  1
  In  In50  1  0.15841574  0.63729783  0.50248905  1
  In  In51  1  0.49256260  0.01842473  0.82109084  1
  In  In52  1  0.85421206  0.67501062  0.50982434  1
  In  In53  1  0.34277313  0.16197124  0.17461431  1
  In  In54  1  0.68575838  -0.00226650  0.01374589  1
  In  In55  1  0.02550091  0.80585618  0.16368879  1
  In  In56  1  0.31509574  0.67294130  0.31885936  1
  In  In57  1  0.94433099  0.83973276  0.64748639  1
  In  In58  1  0.48312824  0.15317019  0.68161815  1
  In  In59  1  0.16831423  0.36282162  0.49094726  1
  In  In60  1  0.68412635  0.34130803  0.34401967  1
  In  In61  1  0.67020259  0.17851914  0.85937992  1
  In  In62  1  0.32262816  0.49046124  0.14717687  1
  In  In63  1  0.46516940  -0.01704120  0.48695223  1
  In  In64  1  0.62213251  0.02471826  0.33579510  1
  In  In65  1  0.55363225  0.48342229  0.02931296  1
  In  In66  1  0.35296986  0.33156597  0.33603251  1
  In  In67  1  0.48502337  0.50413234  0.35129653  1
  In  In68  1  0.31352143  0.67795524  0.64731011  1
  In  In69  1  0.16592167  -0.00410916  0.14461538  1
  In  In70  1  0.85488442  0.68244578  0.82335029  1
  In  In71  1  0.48102744  0.33160021  0.81905879  1
  Te  Te72  1  0.07640619  0.10592407  0.08847937  1
  Te  Te73  1  0.09694173  0.06726807  0.44668845  1
  Te  Te74  1  0.08905532  0.08965922  0.72790331  1
  Te  Te75  1  0.09372043  0.44571218  0.07252355  1
  Te  Te76  1  0.07721477  0.43033674  0.38733934  1
  Te  Te77  1  0.00367655  0.39179609  0.82473809  1
  Te  Te78  1  0.05661208  0.69640280  0.06913126  1
  Te  Te79  1  0.08624805  0.70057391  0.38525899  1
  Te  Te80  1  0.11138458  0.71793980  0.77795193  1
  Te  Te81  1  0.41627339  0.05308682  0.09553087  1
  Te  Te82  1  0.34798720  0.06036099  0.44378986  1
  Te  Te83  1  0.37315725  0.05547588  0.73128709  1
  Te  Te84  1  0.42967225  0.39269834  0.10083701  1
  Te  Te85  1  0.40317082  0.42111293  0.44745890  1
  Te  Te86  1  0.40350285  0.42688917  0.73308822  1
  Te  Te87  1  0.42358205  0.74684671  0.10565602  1
  Te  Te88  1  0.41873467  0.74709807  0.40044124  1
  Te  Te89  1  0.41702059  0.73551790  0.77051083  1
  Te  Te90  1  0.77721160  0.09667457  0.08146763  1
  Te  Te91  1  0.73818145  0.06854391  0.43003951  1
  Te  Te92  1  0.71983412  0.07925983  0.74923374  1
  Te  Te93  1  0.69451284  0.43617828  0.07341661  1
  Te  Te94  1  0.77535816  0.42216897  0.43398110  1
  Te  Te95  1  0.74682282  0.39286032  0.72220796  1
  Te  Te96  1  0.76083262  0.76360620  0.08276280  1
  Te  Te97  1  0.74782074  0.73715472  0.41846376  1
  Te  Te98  1  0.75789945  0.77072084  0.74194167  1
  Te  Te99  1  0.07721754  0.24768611  0.26112829  1
  Te  Te100  1  0.08443326  0.26592416  0.57371342  1
  Te  Te101  1  0.06379232  0.24975789  0.89750150  1
  Te  Te102  1  0.08364239  0.63844545  0.21076515  1
  Te  Te103  1  0.09735684  0.53923156  0.59633693  1
  Te  Te104  1  0.06305336  0.60348324  0.86679822  1
  Te  Te105  1  0.07652389  0.92405570  0.25573295  1
  Te  Te106  1  0.03534162  0.91251601  0.55897263  1
  Te  Te107  1  0.10726522  0.92276264  0.93335223  1
  Te  Te108  1  0.43067213  0.21188207  0.28704257  1
  Te  Te109  1  0.42173418  0.24655828  0.57973186  1
  Te  Te110  1  0.42182320  0.23469249  0.92099047  1
  Te  Te111  1  0.40379186  0.57502760  0.24373056  1
  Te  Te112  1  0.43041565  0.62074291  0.58655346  1
  Te  Te113  1  0.42023022  0.55578726  0.93274183  1
  Te  Te114  1  0.42048287  0.97204417  0.23029213  1
  Te  Te115  1  0.41259345  0.88882917  0.59597168  1
  Te  Te116  1  0.41860210  0.90768877  0.90488134  1
  Te  Te117  1  0.76610513  0.26986230  0.24605402  1
  Te  Te118  1  0.69928064  0.22715032  0.54032473  1
  Te  Te119  1  0.76820611  0.27328299  0.91943331  1
  Te  Te120  1  0.74152754  0.59036490  0.23673944  1
  Te  Te121  1  0.75578381  0.59175704  0.59436922  1
  Te  Te122  1  0.73747745  0.61076686  0.89714074  1
  Te  Te123  1  0.74530265  0.94382689  0.26208865  1
  Te  Te124  1  0.77556035  0.89962759  0.58353510  1
  Te  Te125  1  0.78056113  0.92318134  0.92368236  1
  Te  Te126  1  0.25759160  0.25387217  0.08634896  1
  Te  Te127  1  0.25596867  0.25642832  0.42822035  1
  Te  Te128  1  0.22675235  0.26640312  0.75671388  1
  Te  Te129  1  0.25085398  0.59515594  0.06814252  1
  Te  Te130  1  0.26061629  0.56908560  0.41510430  1
  Te  Te131  1  0.23299639  0.61031115  0.75453839  1
  Te  Te132  1  0.24588435  0.88015240  0.09823036  1
  Te  Te133  1  0.25545613  0.92318639  0.40841693  1
  Te  Te134  1  0.21179546  0.90402537  0.72404320  1
  Te  Te135  1  0.61077932  0.27311096  0.07377139  1
  Te  Te136  1  0.60176241  0.23936381  0.42015707  1
  Te  Te137  1  0.58422801  0.24310996  0.75086247  1
  Te  Te138  1  0.56353337  0.60991702  0.10197303  1
  Te  Te139  1  0.59976442  0.58296542  0.39633939  1
  Te  Te140  1  0.57376166  0.56685138  0.74959650  1
  Te  Te141  1  0.59624113  0.92489320  0.11164400  1
  Te  Te142  1  0.58651007  0.90421773  0.42844244  1
  Te  Te143  1  0.58396084  0.91315340  0.74469708  1
  Te  Te144  1  0.93121042  0.29018065  0.08622969  1
  Te  Te145  1  0.90111276  0.25258087  0.42662287  1
  Te  Te146  1  0.90623924  0.21962386  0.72508470  1
  Te  Te147  1  0.92716526  0.59558872  0.05631253  1
  Te  Te148  1  0.91574862  0.58565453  0.40391724  1
  Te  Te149  1  0.94118740  0.59326781  0.74080005  1
  Te  Te150  1  0.94054879  0.91046795  0.08387295  1
  Te  Te151  1  0.95133276  0.87501826  0.43732932  1
  Te  Te152  1  0.95661630  0.90898588  0.77873353  1
  Te  Te153  1  0.24097255  0.07741444  0.24867271  1
  Te  Te154  1  0.29047024  0.09023469  0.58467210  1
  Te  Te155  1  0.26285743  0.08721300  0.92795243  1
  Te  Te156  1  0.25045476  0.40429733  0.25023226  1
  Te  Te157  1  0.23529623  0.44007925  0.59933708  1
  Te  Te158  1  0.23587637  0.41471686  0.90575290  1
  Te  Te159  1  0.25098689  0.77313586  0.23115790  1
  Te  Te160  1  0.21051573  0.76060170  0.57263023  1
  Te  Te161  1  0.24143909  0.75277681  0.92412192  1
  Te  Te162  1  0.60653840  0.12177222  0.22794081  1
  Te  Te163  1  0.55506027  0.07213563  0.57381285  1
  Te  Te164  1  0.58113973  0.07702617  0.93518369  1
  Te  Te165  1  0.57558271  0.41346540  0.26671939  1
  Te  Te166  1  0.57849410  0.42649232  0.59674508  1
  Te  Te167  1  0.58436783  0.41001003  0.89864835  1
  Te  Te168  1  0.57013548  0.75842330  0.27502853  1
  Te  Te169  1  0.56174511  0.70157316  0.56055467  1
  Te  Te170  1  0.58490521  0.76156167  0.93343520  1
  Te  Te171  1  0.92277721  0.09749324  0.25728515  1
  Te  Te172  1  0.91062419  0.07906011  0.59725862  1
  Te  Te173  1  0.91651293  0.09138749  0.89564053  1
  Te  Te174  1  0.92053315  0.43278180  0.21670734  1
  Te  Te175  1  0.92468895  0.39871822  0.59202689  1
  Te  Te176  1  0.88458734  0.45436916  0.91209495  1
  Te  Te177  1  0.90863503  0.76874345  0.25491426  1
  Te  Te178  1  0.96661201  0.70196901  0.60308768  1
  Te  Te179  1  0.91253940  0.75572883  0.93679522  1
