# generated using pymatgen
data_In2Te3
_symmetry_space_group_name_H-M   'P 1'
_cell_length_a   18.92202203
_cell_length_b   18.93375464
_cell_length_c   18.93589563
_cell_angle_alpha   89.97332860
_cell_angle_beta   89.99179543
_cell_angle_gamma   89.90825784
_symmetry_Int_Tables_number   1
_chemical_formula_structural   In2Te3
_chemical_formula_sum   'In72 Te108'
_cell_volume   6784.05768133
_cell_formula_units_Z   36
loop_
 _symmetry_equiv_pos_site_id
 _symmetry_equiv_pos_as_xyz
  1  'x, y, z'
loop_
 _atom_site_type_symbol
 _atom_site_label
 _atom_site_symmetry_multiplicity
 _atom_site_fract_x
 _atom_site_fract_y
 _atom_site_fract_z
 _atom_site_occupancy
  In  In0  1  0.84083452  0.48746517  0.34732170  1
  In  In1  1  0.50420668  0.47692668  0.67716660  1
  In  In2  1  0.68589866  0.48579264  0.18990286  1
  In  In3  1  0.84057547  0.83705110  -0.01658817  1
  In  In4  1  -0.03222544  -0.02380567  0.66274771  1
  In  In5  1  0.51558290  0.47821825  0.32610549  1
  In  In6  1  0.01336628  0.01440303  0.30769032  1
  In  In7  1  0.15922599  0.15764971  0.65404035  1
  In  In8  1  0.69971559  0.19190000  0.18704966  1
  In  In9  1  0.34330282  0.64951912  0.35077460  1
  In  In10  1  0.33595390  0.18502764  0.83034268  1
  In  In11  1  0.82377156  0.15709253  -0.01277125  1
  In  In12  1  0.68994120  0.02420714  0.65550417  1
  In  In13  1  0.31878919  0.66457706  -0.00821387  1
  In  In14  1  -0.01464044  0.00106666  -0.00039710  1
  In  In15  1  0.15195946  0.83754571  0.31711172  1
  In  In16  1  0.34503495  0.65789065  0.68345969  1
  In  In17  1  0.17725792  0.33020810  0.47800850  1
  In  In18  1  0.66279400  0.13777286  0.83594800  1
  In  In19  1  0.16605709  0.82265289  0.00000839  1
  In  In20  1  -0.00555083  0.33017575  0.67410873  1
  In  In21  1  0.68152408  0.48242092  0.50156458  1
  In  In22  1  0.17288753  -0.01297224  0.81162141  1
  In  In23  1  0.51135883  0.65741037  0.50593962  1
  In  In24  1  0.34006522  0.01244254  0.00330774  1
  In  In25  1  -0.02761142  0.30337887  0.36310870  1
  In  In26  1  0.82275055  0.80034574  0.70530018  1
  In  In27  1  0.83577039  0.34151825  0.83681980  1
  In  In28  1  0.51261734  0.66061682  0.86883051  1
  In  In29  1  0.15045571  0.34412946  0.83858566  1
  In  In30  1  0.66983775  0.51014862  0.83613105  1
  In  In31  1  0.33238183  0.47913756  0.17354879  1
  In  In32  1  0.50328310  0.16170788  0.64953310  1
  In  In33  1  0.16531889  0.47960193  0.66643792  1
  In  In34  1  0.66823738  0.35337047  0.02687569  1
  In  In35  1  0.82511106  0.01741355  0.49607353  1
  In  In36  1  0.15227880  0.69823327  0.14780162  1
  In  In37  1  0.15601789  0.19484558  0.00293145  1
  In  In38  1  0.80513588  0.68221140  0.48328925  1
  In  In39  1  0.18649214  0.51079559  0.31001813  1
  In  In40  1  0.48397033  0.32834744  0.50395804  1
  In  In41  1  0.68288681  -0.01124734  -0.00819511  1
  In  In42  1  0.18074218  0.17154899  0.33283311  1
  In  In43  1  0.35773085  0.82633023  0.50357419  1
  In  In44  1  0.83568729  0.67087247  0.16045756  1
  In  In45  1  0.16723296  0.50741886  -0.02959977  1
  In  In46  1  0.47146351  0.18556006  0.31744334  1
  In  In47  1  0.18809228  0.82542535  0.66475115  1
  In  In48  1  0.50656756  -0.00515949  0.84515212  1
  In  In49  1  0.34702704  0.83614212  0.15527043  1
  In  In50  1  0.15340496  0.67020631  0.82286921  1
  In  In51  1  0.51845938  0.83235947  -0.00448129  1
  In  In52  1  -0.01742047  0.50428482  0.17733978  1
  In  In53  1  0.03095086  0.47980688  0.51964363  1
  In  In54  1  0.66735407  0.66740181  -0.00417978  1
  In  In55  1  0.49909077  0.01717220  0.15183698  1
  In  In56  1  -0.02659120  0.67568903  0.34386890  1
  In  In57  1  0.82554973  0.84415266  0.34296397  1
  In  In58  1  0.18331903  0.33763166  0.17168752  1
  In  In59  1  0.67393874  0.18099571  0.49913611  1
  In  In60  1  0.65977567  -0.00798875  0.34662973  1
  In  In61  1  0.18121152  0.01453591  0.48340265  1
  In  In62  1  -0.00382438  0.66111181  0.67720073  1
  In  In63  1  0.01821315  0.82362567  0.49366526  1
  In  In64  1  0.84177449  0.50486883  0.67557895  1
  In  In65  1  0.34139586  0.01503521  0.31552496  1
  In  In66  1  0.50972318  0.31577250  0.82014320  1
  In  In67  1  0.50585391  0.83689090  0.66793466  1
  In  In68  1  0.00463856  0.33401434  -0.00544583  1
  In  In69  1  -0.02387693  0.17514583  0.16158003  1
  In  In70  1  0.65787346  0.85103311  0.49872365  1
  In  In71  1  0.47844654  0.50689385  0.02108285  1
  Te  Te72  1  0.07720884  0.09418618  0.08360517  1
  Te  Te73  1  0.07390640  0.09843676  0.41815775  1
  Te  Te74  1  0.06902727  0.06884216  0.73782258  1
  Te  Te75  1  0.08963084  0.42660304  0.08992453  1
  Te  Te76  1  0.08207095  0.42179852  0.38650991  1
  Te  Te77  1  0.05653556  0.43637971  0.76324387  1
  Te  Te78  1  0.04083904  0.76193835  0.06291754  1
  Te  Te79  1  0.10214931  0.72915787  0.41213146  1
  Te  Te80  1  0.07107214  0.77292683  0.74802184  1
  Te  Te81  1  0.39488668  0.10829346  0.10125508  1
  Te  Te82  1  0.39812791  0.10451754  0.41820741  1
  Te  Te83  1  0.42387426  0.08476911  0.75559354  1
  Te  Te84  1  0.42439973  0.39117417  0.09715600  1
  Te  Te85  1  0.41499864  0.42979924  0.42077796  1
  Te  Te86  1  0.40816989  0.40063928  0.75640416  1
  Te  Te87  1  0.43242696  0.72645039  0.07768893  1
  Te  Te88  1  0.44396093  0.74951140  0.40501496  1
  Te  Te89  1  0.43235971  0.74739051  0.76697839  1
  Te  Te90  1  0.75161092  0.07759153  0.09363464  1
  Te  Te91  1  0.75375156  0.10052420  0.39308251  1
  Te  Te92  1  0.77480521  0.10121990  0.74730430  1
  Te  Te93  1  0.77092585  0.44730999  0.07579078  1
  Te  Te94  1  0.73994384  0.38771177  0.39809149  1
  Te  Te95  1  0.74007121  0.41452840  0.74157582  1
  Te  Te96  1  0.74258330  0.76319358  0.08346077  1
  Te  Te97  1  0.70994164  0.75542918  0.39141629  1
  Te  Te98  1  0.73427881  0.72619208  0.79350753  1
  Te  Te99  1  0.07983116  0.25614443  0.24649993  1
  Te  Te100  1  0.07926914  0.25771825  0.57153639  1
  Te  Te101  1  0.06030490  0.23524602  0.89287639  1
  Te  Te102  1  0.07632207  0.60449188  0.24721850  1
  Te  Te103  1  0.09929267  0.59693634  0.58799223  1
  Te  Te104  1  0.06927164  0.60930680  0.92920638  1
  Te  Te105  1  0.07383363  0.91329621  0.22051458  1
  Te  Te106  1  0.09331596  0.92155954  0.58113636  1
  Te  Te107  1  0.08433049  0.91804377  0.91303181  1
  Te  Te108  1  0.38538716  0.27560033  0.24002716  1
  Te  Te109  1  0.40237082  0.25824843  0.60483095  1
  Te  Te110  1  0.43742412  0.23821311  0.92124841  1
  Te  Te111  1  0.42561988  0.58201899  0.23980243  1
  Te  Te112  1  0.41955660  0.56816257  0.58602271  1
  Te  Te113  1  0.39734605  0.56575636  0.90657012  1
  Te  Te114  1  0.43466184  0.91478246  0.24901214  1
  Te  Te115  1  0.41704499  0.92636858  0.59184976  1
  Te  Te116  1  0.40897447  0.90485626  0.91885309  1
  Te  Te117  1  0.75950689  0.29448942  0.27261436  1
  Te  Te118  1  0.78671257  0.23200353  0.57779828  1
  Te  Te119  1  0.72391421  0.25760246  0.91708484  1
  Te  Te120  1  0.76094109  0.59201462  0.26883288  1
  Te  Te121  1  0.74539452  0.59105030  0.58872383  1
  Te  Te122  1  0.76634452  0.60431038  0.90100770  1
  Te  Te123  1  0.73692352  0.91326717  0.24938108  1
  Te  Te124  1  0.76740923  0.90241098  0.59065457  1
  Te  Te125  1  0.77228186  0.93112587  0.88817903  1
  Te  Te126  1  0.26412587  0.24337066  0.09098493  1
  Te  Te127  1  0.27184641  0.22071836  0.43839676  1
  Te  Te128  1  0.23252965  0.25725106  0.74415682  1
  Te  Te129  1  0.24458395  0.58116743  0.09697526  1
  Te  Te130  1  0.25225088  0.56606539  0.42840250  1
  Te  Te131  1  0.24756293  0.56918822  0.75992492  1
  Te  Te132  1  0.24416585  0.92192361  0.08476579  1
  Te  Te133  1  0.25615867  0.90229304  0.40678760  1
  Te  Te134  1  0.27708141  0.92102013  0.73062773  1
  Te  Te135  1  0.59165313  0.25578971  0.10823089  1
  Te  Te136  1  0.57562812  0.25258170  0.40919448  1
  Te  Te137  1  0.60518902  0.23465839  0.73325076  1
  Te  Te138  1  0.59115843  0.58150636  0.09705440  1
  Te  Te139  1  0.59755746  0.57406566  0.41233036  1
  Te  Te140  1  0.57564099  0.59121986  0.74863133  1
  Te  Te141  1  0.59508216  0.91248133  0.09523645  1
  Te  Te142  1  0.55500714  0.92692017  0.42778833  1
  Te  Te143  1  0.59818332  0.93424264  0.74125015  1
  Te  Te144  1  0.89299848  0.26318678  0.07095379  1
  Te  Te145  1  0.89378752  0.23754878  0.47067628  1
  Te  Te146  1  0.90449817  0.24247529  0.75158039  1
  Te  Te147  1  0.90381917  0.57225626  0.07432756  1
  Te  Te148  1  0.91540301  0.57693303  0.44777393  1
  Te  Te149  1  0.90306732  0.59968557  0.77059853  1
  Te  Te150  1  0.88549920  0.93502581  0.08459128  1
  Te  Te151  1  0.93008359  0.92486987  0.42317509  1
  Te  Te152  1  0.89803473  0.90705882  0.77466857  1
  Te  Te153  1  0.23357424  0.07377459  0.23741200  1
  Te  Te154  1  0.26211360  0.07396482  0.58972558  1
  Te  Te155  1  0.23731650  0.09043353  0.91219134  1
  Te  Te156  1  0.28412125  0.38580011  0.28608239  1
  Te  Te157  1  0.25474057  0.41262966  0.57174696  1
  Te  Te158  1  0.24769085  0.39072561  0.93828350  1
  Te  Te159  1  0.26481446  0.74331239  0.24953091  1
  Te  Te160  1  0.26456042  0.72999598  0.57572622  1
  Te  Te161  1  0.25448005  0.75992572  0.89350877  1
  Te  Te162  1  0.58049952  0.09466568  0.25224417  1
  Te  Te163  1  0.58512699  0.07133524  0.55708635  1
  Te  Te164  1  0.57210434  0.08493405  0.94729021  1
  Te  Te165  1  0.57375800  0.39174674  0.22038077  1
  Te  Te166  1  0.59498902  0.39368417  0.58861524  1
  Te  Te167  1  0.57627714  0.42914433  0.92130809  1
  Te  Te168  1  0.52861417  0.69330329  0.19156790  1
  Te  Te169  1  0.59969797  0.74528851  0.59227207  1
  Te  Te170  1  0.61714266  0.77560013  0.89150054  1
  Te  Te171  1  0.90142698  0.09651631  0.26006672  1
  Te  Te172  1  0.91883504  0.09182004  0.58272563  1
  Te  Te173  1  0.91774613  0.08739539  0.90069735  1
  Te  Te174  1  0.91246119  0.39140603  0.24933025  1
  Te  Te175  1  0.90672188  0.41389987  0.57315917  1
  Te  Te176  1  0.92356086  0.42758594  0.91615242  1
  Te  Te177  1  0.91819334  0.77171506  0.24457774  1
  Te  Te178  1  0.91423235  0.74994563  0.57812710  1
  Te  Te179  1  0.94903442  0.74310165  0.94518416  1
