# generated using pymatgen
data_In2Te3
_symmetry_space_group_name_H-M   'P 1'
_cell_length_a   18.75466708
_cell_length_b   18.75079305
_cell_length_c   18.75842571
_cell_angle_alpha   90.02851977
_cell_angle_beta   90.09470047
_cell_angle_gamma   89.97773268
_symmetry_Int_Tables_number   1
_chemical_formula_structural   In2Te3
_chemical_formula_sum   'In72 Te108'
_cell_volume   6596.66922179
_cell_formula_units_Z   36
loop_
 _symmetry_equiv_pos_site_id
 _symmetry_equiv_pos_as_xyz
  1  'x, y, z'
loop_
 _atom_site_type_symbol
 _atom_site_label
 _atom_site_symmetry_multiplicity
 _atom_site_fract_x
 _atom_site_fract_y
 _atom_site_fract_z
 _atom_site_occupancy
  In  In0  1  0.83241070  0.83159955  0.34650377  1
  In  In1  1  0.15717544  0.01051348  0.49410245  1
  In  In2  1  0.51491230  0.33812964  0.17124808  1
  In  In3  1  0.52426091  0.81151094  0.65420432  1
  In  In4  1  0.15552711  0.66124698  0.16431052  1
  In  In5  1  0.15168085  0.85615814  0.35512547  1
  In  In6  1  0.47585328  0.31777632  0.82140557  1
  In  In7  1  -0.02204733  0.32117282  0.31000174  1
  In  In8  1  0.49194606  0.01079645  0.15383744  1
  In  In9  1  0.16656275  0.51045147  0.33404042  1
  In  In10  1  0.15645587  0.84930138  -0.00858647  1
  In  In11  1  0.16031928  0.49317509  0.65996833  1
  In  In12  1  0.31262222  0.83934169  0.82471320  1
  In  In13  1  0.15253112  0.14821516  0.66715884  1
  In  In14  1  0.67125108  0.15821952  0.84062529  1
  In  In15  1  0.70556162  0.14097320  0.14649596  1
  In  In16  1  0.84975415  0.84128496  -0.01449434  1
  In  In17  1  0.67392601  0.64858903  -0.00573226  1
  In  In18  1  0.31397652  0.16066740  0.84013501  1
  In  In19  1  0.68412691  0.66966300  0.65315825  1
  In  In20  1  0.69372991  -0.00411757  0.66006236  1
  In  In21  1  0.50224368  0.66230105  0.82955594  1
  In  In22  1  0.52081664  0.51417492  0.62128684  1
  In  In23  1  0.32037936  0.82819102  0.16118061  1
  In  In24  1  0.48900292  0.83538850  0.01332116  1
  In  In25  1  0.51146784  0.01393564  0.85175740  1
  In  In26  1  0.15768351  0.68483141  0.83530941  1
  In  In27  1  0.68560027  -0.00844133  0.33920429  1
  In  In28  1  0.83099001  -0.00279016  0.49990007  1
  In  In29  1  -0.01205394  0.01602947  0.32732668  1
  In  In30  1  0.50449789  -0.00129994  0.49879526  1
  In  In31  1  0.34241219  0.50874903  0.83171118  1
  In  In32  1  0.32366433  0.34816395  0.34888841  1
  In  In33  1  -0.00971896  0.50607458  0.50837747  1
  In  In34  1  0.68057434  0.32760068  0.01704887  1
  In  In35  1  0.70547123  0.30772965  0.62198889  1
  In  In36  1  -0.01556243  0.67831200  0.66576582  1
  In  In37  1  0.84283805  0.15667983  0.34112488  1
  In  In38  1  0.13909190  0.31072902  0.86477902  1
  In  In39  1  0.49719299  0.18629954  0.65910508  1
  In  In40  1  0.81553591  0.49461252  0.00175371  1
  In  In41  1  -0.02695194  0.33228524  0.65946979  1
  In  In42  1  0.15528121  0.15460772  0.00334945  1
  In  In43  1  -0.00599139  0.00087963  0.66159865  1
  In  In44  1  0.51681771  0.18432895  0.34334620  1
  In  In45  1  0.31855683  -0.00092854  0.32783344  1
  In  In46  1  0.67280080  0.83836346  0.19377701  1
  In  In47  1  0.83888892  0.32360956  0.83004883  1
  In  In48  1  -0.01824199  0.51819662  0.82836861  1
  In  In49  1  0.33635301  0.32229092  0.64339015  1
  In  In50  1  0.82780841  0.65328746  0.17582695  1
  In  In51  1  0.70566440  0.33984286  0.36411365  1
  In  In52  1  0.83567721  0.65804820  0.49546829  1
  In  In53  1  0.32486864  0.31465353  -0.00945998  1
  In  In54  1  0.67913244  0.50101493  0.16652676  1
  In  In55  1  0.00287810  -0.00399409  0.00252670  1
  In  In56  1  0.69937730  0.83929645  0.82633222  1
  In  In57  1  0.15940799  0.00394297  0.17144105  1
  In  In58  1  -0.01043550  0.67639696  -0.00596477  1
  In  In59  1  0.01067792  0.67930923  0.34293863  1
  In  In60  1  0.50628617  0.50096249  -0.00315046  1
  In  In61  1  0.33947393  0.66283017  0.35044156  1
  In  In62  1  0.13237342  0.46079886  0.03668010  1
  In  In63  1  0.17110659  0.33285215  0.50854414  1
  In  In64  1  0.31980404  0.50652789  0.18806489  1
  In  In65  1  0.31277676  0.15072305  0.16989490  1
  In  In66  1  0.51352188  0.81494066  0.34634652  1
  In  In67  1  0.31319166  -0.01114332  0.66535973  1
  In  In68  1  0.70545781  0.49577717  0.84436586  1
  In  In69  1  0.85193167  0.00221358  0.82468303  1
  In  In70  1  0.51829677  0.52213140  0.37318792  1
  In  In71  1  0.30495657  0.69457588  0.62184169  1
  Te  Te72  1  0.05861027  0.10100363  0.11053591  1
  Te  Te73  1  0.07065420  0.10145324  0.41610434  1
  Te  Te74  1  0.06665625  0.08220890  0.76584448  1
  Te  Te75  1  0.03630531  0.37588507  0.12829795  1
  Te  Te76  1  0.07599328  0.41447055  0.41728996  1
  Te  Te77  1  0.07778760  0.40900896  0.75579810  1
  Te  Te78  1  0.07271726  0.76401184  0.08797999  1
  Te  Te79  1  0.09751503  0.74809380  0.44401132  1
  Te  Te80  1  0.07989394  0.76597037  0.74156458  1
  Te  Te81  1  0.39615828  0.08295145  0.06808813  1
  Te  Te82  1  0.41660287  0.08689519  0.40956669  1
  Te  Te83  1  0.41703714  0.08553826  0.74494825  1
  Te  Te84  1  0.41137808  0.41316599  0.08109573  1
  Te  Te85  1  0.42252876  0.42381955  0.42874187  1
  Te  Te86  1  0.42638695  0.43075560  0.73031810  1
  Te  Te87  1  0.42170024  0.73915876  0.10207787  1
  Te  Te88  1  0.41499281  0.75488128  0.43959081  1
  Te  Te89  1  0.40754635  0.74620556  0.74305084  1
  Te  Te90  1  0.77331999  0.06399145  0.04071752  1
  Te  Te91  1  0.73239626  0.09977201  0.43339525  1
  Te  Te92  1  0.77010982  0.10172604  0.73876810  1
  Te  Te93  1  0.77921979  0.39313695  0.11716160  1
  Te  Te94  1  0.76376147  0.43958470  0.46074157  1
  Te  Te95  1  0.75738418  0.40827967  0.73225137  1
  Te  Te96  1  0.75008291  0.75210801  0.07871882  1
  Te  Te97  1  0.73752608  0.72906207  0.40177810  1
  Te  Te98  1  0.77571618  0.75357532  0.73436606  1
  Te  Te99  1  0.07831296  0.25462115  0.22604579  1
  Te  Te100  1  0.07018130  0.24331695  0.57969664  1
  Te  Te101  1  0.03665312  0.23344083  0.94304992  1
  Te  Te102  1  0.06148849  0.57177171  0.24173221  1
  Te  Te103  1  0.08975861  0.59780475  0.57733021  1
  Te  Te104  1  0.09057665  0.57528102  0.92174741  1
  Te  Te105  1  0.06469802  0.90910976  0.24337606  1
  Te  Te106  1  0.09571089  0.91176340  0.58907296  1
  Te  Te107  1  0.06944054  0.91840405  0.89446370  1
  Te  Te108  1  0.41151184  0.25015239  0.24455601  1
  Te  Te109  1  0.42693685  0.25577444  0.54849723  1
  Te  Te110  1  0.42882386  0.22205861  0.92794142  1
  Te  Te111  1  0.42976889  0.58224822  0.25653988  1
  Te  Te112  1  0.41407488  0.60560477  0.56675502  1
  Te  Te113  1  0.40884465  0.60122008  0.93426998  1
  Te  Te114  1  0.42297385  0.91315299  0.25347542  1
  Te  Te115  1  0.42176603  0.90811459  0.59090282  1
  Te  Te116  1  0.40841685  0.92178782  0.91570513  1
  Te  Te117  1  0.74972161  0.24234921  0.25044525  1
  Te  Te118  1  0.80819729  0.22289946  0.55312126  1
  Te  Te119  1  0.76873219  0.23624916  0.93471584  1
  Te  Te120  1  0.75291189  0.57161452  0.27374264  1
  Te  Te121  1  0.74634376  0.55851019  0.57042053  1
  Te  Te122  1  0.78752012  0.61147322  0.89987138  1
  Te  Te123  1  0.78352631  0.93435540  0.23912329  1
  Te  Te124  1  0.74892597  0.89353775  0.56935087  1
  Te  Te125  1  0.74174673  0.94447065  0.92708285  1
  Te  Te126  1  0.23009002  0.25666507  0.09250701  1
  Te  Te127  1  0.24418208  0.24340081  0.41621381  1
  Te  Te128  1  0.24346151  0.26555410  0.75129114  1
  Te  Te129  1  0.24162487  0.57303115  0.07653780  1
  Te  Te130  1  0.24651855  0.58374333  0.43396894  1
  Te  Te131  1  0.25113767  0.59294396  0.74174566  1
  Te  Te132  1  0.25483902  0.93463718  0.07482647  1
  Te  Te133  1  0.26934706  0.90833644  0.43827619  1
  Te  Te134  1  0.21397525  0.91966755  0.74977918  1
  Te  Te135  1  0.58657273  0.23230025  0.09090174  1
  Te  Te136  1  0.59603549  0.26746649  0.43887070  1
  Te  Te137  1  0.59946940  0.26395418  0.74699820  1
  Te  Te138  1  0.57621370  0.59220133  0.09710673  1
  Te  Te139  1  0.61533470  0.61774236  0.43328934  1
  Te  Te140  1  0.59780525  0.57218854  0.75313328  1
  Te  Te141  1  0.59425182  0.91867977  0.08719558  1
  Te  Te142  1  0.60540757  0.90307966  0.43378965  1
  Te  Te143  1  0.58193918  0.91965657  0.75139807  1
  Te  Te144  1  0.93924646  0.28982812  0.05249457  1
  Te  Te145  1  0.90425013  0.26304377  0.42995997  1
  Te  Te146  1  0.93223042  0.23177843  0.76004459  1
  Te  Te147  1  0.92082784  0.57389351  0.08345675  1
  Te  Te148  1  0.91466660  0.57174650  0.39291628  1
  Te  Te149  1  0.89953611  0.56666199  0.71727870  1
  Te  Te150  1  0.92059803  0.91195785  0.09384810  1
  Te  Te151  1  0.93449156  0.91115524  0.42736127  1
  Te  Te152  1  0.89986790  0.90352248  0.72613463  1
  Te  Te153  1  0.21599741  0.09988354  0.27788673  1
  Te  Te154  1  0.26201328  0.09940476  0.57404226  1
  Te  Te155  1  0.22478558  0.06518838  0.90696046  1
  Te  Te156  1  0.22619276  0.40149952  0.24283159  1
  Te  Te157  1  0.26780754  0.43678169  0.56793725  1
  Te  Te158  1  0.24616781  0.42011109  0.91170262  1
  Te  Te159  1  0.23486696  0.75028126  0.26278219  1
  Te  Te160  1  0.20769392  0.79254412  0.56884199  1
  Te  Te161  1  0.25677520  0.74796305  0.93444300  1
  Te  Te162  1  0.58966791  0.07974124  0.25391094  1
  Te  Te163  1  0.59177805  0.08779539  0.58835310  1
  Te  Te164  1  0.59276708  0.09089580  0.94741554  1
  Te  Te165  1  0.59430467  0.41788694  0.27318516  1
  Te  Te166  1  0.59587835  0.39718879  0.56404673  1
  Te  Te167  1  0.59208358  0.40662046  0.91423123  1
  Te  Te168  1  0.59143598  0.73121340  0.25293409  1
  Te  Te169  1  0.58009595  0.71693308  0.55191667  1
  Te  Te170  1  0.59131709  0.75783242  0.91113129  1
  Te  Te171  1  0.91662383  0.09990405  0.22523409  1
  Te  Te172  1  0.91248610  0.09807014  0.57713720  1
  Te  Te173  1  0.89836978  0.08834726  0.94039042  1
  Te  Te174  1  0.90284595  0.41679317  0.22610023  1
  Te  Te175  1  0.88596258  0.40839523  0.56046648  1
  Te  Te176  1  0.92367524  0.41267404  0.92501464  1
  Te  Te177  1  0.91932542  0.75477460  0.24609646  1
  Te  Te178  1  0.90970320  0.76371223  0.56844179  1
  Te  Te179  1  0.92816732  0.76036436  0.88908340  1
