# generated using pymatgen
data_In2Te3
_symmetry_space_group_name_H-M   'P 1'
_cell_length_a   18.88973761
_cell_length_b   18.89795233
_cell_length_c   18.89998297
_cell_angle_alpha   90.02866657
_cell_angle_beta   90.10073042
_cell_angle_gamma   90.08761079
_symmetry_Int_Tables_number   1
_chemical_formula_structural   In2Te3
_chemical_formula_sum   'In72 Te108'
_cell_volume   6746.84687682
_cell_formula_units_Z   36
loop_
 _symmetry_equiv_pos_site_id
 _symmetry_equiv_pos_as_xyz
  1  'x, y, z'
loop_
 _atom_site_type_symbol
 _atom_site_label
 _atom_site_symmetry_multiplicity
 _atom_site_fract_x
 _atom_site_fract_y
 _atom_site_fract_z
 _atom_site_occupancy
  In  In0  1  0.15657224  0.33605556  0.15439515  1
  In  In1  1  0.65077643  -0.01024733  0.34460999  1
  In  In2  1  0.03269491  0.63923003  0.31417468  1
  In  In3  1  0.31772393  0.81971074  0.18697092  1
  In  In4  1  0.16572296  0.82649394  0.35742493  1
  In  In5  1  0.71752301  0.33403294  0.66558058  1
  In  In6  1  0.49004500  -0.00826023  0.16212891  1
  In  In7  1  0.47436484  0.51307969  0.05190421  1
  In  In8  1  0.68942195  -0.00351578  0.68668176  1
  In  In9  1  0.30008004  0.79906701  0.52430318  1
  In  In10  1  0.84807451  0.01815803  0.50942369  1
  In  In11  1  -0.00649140  0.01603746  0.33073794  1
  In  In12  1  0.50729603  0.80978297  0.62759765  1
  In  In13  1  0.85227390  0.67659661  0.48780376  1
  In  In14  1  0.65221127  0.65276483  0.34647377  1
  In  In15  1  0.00045578  0.66249498  0.66441440  1
  In  In16  1  0.18315062  0.81891943  0.01423929  1
  In  In17  1  -0.00368145  0.34034678  0.32477943  1
  In  In18  1  0.67087499  0.81799150  0.19290216  1
  In  In19  1  0.14451003  0.02776885  0.82957421  1
  In  In20  1  0.33993036  0.37037005  0.63044869  1
  In  In21  1  0.70768283  0.14501783  0.84701838  1
  In  In22  1  0.48350180  0.34365251  0.49997486  1
  In  In23  1  0.13174687  0.30824786  0.82348548  1
  In  In24  1  0.84192622  0.31085800  0.16316632  1
  In  In25  1  0.47480706  0.64875709  0.17237694  1
  In  In26  1  0.64782508  0.47597431  0.18650453  1
  In  In27  1  0.66086811  0.32204306  -0.00383665  1
  In  In28  1  0.67949737  0.51384519  0.50498145  1
  In  In29  1  0.31408203  0.65149091  0.01049252  1
  In  In30  1  0.31371873  0.84666197  0.80555294  1
  In  In31  1  0.88560817  0.01404349  0.84108449  1
  In  In32  1  0.85134318  0.65050580  0.81488248  1
  In  In33  1  0.87956297  0.33113901  0.81840444  1
  In  In34  1  0.67732379  0.00393079  0.02991045  1
  In  In35  1  0.83801115  0.86828051  0.68404973  1
  In  In36  1  0.68262106  0.17874058  0.52715673  1
  In  In37  1  0.67862117  0.81147317  0.85144210  1
  In  In38  1  0.84321855  0.85900136  0.00264928  1
  In  In39  1  0.48973674  -0.00236812  0.49425420  1
  In  In40  1  0.32098160  0.48763779  0.19381034  1
  In  In41  1  0.48698572  0.64557783  0.82188602  1
  In  In42  1  0.83728554  0.86159645  0.33692837  1
  In  In43  1  0.19241962  0.18243018  0.36461799  1
  In  In44  1  0.31949644  0.02625273  0.67896517  1
  In  In45  1  0.66818580  0.48647242  0.82925818  1
  In  In46  1  0.46896792  0.65692763  0.48062814  1
  In  In47  1  -0.00769973  0.46078771  0.50429302  1
  In  In48  1  0.83962437  0.67351082  0.16008360  1
  In  In49  1  0.17406273  0.18970468  0.65478465  1
  In  In50  1  0.84299913  0.48884710  -0.02571885  1
  In  In51  1  0.61203037  0.33812378  0.33200004  1
  In  In52  1  0.48432014  -0.02708682  0.82390574  1
  In  In53  1  0.50891717  0.32672994  0.83694913  1
  In  In54  1  0.00306354  0.00805739  -0.00898679  1
  In  In55  1  0.30276400  0.48407210  0.81631486  1
  In  In56  1  0.51597753  0.15477489  0.00801952  1
  In  In57  1  0.32504129  0.00297336  0.34430512  1
  In  In58  1  0.50757027  0.20440021  0.66289282  1
  In  In59  1  0.66618321  0.16676275  0.16906433  1
  In  In60  1  0.50102069  0.51693847  0.63456972  1
  In  In61  1  0.17770471  0.01412982  0.21421276  1
  In  In62  1  0.47818286  0.84344980  -0.04088674  1
  In  In63  1  -0.00415204  0.82938567  0.13775705  1
  In  In64  1  -0.01048207  0.16352402  0.16034420  1
  In  In65  1  0.82346399  0.46862981  0.33602843  1
  In  In66  1  0.03073103  0.64490750  -0.01569022  1
  In  In67  1  0.15760748  0.49517574  0.67285199  1
  In  In68  1  0.28574847  0.36025746  -0.02420302  1
  In  In69  1  0.31036474  0.16991548  0.83709511  1
  In  In70  1  -0.00183496  0.81721573  0.81843009  1
  In  In71  1  0.00874767  0.18289719  0.48786122  1
  Te  Te72  1  0.09269597  0.07046857  0.09963894  1
  Te  Te73  1  0.09934751  0.07331770  0.42070144  1
  Te  Te74  1  0.07735195  0.13405863  0.75281023  1
  Te  Te75  1  0.10175387  0.46645261  0.10682055  1
  Te  Te76  1  0.09159819  0.42341327  0.40164038  1
  Te  Te77  1  0.06681230  0.38135031  0.71246807  1
  Te  Te78  1  0.09707323  0.72421190  0.09723901  1
  Te  Te79  1  0.08225825  0.72498606  0.43484101  1
  Te  Te80  1  0.10339125  0.74626796  0.73965180  1
  Te  Te81  1  0.41017958  0.08621138  0.08278981  1
  Te  Te82  1  0.41530863  0.09502353  0.41566067  1
  Te  Te83  1  0.43348054  0.10650305  0.75754532  1
  Te  Te84  1  0.38761299  0.39520933  0.08486469  1
  Te  Te85  1  0.38239122  0.42962761  0.42213997  1
  Te  Te86  1  0.43732397  0.42424570  0.74506946  1
  Te  Te87  1  0.40989142  0.75479614  0.07209886  1
  Te  Te88  1  0.40052621  0.77339737  0.42201161  1
  Te  Te89  1  0.41981130  0.75611742  0.74200137  1
  Te  Te90  1  0.76250781  0.11504974  0.06917382  1
  Te  Te91  1  0.74366295  0.08588374  0.42176195  1
  Te  Te92  1  0.79869001  0.09738143  0.73099106  1
  Te  Te93  1  0.74901102  0.41898581  0.08431513  1
  Te  Te94  1  0.73178493  0.39505254  0.42663501  1
  Te  Te95  1  0.78732842  0.43850199  0.74904936  1
  Te  Te96  1  0.74839925  0.76094153  0.07546633  1
  Te  Te97  1  0.75070497  0.75643195  0.40608747  1
  Te  Te98  1  0.75875582  0.74766972  0.74046371  1
  Te  Te99  1  0.09000466  0.23356384  0.25639223  1
  Te  Te100  1  0.09313944  0.27831734  0.56654333  1
  Te  Te101  1  0.05570524  0.24315109  0.93263684  1
  Te  Te102  1  0.11207963  0.53501777  0.24647507  1
  Te  Te103  1  0.07441009  0.57520452  0.56661476  1
  Te  Te104  1  0.10812833  0.58350970  0.87574935  1
  Te  Te105  1  0.07546036  0.90338273  0.25299379  1
  Te  Te106  1  0.05993252  0.84427491  0.52342587  1
  Te  Te107  1  0.08418656  0.89548622  0.92548100  1
  Te  Te108  1  0.47104587  0.30190413  0.29686544  1
  Te  Te109  1  0.39314987  0.23818601  0.57357621  1
  Te  Te110  1  0.41727088  0.24644799  0.92496762  1
  Te  Te111  1  0.36704764  0.61061401  0.26659958  1
  Te  Te112  1  0.37975886  0.59664696  0.59264341  1
  Te  Te113  1  0.40023001  0.56219278  0.91880892  1
  Te  Te114  1  0.41414471  0.90833240  0.26405976  1
  Te  Te115  1  0.40833639  0.92723693  0.60361899  1
  Te  Te116  1  0.36850939  0.93926507  0.91660211  1
  Te  Te117  1  0.73139571  0.27033000  0.25784529  1
  Te  Te118  1  0.80882029  0.25210874  0.57599786  1
  Te  Te119  1  0.77296479  0.26434884  0.91436170  1
  Te  Te120  1  0.75014896  0.58509427  0.25048920  1
  Te  Te121  1  0.79007460  0.57710415  0.57935533  1
  Te  Te122  1  0.74828884  0.59005751  0.91078872  1
  Te  Te123  1  0.74971231  0.93803841  0.23762946  1
  Te  Te124  1  0.74707271  0.91637032  0.57130198  1
  Te  Te125  1  0.76045821  0.93324818  0.89903067  1
  Te  Te126  1  0.21663721  0.25188373  0.04759928  1
  Te  Te127  1  0.28533436  0.29329994  0.39992172  1
  Te  Te128  1  0.27075725  0.28513995  0.74746986  1
  Te  Te129  1  0.23108144  0.55967023  0.09224737  1
  Te  Te130  1  0.29955761  0.54566687  0.47002886  1
  Te  Te131  1  0.26601164  0.58962816  0.72031027  1
  Te  Te132  1  0.24427946  0.92347367  0.10558485  1
  Te  Te133  1  0.24482224  0.92131716  0.44418101  1
  Te  Te134  1  0.21083929  0.93210429  0.73186012  1
  Te  Te135  1  0.56899076  0.26484241  0.10101617  1
  Te  Te136  1  0.57040745  0.23064106  0.43894967  1
  Te  Te137  1  0.62213091  0.24917250  0.76411447  1
  Te  Te138  1  0.59655734  0.59056918  0.09742847  1
  Te  Te139  1  0.56230126  0.55242167  0.41397716  1
  Te  Te140  1  0.59716954  0.58515238  0.73685621  1
  Te  Te141  1  0.57679835  0.89909578  0.07092064  1
  Te  Te142  1  0.57661551  0.89808677  0.43079018  1
  Te  Te143  1  0.58858526  0.89069745  0.74614605  1
  Te  Te144  1  0.95216676  0.27556660  0.06854483  1
  Te  Te145  1  0.91141797  0.23621088  0.38786005  1
  Te  Te146  1  0.89520182  0.22108593  0.72229887  1
  Te  Te147  1  0.92211689  0.58226051  0.07170466  1
  Te  Te148  1  0.91901035  0.57252488  0.39580718  1
  Te  Te149  1  0.97359781  0.57094778  0.78215534  1
  Te  Te150  1  0.91060766  0.94961202  0.10239840  1
  Te  Te151  1  0.94373197  0.90754729  0.43739091  1
  Te  Te152  1  0.96406411  0.93920535  0.73366019  1
  Te  Te153  1  0.27844637  0.11993253  0.25142002  1
  Te  Te154  1  0.24226872  0.08951927  0.57182367  1
  Te  Te155  1  0.22758198  0.09406296  0.93111555  1
  Te  Te156  1  0.26007871  0.36700000  0.26249558  1
  Te  Te157  1  0.22540239  0.42693956  0.55451139  1
  Te  Te158  1  0.18061536  0.44633930  0.90492065  1
  Te  Te159  1  0.23489590  0.72805250  0.26681904  1
  Te  Te160  1  0.20346641  0.74521676  0.61870194  1
  Te  Te161  1  0.25515503  0.74214927  0.90443071  1
  Te  Te162  1  0.57156300  0.08314917  0.25317366  1
  Te  Te163  1  0.59096426  0.08255999  0.60807445  1
  Te  Te164  1  0.58699143  0.06181545  0.90697336  1
  Te  Te165  1  0.51935552  0.44092392  0.25768223  1
  Te  Te166  1  0.59845511  0.40097015  0.59599770  1
  Te  Te167  1  0.57126711  0.43131816  0.93616034  1
  Te  Te168  1  0.56214512  0.74296860  0.26238347  1
  Te  Te169  1  0.58628237  0.70725996  0.56019448  1
  Te  Te170  1  0.57141014  0.72796699  0.92073256  1
  Te  Te171  1  0.89913000  0.11004806  0.26740340  1
  Te  Te172  1  0.96573587  0.07202430  0.57747952  1
  Te  Te173  1  0.94996468  0.12735264  0.91565264  1
  Te  Te174  1  0.91879383  0.42764898  0.22541031  1
  Te  Te175  1  0.87480437  0.39396820  0.55982314  1
  Te  Te176  1  0.95443970  0.41303289  0.91747868  1
  Te  Te177  1  0.92351626  0.75525978  0.25781980  1
  Te  Te178  1  0.91650787  0.76936566  0.59346284  1
  Te  Te179  1  0.91399439  0.74785229  0.92601924  1
