# generated using pymatgen
data_In2Te3
_symmetry_space_group_name_H-M   'P 1'
_cell_length_a   18.80153348
_cell_length_b   18.79913077
_cell_length_c   18.80875597
_cell_angle_alpha   89.97254783
_cell_angle_beta   89.92641935
_cell_angle_gamma   90.07685324
_symmetry_Int_Tables_number   1
_chemical_formula_structural   In2Te3
_chemical_formula_sum   'In72 Te108'
_cell_volume   6647.98933568
_cell_formula_units_Z   36
loop_
 _symmetry_equiv_pos_site_id
 _symmetry_equiv_pos_as_xyz
  1  'x, y, z'
loop_
 _atom_site_type_symbol
 _atom_site_label
 _atom_site_symmetry_multiplicity
 _atom_site_fract_x
 _atom_site_fract_y
 _atom_site_fract_z
 _atom_site_occupancy
  In  In0  1  0.15276458  0.33484492  0.18189575  1
  In  In1  1  0.45090291  0.50177427  0.63760632  1
  In  In2  1  0.83445526  0.33668774  0.82406302  1
  In  In3  1  0.34579139  0.17618720  0.81961824  1
  In  In4  1  0.47554840  0.15079695  0.36770086  1
  In  In5  1  0.00228705  0.67095766  0.66533634  1
  In  In6  1  0.34365450  0.30832939  0.66166898  1
  In  In7  1  0.00894620  0.17251549  0.50699090  1
  In  In8  1  0.02611411  0.15458881  0.82617480  1
  In  In9  1  0.83117768  0.65524362  0.18443801  1
  In  In10  1  0.34186406  0.48745076  0.83532680  1
  In  In11  1  0.82136625  0.14409286  0.36815536  1
  In  In12  1  0.66308392  0.48992178  0.51639015  1
  In  In13  1  0.51089177  0.66331265  0.14521635  1
  In  In14  1  0.02088559  0.01625374  0.66519641  1
  In  In15  1  0.66419575  0.48242336  0.82380520  1
  In  In16  1  0.35005513  -0.00629790  -0.01258021  1
  In  In17  1  0.47898132  0.66160372  0.82269754  1
  In  In18  1  0.48215272  0.48897985  0.34250374  1
  In  In19  1  0.00809374  0.65354311  0.33010512  1
  In  In20  1  0.01067426  0.48404605  0.15637820  1
  In  In21  1  0.16998184  0.65479284  0.15355564  1
  In  In22  1  0.49147266  0.83119883  -0.00783647  1
  In  In23  1  0.64114883  0.67364391  0.34688775  1
  In  In24  1  0.17559658  0.83122121  -0.02279731  1
  In  In25  1  0.67215727  0.66843861  0.66779205  1
  In  In26  1  0.84434657  0.31990704  0.16719125  1
  In  In27  1  0.15499912  0.65111325  0.50631994  1
  In  In28  1  0.49839424  0.83953487  0.68066921  1
  In  In29  1  0.63858146  0.03568307  -0.03090592  1
  In  In30  1  0.31355366  0.65180812  0.35582436  1
  In  In31  1  0.18059684  0.86194888  0.64985787  1
  In  In32  1  0.00973782  0.50381606  0.83883108  1
  In  In33  1  0.00707539  0.83711674  0.16954481  1
  In  In34  1  0.17752555  0.49220090  0.65910459  1
  In  In35  1  0.36631838  0.83208509  0.17057543  1
  In  In36  1  0.48428203  0.31228454  0.49526643  1
  In  In37  1  0.00201098  -0.02425173  0.00271788  1
  In  In38  1  0.49566597  -0.01250549  0.17741194  1
  In  In39  1  0.18858618  0.19686971  0.36509435  1
  In  In40  1  0.35575394  0.16035745  0.18092456  1
  In  In41  1  0.18924933  0.64455265  0.83545193  1
  In  In42  1  0.01030563  0.83632505  0.83953349  1
  In  In43  1  0.49971740  0.86024320  0.36633505  1
  In  In44  1  0.82628198  0.46806073  0.65577420  1
  In  In45  1  0.84878947  0.84804894  -0.01482401  1
  In  In46  1  0.81330349  0.18566350  0.63309556  1
  In  In47  1  0.33972330  0.84559007  0.51736733  1
  In  In48  1  0.66412986  0.84594799  0.50483772  1
  In  In49  1  0.83410499  0.69416805  0.81285570  1
  In  In50  1  0.64858162  0.66274394  0.00053077  1
  In  In51  1  0.67334453  0.16984219  0.16771219  1
  In  In52  1  0.63454077  0.01349459  0.65271148  1
  In  In53  1  0.17251992  0.01896795  0.16952648  1
  In  In54  1  0.32787776  0.32749388  -0.01950144  1
  In  In55  1  0.19725922  0.84298785  0.36483129  1
  In  In56  1  0.82306407  0.51513585  0.33315230  1
  In  In57  1  0.81829752  0.87215102  0.35481264  1
  In  In58  1  0.02854244  0.33593989  0.36680906  1
  In  In59  1  0.81032711  0.01083707  0.81982892  1
  In  In60  1  0.33530066  0.01166300  0.65538498  1
  In  In61  1  0.31347314  0.49106268  0.16835939  1
  In  In62  1  0.01294552  0.33333170  0.65091480  1
  In  In63  1  0.83982645  0.17768343  0.00967565  1
  In  In64  1  0.83677021  0.82129763  0.65217166  1
  In  In65  1  -0.02079482  0.01314106  0.33386007  1
  In  In66  1  0.68917664  0.84310945  0.17999501  1
  In  In67  1  0.16342790  0.16516745  -0.00278160  1
  In  In68  1  0.66552944  0.33968449  -0.01406123  1
  In  In69  1  0.63038236  0.33777228  0.35326671  1
  In  In70  1  0.83531004  0.50059013  -0.00282253  1
  In  In71  1  0.49642635  0.31687711  0.16511165  1
  Te  Te72  1  0.06470132  0.08649113  0.08846465  1
  Te  Te73  1  0.08956658  0.08647463  0.41211075  1
  Te  Te74  1  0.12526645  0.10165447  0.72738287  1
  Te  Te75  1  0.10841942  0.41793181  0.06811071  1
  Te  Te76  1  0.12175513  0.43022856  0.42637838  1
  Te  Te77  1  0.09533259  0.40755592  0.75729713  1
  Te  Te78  1  0.08299744  0.75103555  0.07058473  1
  Te  Te79  1  0.08579782  0.75498779  0.41883588  1
  Te  Te80  1  0.09944164  0.75143502  0.74960343  1
  Te  Te81  1  0.43537363  0.08528978  0.07455785  1
  Te  Te82  1  0.38154634  0.07824809  0.45706720  1
  Te  Te83  1  0.43700787  0.08878485  0.73692726  1
  Te  Te84  1  0.41081768  0.41029132  0.08096366  1
  Te  Te85  1  0.39160273  0.40835856  0.42927174  1
  Te  Te86  1  0.43060694  0.39708412  0.74939039  1
  Te  Te87  1  0.39988884  0.73055011  0.06332802  1
  Te  Te88  1  0.41399156  0.74484752  0.42433405  1
  Te  Te89  1  0.39497683  0.75068884  0.73995524  1
  Te  Te90  1  0.74663048  0.07514076  0.07352032  1
  Te  Te91  1  0.73872554  0.03570759  0.42709401  1
  Te  Te92  1  0.72684559  0.11193177  0.74282773  1
  Te  Te93  1  0.75091213  0.41492762  0.09080335  1
  Te  Te94  1  0.74811773  0.41134135  0.41893762  1
  Te  Te95  1  0.72374301  0.37994440  0.72694038  1
  Te  Te96  1  0.75622095  0.74563431  0.07773535  1
  Te  Te97  1  0.74891149  0.74888932  0.42085394  1
  Te  Te98  1  0.72707070  0.78231437  0.75377044  1
  Te  Te99  1  0.07527424  0.23316958  0.26517056  1
  Te  Te100  1  0.11378779  0.24978974  0.57939528  1
  Te  Te101  1  0.08689914  0.25716675  0.91166535  1
  Te  Te102  1  0.10127887  0.56186104  0.25321146  1
  Te  Te103  1  0.06077538  0.55670487  0.58318773  1
  Te  Te104  1  0.08838374  0.58976377  0.92840044  1
  Te  Te105  1  0.09993305  0.91607755  0.26118481  1
  Te  Te106  1  0.07107084  0.91721400  0.56816259  1
  Te  Te107  1  0.10552060  0.94099749  0.89560274  1
  Te  Te108  1  0.41173341  0.26178268  0.27946047  1
  Te  Te109  1  0.44950092  0.21442139  0.60784783  1
  Te  Te110  1  0.43642052  0.24936367  0.91394245  1
  Te  Te111  1  0.41518250  0.59667488  0.25148220  1
  Te  Te112  1  0.41635609  0.59287444  0.52847449  1
  Te  Te113  1  0.42747251  0.56951520  0.92541429  1
  Te  Te114  1  0.39587461  0.93295232  0.28071884  1
  Te  Te115  1  0.44800097  0.93615365  0.57227529  1
  Te  Te116  1  0.43049957  0.91845948  0.88979132  1
  Te  Te117  1  0.74186719  0.26232425  0.26671188  1
  Te  Te118  1  0.70047380  0.24715231  0.55911326  1
  Te  Te119  1  0.74505011  0.23574199  0.90290218  1
  Te  Te120  1  0.71333526  0.58225722  0.24738697  1
  Te  Te121  1  0.76441119  0.58677640  0.57842146  1
  Te  Te122  1  0.75207028  0.58874275  0.89970810  1
  Te  Te123  1  0.73799299  0.95567262  0.26292619  1
  Te  Te124  1  0.75305883  0.93371287  0.59318930  1
  Te  Te125  1  0.73467941  0.92099304  0.91829567  1
  Te  Te126  1  0.25666323  0.24059121  0.09700426  1
  Te  Te127  1  0.25378551  0.28335529  0.46626223  1
  Te  Te128  1  0.23640674  0.23655666  0.73700655  1
  Te  Te129  1  0.25275313  0.57413024  0.06280294  1
  Te  Te130  1  0.22714213  0.54784692  0.42131534  1
  Te  Te131  1  0.27896458  0.58057622  0.72898861  1
  Te  Te132  1  0.25462868  0.91520461  0.09114960  1
  Te  Te133  1  0.25240900  0.95312292  0.45151684  1
  Te  Te134  1  0.26617375  0.92236643  0.75165383  1
  Te  Te135  1  0.58229843  0.23804638  0.06658562  1
  Te  Te136  1  0.61060729  0.20740112  0.42844597  1
  Te  Te137  1  0.60962554  0.21592438  0.80068037  1
  Te  Te138  1  0.57937955  0.55527274  0.07249805  1
  Te  Te139  1  0.56250277  0.58101165  0.44058715  1
  Te  Te140  1  0.57411879  0.57005380  0.73048916  1
  Te  Te141  1  0.58834285  0.91400622  0.07951238  1
  Te  Te142  1  0.60055147  0.95729439  0.42118261  1
  Te  Te143  1  0.58165429  0.93163545  0.76317790  1
  Te  Te144  1  0.94218674  0.26067530  0.07441902  1
  Te  Te145  1  0.90780761  0.25410445  0.42581279  1
  Te  Te146  1  0.91780642  0.23716619  0.74124856  1
  Te  Te147  1  0.92467372  0.58942336  0.08437026  1
  Te  Te148  1  0.91947827  0.58098739  0.42252754  1
  Te  Te149  1  0.90350501  0.57101126  0.74806977  1
  Te  Te150  1  0.90003555  0.92574112  0.10655770  1
  Te  Te151  1  0.92872037  0.92110011  0.43839429  1
  Te  Te152  1  0.91692424  0.91844941  0.75180103  1
  Te  Te153  1  0.25658429  0.09093579  0.27300522  1
  Te  Te154  1  0.25830902  0.08525444  0.55128812  1
  Te  Te155  1  0.25690706  0.08415177  0.90879305  1
  Te  Te156  1  0.25636055  0.39741227  0.26632308  1
  Te  Te157  1  0.26071767  0.39987320  0.57258086  1
  Te  Te158  1  0.23408854  0.41194574  0.90472006  1
  Te  Te159  1  0.25044435  0.75177319  0.24649573  1
  Te  Te160  1  0.25027080  0.74017185  0.58523030  1
  Te  Te161  1  0.27018278  0.75463370  0.89545466  1
  Te  Te162  1  0.56806148  0.09750972  0.25313414  1
  Te  Te163  1  0.58950640  0.13832057  0.58304457  1
  Te  Te164  1  0.54146426  0.10985197  0.87351384  1
  Te  Te165  1  0.57690597  0.42373443  0.24040159  1
  Te  Te166  1  0.56154165  0.40476498  0.58982305  1
  Te  Te167  1  0.56517640  0.42082456  0.91383951  1
  Te  Te168  1  0.57037820  0.77161202  0.25020944  1
  Te  Te169  1  0.57617797  0.74845310  0.58120731  1
  Te  Te170  1  0.58188856  0.75005232  0.89790977  1
  Te  Te171  1  0.89844450  0.10225577  0.24972260  1
  Te  Te172  1  0.90903005  0.08103435  0.58001978  1
  Te  Te173  1  0.91624654  0.07462710  0.91238220  1
  Te  Te174  1  0.92203648  0.41632580  0.26319867  1
  Te  Te175  1  0.91245047  0.39509720  0.56144045  1
  Te  Te176  1  0.92779364  0.40364261  0.92478535  1
  Te  Te177  1  0.90946564  0.76142040  0.26162280  1
  Te  Te178  1  0.92301451  0.74243171  0.56410899  1
  Te  Te179  1  0.93149475  0.73532065  0.92262841  1
