# generated using pymatgen
data_In2Te3
_symmetry_space_group_name_H-M   'P 1'
_cell_length_a   18.77706832
_cell_length_b   18.77238306
_cell_length_c   18.76185834
_cell_angle_alpha   89.94456802
_cell_angle_beta   90.01395144
_cell_angle_gamma   90.02757593
_symmetry_Int_Tables_number   1
_chemical_formula_structural   In2Te3
_chemical_formula_sum   'In72 Te108'
_cell_volume   6613.36937969
_cell_formula_units_Z   36
loop_
 _symmetry_equiv_pos_site_id
 _symmetry_equiv_pos_as_xyz
  1  'x, y, z'
loop_
 _atom_site_type_symbol
 _atom_site_label
 _atom_site_symmetry_multiplicity
 _atom_site_fract_x
 _atom_site_fract_y
 _atom_site_fract_z
 _atom_site_occupancy
  In  In0  1  0.82905119  0.33609478  0.14958535  1
  In  In1  1  0.34625120  0.67580196  0.32784710  1
  In  In2  1  0.83134015  0.14586891  -0.00679279  1
  In  In3  1  0.68034493  0.50508602  0.18078133  1
  In  In4  1  0.65301428  0.17450411  0.83871704  1
  In  In5  1  0.64820803  0.15858091  0.50731233  1
  In  In6  1  0.15395226  0.48094110  0.32148225  1
  In  In7  1  -0.01708524  0.52024436  0.50068899  1
  In  In8  1  0.50326288  0.85216020  0.01214092  1
  In  In9  1  0.80961790  0.50598446  0.32703626  1
  In  In10  1  0.49995397  0.84394758  0.33896491  1
  In  In11  1  0.00118220  -0.00907304  0.32778992  1
  In  In12  1  0.48392956  0.31008732  0.84023433  1
  In  In13  1  0.80976092  -0.03262374  0.19116848  1
  In  In14  1  0.03615782  0.31142632  0.30283488  1
  In  In15  1  0.84091652  0.34794911  0.82387306  1
  In  In16  1  0.65982065  0.34059375  0.33811517  1
  In  In17  1  0.50571337  0.68084328  0.18922003  1
  In  In18  1  0.17246435  0.83826503  0.33005724  1
  In  In19  1  0.36707933  0.01743444  0.69125963  1
  In  In20  1  0.36773418  0.52602830  0.48842091  1
  In  In21  1  0.65144427  0.00756714  -0.00393481  1
  In  In22  1  0.66043928  0.32700419  0.04466056  1
  In  In23  1  0.33444355  0.00104533  0.01405035  1
  In  In24  1  0.34020707  -0.01669806  0.33624897  1
  In  In25  1  0.51445090  0.66310852  0.80971767  1
  In  In26  1  0.68701780  0.67731349  0.00794705  1
  In  In27  1  0.17864490  0.01823984  0.84636193  1
  In  In28  1  0.85177923  0.16591477  0.65272972  1
  In  In29  1  0.84191339  -0.01319720  0.82885334  1
  In  In30  1  0.17736882  0.69037596  0.49238339  1
  In  In31  1  0.17755344  0.50694870  0.00256551  1
  In  In32  1  0.00286330  0.00729669  0.04505260  1
  In  In33  1  0.15449250  0.85162155  0.63457460  1
  In  In34  1  0.16097167  0.84069193  0.02965022  1
  In  In35  1  -0.04013808  0.68791727  0.63921366  1
  In  In36  1  0.34778686  0.14937971  0.49333025  1
  In  In37  1  0.50978970  0.84806961  0.65353778  1
  In  In38  1  0.82985636  -0.01113901  0.49351061  1
  In  In39  1  0.83751926  0.15941070  0.32906563  1
  In  In40  1  0.00955622  0.32438455  -0.01727045  1
  In  In41  1  0.67927569  0.83853474  0.81844970  1
  In  In42  1  0.01035899  0.68578574  0.00751551  1
  In  In43  1  0.16921417  0.14736178  0.67384832  1
  In  In44  1  0.18563772  0.31136063  0.18431285  1
  In  In45  1  -0.01272219  0.12656345  0.47793862  1
  In  In46  1  0.81445597  0.34113367  0.48291823  1
  In  In47  1  0.81010990  0.54091543  0.64344532  1
  In  In48  1  0.32019854  0.48496348  0.81288467  1
  In  In49  1  0.18044351  0.31929908  0.50284351  1
  In  In50  1  0.33313895  0.82964868  0.84190636  1
  In  In51  1  0.36299065  0.33371702  0.65636381  1
  In  In52  1  0.35555684  0.65429644  0.01662960  1
  In  In53  1  0.61810332  0.35142362  0.65185140  1
  In  In54  1  0.83435981  0.69127155  0.17670682  1
  In  In55  1  -0.00596559  0.82808267  0.83067709  1
  In  In56  1  0.84176961  0.67848530  0.81843741  1
  In  In57  1  0.16732909  0.65614445  0.82912868  1
  In  In58  1  -0.00551080  0.67855858  0.33494481  1
  In  In59  1  0.16248847  0.49715207  0.68132572  1
  In  In60  1  0.14903797  0.13717114  0.33709235  1
  In  In61  1  0.51670768  0.67292048  0.49384223  1
  In  In62  1  0.50410031  0.47945964  0.00132457  1
  In  In63  1  0.62416414  0.13724591  0.19572620  1
  In  In64  1  0.00299284  0.51156094  0.16900707  1
  In  In65  1  0.33754762  0.15579260  0.16340230  1
  In  In66  1  0.00591178  0.32947668  0.67347549  1
  In  In67  1  0.17024225  0.31185478  0.83931444  1
  In  In68  1  0.65279077  0.51571933  0.81778187  1
  In  In69  1  0.35522709  0.35153045  0.34019642  1
  In  In70  1  0.49933733  0.32517301  0.15933265  1
  In  In71  1  0.66118151  0.00320962  0.64851070  1
  Te  Te72  1  0.10849520  0.09884023  0.08616581  1
  Te  Te73  1  0.10697001  0.03341528  0.44456492  1
  Te  Te74  1  0.07443830  0.06869241  0.75383522  1
  Te  Te75  1  0.09021141  0.40878735  0.09703856  1
  Te  Te76  1  0.07058293  0.41301390  0.43139433  1
  Te  Te77  1  0.07568858  0.41746112  0.77768789  1
  Te  Te78  1  0.06921581  0.76404422  0.11798345  1
  Te  Te79  1  0.06640847  0.77183568  0.43171786  1
  Te  Te80  1  0.08488078  0.74626664  0.73658145  1
  Te  Te81  1  0.43760564  0.06344860  0.10303663  1
  Te  Te82  1  0.44163937  0.08055178  0.39496281  1
  Te  Te83  1  0.43318665  0.12691926  0.76622750  1
  Te  Te84  1  0.40404375  0.40082925  0.07414332  1
  Te  Te85  1  0.45018428  0.40771305  0.44311999  1
  Te  Te86  1  0.44487402  0.42575108  0.74648791  1
  Te  Te87  1  0.41231084  0.76694734  0.10152460  1
  Te  Te88  1  0.40734665  0.76454450  0.43356570  1
  Te  Te89  1  0.41753113  0.75687167  0.73819671  1
  Te  Te90  1  0.74237365  0.08753252  0.10275747  1
  Te  Te91  1  0.73813799  0.07977250  0.40999726  1
  Te  Te92  1  0.75066242  0.09032432  0.75069345  1
  Te  Te93  1  0.75920134  0.44313374  0.06569974  1
  Te  Te94  1  0.71486544  0.45235256  0.44073389  1
  Te  Te95  1  0.74199330  0.41795142  0.72931037  1
  Te  Te96  1  0.73988493  0.77838337  0.09982219  1
  Te  Te97  1  0.76437610  0.73603000  0.46225366  1
  Te  Te98  1  0.73713549  0.73541570  0.73117554  1
  Te  Te99  1  0.07897405  0.19373336  0.20820382  1
  Te  Te100  1  0.07484610  0.23300631  0.57444368  1
  Te  Te101  1  0.09378717  0.21771418  0.92440906  1
  Te  Te102  1  0.09622468  0.60262830  0.24850986  1
  Te  Te103  1  0.08667885  0.59230160  0.58554134  1
  Te  Te104  1  0.07090277  0.57724837  0.91740675  1
  Te  Te105  1  0.08715737  0.91559596  0.23410137  1
  Te  Te106  1  0.05806935  0.93708993  0.56665459  1
  Te  Te107  1  0.08502980  0.91445718  0.91893942  1
  Te  Te108  1  0.42446684  0.24098303  0.26240680  1
  Te  Te109  1  0.43486067  0.25290964  0.55479425  1
  Te  Te110  1  0.39685843  0.20908833  0.90490363  1
  Te  Te111  1  0.43097735  0.57501852  0.26062076  1
  Te  Te112  1  0.43486149  0.59816546  0.59770381  1
  Te  Te113  1  0.41941331  0.57601525  0.90107166  1
  Te  Te114  1  0.42126231  0.91252938  0.23200408  1
  Te  Te115  1  0.42894238  0.94647301  0.57313032  1
  Te  Te116  1  0.42403185  0.93089302  0.90731630  1
  Te  Te117  1  0.74154852  0.24952639  0.24433676  1
  Te  Te118  1  0.74284428  0.25370225  0.59004651  1
  Te  Te119  1  0.75153929  0.25745105  0.92398346  1
  Te  Te120  1  0.72826250  0.62065211  0.26721700  1
  Te  Te121  1  0.72398191  0.62391924  0.55540115  1
  Te  Te122  1  0.75542385  0.58515236  0.90698703  1
  Te  Te123  1  0.71184701  0.90315029  0.28497161  1
  Te  Te124  1  0.74669579  0.90062395  0.58218931  1
  Te  Te125  1  0.75238056  0.91381988  0.92944626  1
  Te  Te126  1  0.25926188  0.24666721  0.07445162  1
  Te  Te127  1  0.25099419  0.24026562  0.39256449  1
  Te  Te128  1  0.26469988  0.24741696  0.73811114  1
  Te  Te129  1  0.25034786  0.59151138  0.09867872  1
  Te  Te130  1  0.23929194  0.57131475  0.41554960  1
  Te  Te131  1  0.26705951  0.60053699  0.72793088  1
  Te  Te132  1  0.25870130  0.91573031  0.10959618  1
  Te  Te133  1  0.25969121  0.90292334  0.43190238  1
  Te  Te134  1  0.24978554  0.91910055  0.74895918  1
  Te  Te135  1  0.56317789  0.21541056  0.07337807  1
  Te  Te136  1  0.57362148  0.24867509  0.41552388  1
  Te  Te137  1  0.56234575  0.22678119  0.72527631  1
  Te  Te138  1  0.58092363  0.58655657  0.07908942  1
  Te  Te139  1  0.59338772  0.56135814  0.43024859  1
  Te  Te140  1  0.58647805  0.58658291  0.70491397  1
  Te  Te141  1  0.59343459  0.92373063  0.10415867  1
  Te  Te142  1  0.61096738  0.92981911  0.39883791  1
  Te  Te143  1  0.57861630  0.93549782  0.76030400  1
  Te  Te144  1  0.91966718  0.23937269  0.07784173  1
  Te  Te145  1  0.92427639  0.25478327  0.41291650  1
  Te  Te146  1  0.92815264  0.23504400  0.76659485  1
  Te  Te147  1  0.90900379  0.59330699  0.08429008  1
  Te  Te148  1  0.88840350  0.60351005  0.41924549  1
  Te  Te149  1  0.92506412  0.57686908  0.73924687  1
  Te  Te150  1  0.90125383  0.90966451  0.08863238  1
  Te  Te151  1  0.89685629  0.90212112  0.39043083  1
  Te  Te152  1  0.89901834  0.88859745  0.73508202  1
  Te  Te153  1  0.24346410  0.06296502  0.24487457  1
  Te  Te154  1  0.26047230  0.06489421  0.58456080  1
  Te  Te155  1  0.27593767  0.10685473  0.91933617  1
  Te  Te156  1  0.27034289  0.42819555  0.23880699  1
  Te  Te157  1  0.25630142  0.42589621  0.58076877  1
  Te  Te158  1  0.26058370  0.40320027  0.92548494  1
  Te  Te159  1  0.25180645  0.74800565  0.24184890  1
  Te  Te160  1  0.26350513  0.76434696  0.58651030  1
  Te  Te161  1  0.24532527  0.74040082  0.93122250  1
  Te  Te162  1  0.56313297  0.04469764  0.29670817  1
  Te  Te163  1  0.54965303  0.06078330  0.56608809  1
  Te  Te164  1  0.55881270  0.08694824  0.91190965  1
  Te  Te165  1  0.56972402  0.42856000  0.25044061  1
  Te  Te166  1  0.57202361  0.44574800  0.54683398  1
  Te  Te167  1  0.59679565  0.40006471  0.90943698  1
  Te  Te168  1  0.60462532  0.75754815  0.27109606  1
  Te  Te169  1  0.60272137  0.77784061  0.56028750  1
  Te  Te170  1  0.57860128  0.75175830  0.91672164  1
  Te  Te171  1  0.91421660  0.07535469  0.23214678  1
  Te  Te172  1  0.93327421  0.04859295  0.60256616  1
  Te  Te173  1  0.93527159  0.07051815  0.91448864  1
  Te  Te174  1  0.91516398  0.41475854  0.25757891  1
  Te  Te175  1  0.90938797  0.41558078  0.58886194  1
  Te  Te176  1  0.91378143  0.42276365  0.92748979  1
  Te  Te177  1  0.90407614  0.78249312  0.27404283  1
  Te  Te178  1  0.88516309  0.77727034  0.54875237  1
  Te  Te179  1  0.90080281  0.76225291  0.93250739  1
