# generated using pymatgen
data_In2Te3
_symmetry_space_group_name_H-M   'P 1'
_cell_length_a   18.94828617
_cell_length_b   18.93415971
_cell_length_c   18.94085517
_cell_angle_alpha   90.06632640
_cell_angle_beta   90.11673631
_cell_angle_gamma   89.97195858
_symmetry_Int_Tables_number   1
_chemical_formula_structural   In2Te3
_chemical_formula_sum   'In72 Te108'
_cell_volume   6795.38880818
_cell_formula_units_Z   36
loop_
 _symmetry_equiv_pos_site_id
 _symmetry_equiv_pos_as_xyz
  1  'x, y, z'
loop_
 _atom_site_type_symbol
 _atom_site_label
 _atom_site_symmetry_multiplicity
 _atom_site_fract_x
 _atom_site_fract_y
 _atom_site_fract_z
 _atom_site_occupancy
  In  In0  1  0.51982788  0.16480911  0.33002216  1
  In  In1  1  0.81153837  0.00618921  0.84578425  1
  In  In2  1  0.35265641  0.17878211  0.49336448  1
  In  In3  1  0.67910776  0.61197450  0.67078446  1
  In  In4  1  0.00748313  0.19015183  0.16885161  1
  In  In5  1  0.67680969  0.02482289  0.64377995  1
  In  In6  1  0.65835436  0.82611416  0.47819791  1
  In  In7  1  0.83239523  0.17351923  0.00320037  1
  In  In8  1  0.87586169  0.21825624  0.66855439  1
  In  In9  1  0.67344717  0.67762332  0.32845010  1
  In  In10  1  0.84588049  0.35674446  0.49865002  1
  In  In11  1  0.14607599  0.63510245  0.18395242  1
  In  In12  1  0.17558621  0.81682658  0.32601859  1
  In  In13  1  0.65264771  0.81907717  0.85073151  1
  In  In14  1  0.48860806  -0.02360123  0.19035215  1
  In  In15  1  0.34144494  0.81548077  0.46624021  1
  In  In16  1  0.67727408  0.47329858  0.77916893  1
  In  In17  1  0.33946730  0.68402663  0.66480505  1
  In  In18  1  0.34131101  0.00226059  0.68156813  1
  In  In19  1  0.13309872  0.37516744  0.14895484  1
  In  In20  1  0.52242317  0.67578365  0.17589088  1
  In  In21  1  0.32943874  0.16254796  0.16220263  1
  In  In22  1  0.19511117  0.02009052  0.15776423  1
  In  In23  1  0.51962024  -0.01245871  0.47496169  1
  In  In24  1  0.50607325  0.18578656  -0.02077617  1
  In  In25  1  0.51373567  0.48926519  0.31909128  1
  In  In26  1  0.00859867  -0.00478883  0.33711458  1
  In  In27  1  0.83814786  0.82686274  0.68022131  1
  In  In28  1  0.81701113  -0.00473652  0.45730548  1
  In  In29  1  0.00538654  0.80706472  0.18325427  1
  In  In30  1  0.15380923  -0.00010926  0.80021134  1
  In  In31  1  -0.02843198  0.00246191  0.00517492  1
  In  In32  1  0.33459466  0.14701435  0.82674526  1
  In  In33  1  0.85427572  0.64591504  0.85033702  1
  In  In34  1  0.83886805  0.63513030  0.52250058  1
  In  In35  1  0.85154410  0.48841627  0.33743107  1
  In  In36  1  0.00070613  0.02232317  0.64871147  1
  In  In37  1  0.17108215  0.50142490  0.65118219  1
  In  In38  1  -0.01407807  0.81270511  0.84542929  1
  In  In39  1  0.32686927  0.51358820  0.49818714  1
  In  In40  1  0.31611910  0.33174909  0.33336620  1
  In  In41  1  0.65984155  -0.03233992  0.04170470  1
  In  In42  1  0.48469159  0.68377797  0.49189722  1
  In  In43  1  0.32677900  0.34044265  0.67619014  1
  In  In44  1  0.32281729  0.68231180  0.02221426  1
  In  In45  1  0.49892907  0.51767051  -0.00302222  1
  In  In46  1  -0.02376746  0.18619588  0.48754637  1
  In  In47  1  0.82710183  -0.02192935  0.19437898  1
  In  In48  1  0.82174561  0.32239336  0.19410238  1
  In  In49  1  0.00376030  0.63943713  0.67548319  1
  In  In50  1  0.13207016  0.63052498  0.86887070  1
  In  In51  1  0.34008417  -0.02668090  -0.00708631  1
  In  In52  1  0.14167616  0.35169361  0.85027424  1
  In  In53  1  0.48409599  0.32375989  0.82294620  1
  In  In54  1  0.31566178  0.49275899  0.84894027  1
  In  In55  1  0.85613143  0.48080445  -0.00302212  1
  In  In56  1  0.68069886  0.65554621  0.01332946  1
  In  In57  1  0.15115017  0.67600631  0.48422791  1
  In  In58  1  0.17125692  0.19166828  -0.01143694  1
  In  In59  1  0.49997975  0.00037083  0.84726232  1
  In  In60  1  0.35475389  0.51715663  0.15741962  1
  In  In61  1  0.68913284  0.18249100  0.47790507  1
  In  In62  1  0.65589288  0.18279468  0.82348433  1
  In  In63  1  0.67669438  0.34514387  0.00757031  1
  In  In64  1  0.16088781  0.83567547  0.01678304  1
  In  In65  1  0.14309285  0.19434544  0.64123586  1
  In  In66  1  0.52777044  0.34347214  0.16145406  1
  In  In67  1  0.52762740  0.37292211  0.53270419  1
  In  In68  1  0.14811056  0.48250768  0.36077315  1
  In  In69  1  0.15454670  -0.00670505  0.51223863  1
  In  In70  1  0.51172133  0.83610409  0.65880901  1
  In  In71  1  0.84267228  0.66506845  0.15714626  1
  Te  Te72  1  0.08156726  0.08494272  0.07482347  1
  Te  Te73  1  0.08143204  0.09552943  0.42520774  1
  Te  Te74  1  0.06838320  0.11494802  0.74815125  1
  Te  Te75  1  0.05208805  0.46208369  0.05802082  1
  Te  Te76  1  0.07229757  0.38207650  0.43357255  1
  Te  Te77  1  0.08037554  0.41051566  0.72670461  1
  Te  Te78  1  0.07675450  0.72641285  0.07654493  1
  Te  Te79  1  0.06506331  0.76753610  0.40837024  1
  Te  Te80  1  0.08342241  0.73572379  0.76083788  1
  Te  Te81  1  0.41434599  0.09062401  0.05757525  1
  Te  Te82  1  0.41833316  0.07707620  0.40247532  1
  Te  Te83  1  0.44729620  0.09541081  0.73988361  1
  Te  Te84  1  0.42257390  0.40984076  0.07429670  1
  Te  Te85  1  0.41985053  0.41643238  0.42299101  1
  Te  Te86  1  0.41611838  0.43847731  0.74893162  1
  Te  Te87  1  0.43371843  0.75652612  0.08775725  1
  Te  Te88  1  0.46152447  0.78407390  0.38055977  1
  Te  Te89  1  0.43108220  0.75803101  0.75257115  1
  Te  Te90  1  0.76093796  0.07302289  0.09050059  1
  Te  Te91  1  0.73863991  0.08831415  0.37056776  1
  Te  Te92  1  0.76593751  0.10500872  0.73783686  1
  Te  Te93  1  0.75846338  0.42753238  0.10249398  1
  Te  Te94  1  0.74206678  0.41907567  0.41128936  1
  Te  Te95  1  0.79110657  0.38586441  0.73494918  1
  Te  Te96  1  0.74296354  0.75972396  0.09819484  1
  Te  Te97  1  0.77029822  0.73888319  0.42870131  1
  Te  Te98  1  0.75342559  0.73784357  0.76739725  1
  Te  Te99  1  0.08432934  0.28275063  0.25491350  1
  Te  Te100  1  0.05871497  0.29115501  0.55948248  1
  Te  Te101  1  0.05753173  0.26499566  0.93475414  1
  Te  Te102  1  0.05828932  0.56660293  0.27939715  1
  Te  Te103  1  0.07138099  0.56836115  0.55799079  1
  Te  Te104  1  0.03205496  0.52414518  0.90606699  1
  Te  Te105  1  0.09529039  0.92628911  0.22991476  1
  Te  Te106  1  0.08255499  0.90920936  0.60740256  1
  Te  Te107  1  0.07802699  0.92374223  0.91871515  1
  Te  Te108  1  0.42070775  0.26238899  0.24514827  1
  Te  Te109  1  0.42834855  0.26671542  0.59039908  1
  Te  Te110  1  0.38608575  0.25750797  0.91823475  1
  Te  Te111  1  0.42402452  0.59902075  0.26411699  1
  Te  Te112  1  0.42500871  0.58300974  0.59053066  1
  Te  Te113  1  0.40067561  0.59899332  0.91707819  1
  Te  Te114  1  0.41319619  0.89987007  0.28702048  1
  Te  Te115  1  0.41651363  0.91588265  0.56900041  1
  Te  Te116  1  0.40552943  0.89526745  0.88651433  1
  Te  Te117  1  0.76085320  0.22319815  0.28587435  1
  Te  Te118  1  0.75527629  0.26363091  0.58636372  1
  Te  Te119  1  0.75472355  0.26297410  0.90727713  1
  Te  Te120  1  0.75858406  0.58005398  0.25235668  1
  Te  Te121  1  0.72547815  0.53754305  0.54718711  1
  Te  Te122  1  0.74926092  0.55446539  0.91345890  1
  Te  Te123  1  0.72005508  0.90020004  0.25933803  1
  Te  Te124  1  0.74842148  0.90418614  0.58267160  1
  Te  Te125  1  0.75063527  0.90130691  0.93488152  1
  Te  Te126  1  0.23668210  0.26693170  0.10103768  1
  Te  Te127  1  0.24247301  0.24858552  0.42821868  1
  Te  Te128  1  0.23993005  0.24685319  0.75765909  1
  Te  Te129  1  0.23915410  0.56938679  0.07481634  1
  Te  Te130  1  0.25201564  0.59868367  0.40221595  1
  Te  Te131  1  0.24207636  0.59254958  0.74857707  1
  Te  Te132  1  0.26974022  0.89853167  0.10339088  1
  Te  Te133  1  0.24583906  0.92114806  0.41356955  1
  Te  Te134  1  0.25872881  0.90810419  0.75738279  1
  Te  Te135  1  0.60457012  0.23661984  0.08468880  1
  Te  Te136  1  0.57576411  0.26946910  0.42663716  1
  Te  Te137  1  0.57888450  0.26248086  0.72890183  1
  Te  Te138  1  0.59425450  0.56345608  0.10434697  1
  Te  Te139  1  0.57775753  0.59264578  0.41163780  1
  Te  Te140  1  0.58639659  0.58906071  0.78099389  1
  Te  Te141  1  0.53371623  0.89800810  0.07103003  1
  Te  Te142  1  0.62517701  0.93655134  0.38126398  1
  Te  Te143  1  0.60286238  0.93199575  0.74570300  1
  Te  Te144  1  0.91598347  0.27253005  0.08071275  1
  Te  Te145  1  0.87364874  0.24448094  0.39641042  1
  Te  Te146  1  0.95105584  0.30866449  0.75881028  1
  Te  Te147  1  0.93553096  0.56032594  0.09612761  1
  Te  Te148  1  0.93460305  0.56468082  0.43579797  1
  Te  Te149  1  0.88516856  0.56453011  0.72715197  1
  Te  Te150  1  0.91356150  0.89936887  0.09729784  1
  Te  Te151  1  0.92092057  0.90399399  0.41201884  1
  Te  Te152  1  0.91787729  0.92818346  0.76114968  1
  Te  Te153  1  0.25414254  0.09581872  0.26794037  1
  Te  Te154  1  0.24877280  0.08983903  0.59641225  1
  Te  Te155  1  0.23878354  0.06998434  0.91903961  1
  Te  Te156  1  0.25393359  0.43706345  0.24367263  1
  Te  Te157  1  0.24667210  0.40346746  0.56377377  1
  Te  Te158  1  0.23423622  0.41756987  0.94327892  1
  Te  Te159  1  0.24866867  0.72484504  0.23935792  1
  Te  Te160  1  0.24690614  0.75878213  0.57165656  1
  Te  Te161  1  0.22904652  0.74260558  0.91762704  1
  Te  Te162  1  0.57848735  0.08857603  0.21980628  1
  Te  Te163  1  0.58179910  0.09960491  0.55699497  1
  Te  Te164  1  0.60831430  0.07717539  0.92628054  1
  Te  Te165  1  0.61534973  0.39734389  0.26645957  1
  Te  Te166  1  0.61460597  0.44746400  0.63001343  1
  Te  Te167  1  0.57191644  0.40788595  0.91829466  1
  Te  Te168  1  0.62417370  0.77844108  0.22561077  1
  Te  Te169  1  0.59946237  0.73128278  0.58852291  1
  Te  Te170  1  0.57749041  0.72730636  0.93509088  1
  Te  Te171  1  0.92829890  0.08427697  0.24301391  1
  Te  Te172  1  0.89164939  0.08148255  0.56288528  1
  Te  Te173  1  0.91830210  0.10010355  0.90090205  1
  Te  Te174  1  0.93480058  0.39447408  0.25770253  1
  Te  Te175  1  0.86610816  0.44962990  0.61841871  1
  Te  Te176  1  0.92442547  0.41341663  0.88180505  1
  Te  Te177  1  0.91608812  0.73014740  0.26809731  1
  Te  Te178  1  0.92573738  0.74382186  0.59236867  1
  Te  Te179  1  0.91178249  0.74005569  0.94673278  1
