# generated using pymatgen
data_In2Te3
_symmetry_space_group_name_H-M   'P 1'
_cell_length_a   18.76009078
_cell_length_b   18.76328525
_cell_length_c   18.76675939
_cell_angle_alpha   90.01900604
_cell_angle_beta   90.01942912
_cell_angle_gamma   90.04761125
_symmetry_Int_Tables_number   1
_chemical_formula_structural   In2Te3
_chemical_formula_sum   'In72 Te108'
_cell_volume   6605.91382150
_cell_formula_units_Z   36
loop_
 _symmetry_equiv_pos_site_id
 _symmetry_equiv_pos_as_xyz
  1  'x, y, z'
loop_
 _atom_site_type_symbol
 _atom_site_label
 _atom_site_symmetry_multiplicity
 _atom_site_fract_x
 _atom_site_fract_y
 _atom_site_fract_z
 _atom_site_occupancy
  In  In0  1  -0.01154574  0.00173797  0.34148337  1
  In  In1  1  0.00359542  0.51370033  0.50577971  1
  In  In2  1  -0.00051469  0.34706435  0.35085090  1
  In  In3  1  0.33148450  0.33833715  -0.00074232  1
  In  In4  1  0.00114692  0.18154161  0.53298265  1
  In  In5  1  0.82959083  -0.01343930  0.17223680  1
  In  In6  1  0.35938312  0.84153878  0.20247428  1
  In  In7  1  0.50778436  0.36624668  0.53120832  1
  In  In8  1  0.32936599  -0.00564513  0.00169848  1
  In  In9  1  0.63597746  0.84449805  0.16638251  1
  In  In10  1  0.67162796  0.83136223  0.81230319  1
  In  In11  1  0.02169468  0.64754338  0.31051672  1
  In  In12  1  0.51288668  0.34662784  0.80529495  1
  In  In13  1  -0.01098216  0.52080384  0.82516345  1
  In  In14  1  0.33607124  0.50985443  0.49648096  1
  In  In15  1  0.83873726  0.13401804  -0.00515093  1
  In  In16  1  -0.01433003  0.67962925  0.00970463  1
  In  In17  1  0.67830540  -0.01213132  0.35771829  1
  In  In18  1  0.66518552  0.34530364  0.35288091  1
  In  In19  1  0.00578709  0.84125634  0.50093063  1
  In  In20  1  0.83288790  0.16285586  0.65107819  1
  In  In21  1  0.14943033  0.01014327  0.81398734  1
  In  In22  1  0.67467631  0.33971682  -0.01403759  1
  In  In23  1  0.80137103  -0.01883321  0.52769116  1
  In  In24  1  0.51461517  0.51348214  0.36088479  1
  In  In25  1  0.65074731  0.16275368  0.81177043  1
  In  In26  1  0.47541677  0.14872633  -0.01050092  1
  In  In27  1  0.82628639  0.35100347  0.49485739  1
  In  In28  1  0.84734152  0.34135823  0.18203890  1
  In  In29  1  0.33590185  0.48739267  0.18202531  1
  In  In30  1  0.16708141  0.83610139  0.33451999  1
  In  In31  1  0.82191621  0.66627823  0.20016561  1
  In  In32  1  0.66349731  0.16323288  0.17783072  1
  In  In33  1  0.48918132  0.32819876  0.17017124  1
  In  In34  1  0.04035421  0.31639894  -0.00638275  1
  In  In35  1  0.66122863  0.51013611  0.80828409  1
  In  In36  1  0.18177631  0.48298184  0.00934999  1
  In  In37  1  0.86059341  -0.01995023  0.81264103  1
  In  In38  1  0.50088926  -0.02327335  0.50471277  1
  In  In39  1  0.83747199  0.50387611  0.01460416  1
  In  In40  1  0.81248807  0.69793542  0.79621071  1
  In  In41  1  0.66036199  0.67536097  0.35292738  1
  In  In42  1  0.17983279  0.34426340  0.17236977  1
  In  In43  1  0.31853675  0.17615976  0.78469525  1
  In  In44  1  0.14525564  0.67055523  0.80525639  1
  In  In45  1  0.34414785  0.48653665  0.83428491  1
  In  In46  1  -0.01107600  0.82617284  0.16709180  1
  In  In47  1  0.34134797  0.68372331  0.36907555  1
  In  In48  1  0.31953281  0.83168853  0.82471045  1
  In  In49  1  0.34864208  0.13493833  0.16800440  1
  In  In50  1  0.16619740  0.49255560  0.66004328  1
  In  In51  1  0.00544080  0.15512584  0.15112476  1
  In  In52  1  0.35552281  0.67889857  0.63913244  1
  In  In53  1  0.19146299  -0.00663605  0.49400596  1
  In  In54  1  0.65633963  0.66000043  -0.00538912  1
  In  In55  1  0.81326232  0.65643653  0.51187835  1
  In  In56  1  0.51102901  0.66253551  0.82647158  1
  In  In57  1  0.35358339  0.17136671  0.50938357  1
  In  In58  1  0.18555375  0.83123176  0.65806148  1
  In  In59  1  0.18546886  0.15767728  0.32878046  1
  In  In60  1  0.83448847  0.34818795  0.81119248  1
  In  In61  1  0.00415636  0.31178459  0.64751390  1
  In  In62  1  0.14462122  0.16389016  -0.00874735  1
  In  In63  1  0.14203642  0.32552384  0.51974990  1
  In  In64  1  0.49778330  -0.00425547  0.81601272  1
  In  In65  1  0.65706269  0.13987801  0.50557482  1
  In  In66  1  0.16444461  0.84667031  -0.01196495  1
  In  In67  1  0.49440214  0.16331278  0.32180145  1
  In  In68  1  0.83233475  0.83866680  -0.00211143  1
  In  In69  1  0.51023616  0.67059155  0.15973004  1
  In  In70  1  0.33850120  0.66554702  0.03016526  1
  In  In71  1  -0.00769008  0.67159097  0.67804160  1
  Te  Te72  1  0.09990325  0.06217648  0.08792525  1
  Te  Te73  1  0.08163421  0.09250215  0.42549735  1
  Te  Te74  1  0.07100692  0.11028654  0.74031556  1
  Te  Te75  1  0.06891652  0.42511577  0.10235434  1
  Te  Te76  1  0.10280110  0.43614674  0.41918604  1
  Te  Te77  1  0.06795871  0.41594971  0.74728499  1
  Te  Te78  1  0.09546480  0.75021756  0.08836621  1
  Te  Te79  1  0.08496884  0.73975353  0.41945379  1
  Te  Te80  1  0.06246049  0.79244465  0.75348377  1
  Te  Te81  1  0.45051071  0.03961365  0.09994649  1
  Te  Te82  1  0.40862696  0.06547499  0.40351378  1
  Te  Te83  1  0.42352099  0.08898504  0.72635543  1
  Te  Te84  1  0.42722865  0.43079294  0.07255492  1
  Te  Te85  1  0.41992909  0.40657937  0.41419169  1
  Te  Te86  1  0.42845777  0.43713050  0.72420815  1
  Te  Te87  1  0.43026659  0.77491382  0.08127105  1
  Te  Te88  1  0.42627425  0.77843712  0.44746074  1
  Te  Te89  1  0.42981982  0.76386347  0.74341495  1
  Te  Te90  1  0.73373208  0.06545847  0.08204115  1
  Te  Te91  1  0.77074753  0.09190429  0.41775274  1
  Te  Te92  1  0.75318904  0.07255219  0.74426480  1
  Te  Te93  1  0.74138980  0.41920892  0.09779013  1
  Te  Te94  1  0.75098697  0.45073672  0.41351061  1
  Te  Te95  1  0.72587845  0.40170258  0.72560804  1
  Te  Te96  1  0.74867352  0.74585671  0.08691435  1
  Te  Te97  1  0.73987215  0.76671896  0.44162890  1
  Te  Te98  1  0.71726483  0.74997511  0.69181300  1
  Te  Te99  1  0.07796173  0.24930152  0.25098280  1
  Te  Te100  1  0.13272012  0.20428540  0.63129392  1
  Te  Te101  1  0.08391995  0.23542102  0.87626210  1
  Te  Te102  1  0.08389108  0.55862376  0.21328261  1
  Te  Te103  1  0.09578836  0.60621324  0.58632173  1
  Te  Te104  1  0.08558647  0.58206304  0.92892406  1
  Te  Te105  1  0.07859376  0.92439144  0.24608749  1
  Te  Te106  1  0.08947692  0.93198828  0.59049863  1
  Te  Te107  1  0.07020349  0.92970008  0.91114427  1
  Te  Te108  1  0.38920632  0.25369584  0.25706243  1
  Te  Te109  1  0.43834013  0.25451860  0.60236522  1
  Te  Te110  1  0.41709165  0.25779980  0.89924593  1
  Te  Te111  1  0.41974464  0.59180916  0.26076272  1
  Te  Te112  1  0.44607856  0.58091314  0.57077566  1
  Te  Te113  1  0.41812260  0.58730247  0.92383497  1
  Te  Te114  1  0.40737923  0.94270692  0.30016917  1
  Te  Te115  1  0.40473768  0.88484262  0.57769973  1
  Te  Te116  1  0.41875614  0.90699971  0.91400815  1
  Te  Te117  1  0.75170606  0.25261169  0.26434410  1
  Te  Te118  1  0.73891470  0.25305096  0.57433484  1
  Te  Te119  1  0.75625173  0.23970240  0.90562300  1
  Te  Te120  1  0.72665553  0.57458877  0.26461186  1
  Te  Te121  1  0.70985167  0.56509805  0.56930328  1
  Te  Te122  1  0.76319003  0.58684645  0.90948107  1
  Te  Te123  1  0.74877006  0.89237415  0.25881705  1
  Te  Te124  1  0.72255522  0.90122549  0.62544352  1
  Te  Te125  1  0.74574990  0.92404609  0.90898460  1
  Te  Te126  1  0.25557431  0.23632626  0.08438828  1
  Te  Te127  1  0.24726035  0.25084562  0.43104972  1
  Te  Te128  1  0.24123086  0.27989094  0.71541037  1
  Te  Te129  1  0.23713580  0.58393219  0.11119435  1
  Te  Te130  1  0.24036824  0.58447631  0.41233018  1
  Te  Te131  1  0.26119100  0.58905532  0.74271600  1
  Te  Te132  1  0.25715500  0.90034368  0.09673585  1
  Te  Te133  1  0.27817063  0.90379785  0.41028895  1
  Te  Te134  1  0.26191420  0.94007987  0.73583366  1
  Te  Te135  1  0.57802404  0.24394107  0.07531590  1
  Te  Te136  1  0.57258482  0.24431020  0.42531260  1
  Te  Te137  1  0.57971911  0.24860320  0.71450790  1
  Te  Te138  1  0.58906699  0.56878772  0.08818938  1
  Te  Te139  1  0.57604477  0.60706854  0.46153733  1
  Te  Te140  1  0.59431164  0.60640227  0.71675997  1
  Te  Te141  1  0.57083704  0.93930830  0.07800200  1
  Te  Te142  1  0.60938698  0.88585646  0.44492345  1
  Te  Te143  1  0.59466958  0.92676561  0.72036102  1
  Te  Te144  1  0.90936568  0.25204726  0.06979100  1
  Te  Te145  1  0.91303585  0.24545778  0.42401001  1
  Te  Te146  1  0.91953638  0.23559781  0.75450856  1
  Te  Te147  1  0.92120743  0.58625624  0.11203093  1
  Te  Te148  1  0.91401571  0.59484018  0.41465119  1
  Te  Te149  1  0.88292858  0.57651506  0.73062081  1
  Te  Te150  1  0.93003351  0.93011154  0.07166150  1
  Te  Te151  1  0.89615720  0.91208835  0.42132735  1
  Te  Te152  1  0.92449838  0.87159896  0.73597042  1
  Te  Te153  1  0.25176890  0.05520969  0.24645403  1
  Te  Te154  1  0.27505179  0.07182250  0.58883688  1
  Te  Te155  1  0.26032213  0.09099363  0.90627648  1
  Te  Te156  1  0.25388012  0.41263110  0.27961504  1
  Te  Te157  1  0.26198253  0.40157312  0.58560424  1
  Te  Te158  1  0.23478465  0.39651055  0.89532867  1
  Te  Te159  1  0.25579492  0.74085012  0.25298556  1
  Te  Te160  1  0.25078220  0.74483195  0.55756474  1
  Te  Te161  1  0.24971032  0.73089862  0.91661281  1
  Te  Te162  1  0.58596467  0.05901567  0.25848027  1
  Te  Te163  1  0.56777128  0.06960011  0.60090154  1
  Te  Te164  1  0.58703557  0.07306971  0.91761654  1
  Te  Te165  1  0.57720654  0.42114564  0.25221196  1
  Te  Te166  1  0.63054177  0.42920830  0.58370401  1
  Te  Te167  1  0.57935947  0.43335049  0.91405362  1
  Te  Te168  1  0.56110255  0.76246733  0.27065428  1
  Te  Te169  1  0.52748904  0.79723443  0.56356907  1
  Te  Te170  1  0.57960551  0.76538102  0.91757122  1
  Te  Te171  1  0.90608107  0.09410869  0.25041547  1
  Te  Te172  1  0.92204901  0.05803362  0.58617309  1
  Te  Te173  1  0.93689947  0.06853496  0.90714490  1
  Te  Te174  1  0.91341765  0.43744743  0.27198513  1
  Te  Te175  1  0.91496125  0.42634382  0.59397586  1
  Te  Te176  1  0.92197006  0.41349253  0.92175886  1
  Te  Te177  1  0.91445198  0.75789268  0.27943296  1
  Te  Te178  1  0.90793363  0.75873678  0.58476527  1
  Te  Te179  1  0.91470547  0.75501628  0.89947184  1
