# generated using pymatgen
data_In2Te3
_symmetry_space_group_name_H-M   'P 1'
_cell_length_a   18.98558893
_cell_length_b   18.95553696
_cell_length_c   19.03690698
_cell_angle_alpha   90.11033454
_cell_angle_beta   89.83295525
_cell_angle_gamma   89.89269443
_symmetry_Int_Tables_number   1
_chemical_formula_structural   In2Te3
_chemical_formula_sum   'In72 Te108'
_cell_volume   6850.98687004
_cell_formula_units_Z   36
loop_
 _symmetry_equiv_pos_site_id
 _symmetry_equiv_pos_as_xyz
  1  'x, y, z'
loop_
 _atom_site_type_symbol
 _atom_site_label
 _atom_site_symmetry_multiplicity
 _atom_site_fract_x
 _atom_site_fract_y
 _atom_site_fract_z
 _atom_site_occupancy
  In  In0  1  0.82725175  0.11203701  0.03924159  1
  In  In1  1  0.65309290  0.16210297  0.84945241  1
  In  In2  1  0.30611190  0.66984388  0.66188879  1
  In  In3  1  0.17103416  0.46892250  0.00532794  1
  In  In4  1  0.32128569  0.33318356  0.32907602  1
  In  In5  1  0.16717819  0.81289434  0.68920982  1
  In  In6  1  0.82531417  0.16428042  0.34421942  1
  In  In7  1  0.50227973  0.68315762  0.51052003  1
  In  In8  1  0.69078463  0.85085617  0.49235216  1
  In  In9  1  0.48682072  0.15910290  0.66136562  1
  In  In10  1  0.69311227  0.87106086  0.15869971  1
  In  In11  1  0.87330415  0.69737029  0.17405505  1
  In  In12  1  0.49557872  0.14816083  0.30807654  1
  In  In13  1  0.67986484  0.51797226  0.51099587  1
  In  In14  1  0.18074973  0.29145499  0.16410955  1
  In  In15  1  0.82990635  0.35346529  0.49935823  1
  In  In16  1  0.16132294  0.16990868  0.66539891  1
  In  In17  1  -0.01382323  -0.02400790  0.32587672  1
  In  In18  1  -0.00946205  0.52063263  0.49465361  1
  In  In19  1  0.53311215  0.53523206  0.67585423  1
  In  In20  1  0.34138399  -0.01037265  0.67983146  1
  In  In21  1  0.49313805  0.01316490  0.47323777  1
  In  In22  1  0.15007665  0.71676694  0.49397224  1
  In  In23  1  0.18087546  0.32475034  0.50901979  1
  In  In24  1  0.33999191  0.14075801  0.84846071  1
  In  In25  1  0.00706182  0.66391762  0.01372172  1
  In  In26  1  0.14130033  -0.01919199  0.49327471  1
  In  In27  1  -0.00861520  0.15682626  0.83101165  1
  In  In28  1  0.02083446  0.35649262  0.34924744  1
  In  In29  1  0.17966942  0.71405389  0.16439166  1
  In  In30  1  0.84297723  0.68585254  0.50293928  1
  In  In31  1  -0.01000909  0.30106279  -0.01929294  1
  In  In32  1  0.34410421  0.14955228  0.48925362  1
  In  In33  1  0.34965100  0.67855099  -0.01418204  1
  In  In34  1  -0.02786954  0.51879495  0.83061967  1
  In  In35  1  0.81691786  0.66547001  0.83380106  1
  In  In36  1  0.63426845  0.67275592  0.31718584  1
  In  In37  1  0.48448323  0.11557270  0.01445589  1
  In  In38  1  0.47767223  0.35507216  0.81690574  1
  In  In39  1  0.33731391  0.86034826  0.43246707  1
  In  In40  1  0.64647759  0.69115459  -0.01331822  1
  In  In41  1  0.81633334  0.33943514  0.83504765  1
  In  In42  1  0.49878677  0.32780448  0.14102957  1
  In  In43  1  0.84923920  0.85270576  0.03220444  1
  In  In44  1  0.18506385  0.54004444  0.31708995  1
  In  In45  1  0.01673475  0.13875308  0.16506573  1
  In  In46  1  0.01278413  0.84253145  0.85609915  1
  In  In47  1  0.37832356  0.36263697  0.70402421  1
  In  In48  1  0.82358742  0.52086935  0.36537381  1
  In  In49  1  0.80960645  -0.02059588  0.83632168  1
  In  In50  1  0.02651561  0.51113953  0.16980597  1
  In  In51  1  0.29873564  0.52014271  0.50036133  1
  In  In52  1  0.48677100  0.68195754  0.16478765  1
  In  In53  1  0.51991362  0.83412684  0.66885339  1
  In  In54  1  0.83354757  0.32861409  0.19634515  1
  In  In55  1  0.50424016  0.34528955  0.47941431  1
  In  In56  1  0.67582761  -0.02231291  0.65960772  1
  In  In57  1  0.84522289  0.17184264  0.65502007  1
  In  In58  1  0.68180976  0.00293357  0.32995913  1
  In  In59  1  0.63669254  0.31135855  0.30966604  1
  In  In60  1  0.33669351  0.81594912  0.84242232  1
  In  In61  1  0.34508504  0.52848166  0.15463430  1
  In  In62  1  0.32884244  0.31800713  -0.00849399  1
  In  In63  1  0.69174711  0.33640162  0.67681843  1
  In  In64  1  0.65247972  0.52023287  0.83721728  1
  In  In65  1  -0.01840319  -0.00211669  0.68534435  1
  In  In66  1  0.32789110  -0.04168296  0.01956725  1
  In  In67  1  0.64821681  0.50401422  0.15372203  1
  In  In68  1  0.16481166  0.32826819  0.81257411  1
  In  In69  1  0.15040060  0.51399241  0.66828880  1
  In  In70  1  0.14493443  0.06217783  0.28044922  1
  In  In71  1  0.65953458  0.31148248  0.00617181  1
  Te  Te72  1  0.05801082  0.05947347  0.04866467  1
  Te  Te73  1  0.06339683  0.08004376  0.41133372  1
  Te  Te74  1  0.09519054  0.07280823  0.75843703  1
  Te  Te75  1  0.07314890  0.38671118  0.08862284  1
  Te  Te76  1  0.11881630  0.44477974  0.42464723  1
  Te  Te77  1  0.06406038  0.42105982  0.75119454  1
  Te  Te78  1  0.07203084  0.77547916  0.08461417  1
  Te  Te79  1  0.09380647  0.79487760  0.38311961  1
  Te  Te80  1  0.07266062  0.73565622  0.77129321  1
  Te  Te81  1  0.41540390  0.03412433  0.11583888  1
  Te  Te82  1  0.38582240  0.06303718  0.37372933  1
  Te  Te83  1  0.44355462  0.06070929  0.76676362  1
  Te  Te84  1  0.41012197  0.42392292  0.06416232  1
  Te  Te85  1  0.39535506  0.43043890  0.41689301  1
  Te  Te86  1  0.42470080  0.49863348  0.77943968  1
  Te  Te87  1  0.40209898  0.77914777  0.08585682  1
  Te  Te88  1  0.44021293  0.75509826  0.39659340  1
  Te  Te89  1  0.41740054  0.74285558  0.73582049  1
  Te  Te90  1  0.75131498  0.00449664  0.10372798  1
  Te  Te91  1  0.75936734  0.07140361  0.43414115  1
  Te  Te92  1  0.75066597  0.09391967  0.74644000  1
  Te  Te93  1  0.74378894  0.40141919  0.09536841  1
  Te  Te94  1  0.72430191  0.40509995  0.39777640  1
  Te  Te95  1  0.75886370  0.45027388  0.74944121  1
  Te  Te96  1  0.75093573  0.73651785  0.09369237  1
  Te  Te97  1  0.74113653  0.73865952  0.40259427  1
  Te  Te98  1  0.70801222  0.75235005  0.78630234  1
  Te  Te99  1  0.07787169  0.24504860  0.26268698  1
  Te  Te100  1  0.07722714  0.25358965  0.58174086  1
  Te  Te101  1  0.10331557  0.23075982  0.90996776  1
  Te  Te102  1  0.08146090  0.62534808  0.24932924  1
  Te  Te103  1  0.07823130  0.61218983  0.57796359  1
  Te  Te104  1  0.08196717  0.56390176  0.92647189  1
  Te  Te105  1  0.09036720  0.93296643  0.22641420  1
  Te  Te106  1  0.07883544  0.90603679  0.60682461  1
  Te  Te107  1  0.07459177  0.94110448  0.94569332  1
  Te  Te108  1  0.40786579  0.25091877  0.23577256  1
  Te  Te109  1  0.41115994  0.25748018  0.57247500  1
  Te  Te110  1  0.43884073  0.23894623  0.91999084  1
  Te  Te111  1  0.41822469  0.59299685  0.26122995  1
  Te  Te112  1  0.41402116  0.57674101  0.58255686  1
  Te  Te113  1  0.43021305  0.58958435  0.90597885  1
  Te  Te114  1  0.39433309  0.87041108  0.29315244  1
  Te  Te115  1  0.43095275  0.91893448  0.57941448  1
  Te  Te116  1  0.42702390  0.90890164  0.91690352  1
  Te  Te117  1  0.73281829  0.22183857  0.23631091  1
  Te  Te118  1  0.74459137  0.24723830  0.56747411  1
  Te  Te119  1  0.76504049  0.23033393  0.92973195  1
  Te  Te120  1  0.73707381  0.57844266  0.25215722  1
  Te  Te121  1  0.77764690  0.58774637  0.59099738  1
  Te  Te122  1  0.74414849  0.58173955  0.93980249  1
  Te  Te123  1  0.77949937  0.89733594  0.28029493  1
  Te  Te124  1  0.78392848  0.90077235  0.59455538  1
  Te  Te125  1  0.74429355  0.88804350  0.93251057  1
  Te  Te126  1  0.25609435  0.21250964  0.06579029  1
  Te  Te127  1  0.24310690  0.23017585  0.40768400  1
  Te  Te128  1  0.27646627  0.23985831  0.74689213  1
  Te  Te129  1  0.22734804  0.58705279  0.08260123  1
  Te  Te130  1  0.25585221  0.63303108  0.41102666  1
  Te  Te131  1  0.23086173  0.59325763  0.75993296  1
  Te  Te132  1  0.22511235  0.94677516  0.13284813  1
  Te  Te133  1  0.20551255  0.90785243  0.37756417  1
  Te  Te134  1  0.24565826  0.91574401  0.76855547  1
  Te  Te135  1  0.58239627  0.21325971  0.08912980  1
  Te  Te136  1  0.57267723  0.22616371  0.41715166  1
  Te  Te137  1  0.58475427  0.24913128  0.74350442  1
  Te  Te138  1  0.56172353  0.59089095  0.06645525  1
  Te  Te139  1  0.57455883  0.57747215  0.42462797  1
  Te  Te140  1  0.60537149  0.63869270  0.75736053  1
  Te  Te141  1  0.60856767  0.90612743  0.03538227  1
  Te  Te142  1  0.58177680  0.91209397  0.40726652  1
  Te  Te143  1  0.61392040  0.89466578  0.76580252  1
  Te  Te144  1  0.90779357  0.24006946  0.09331444  1
  Te  Te145  1  0.91843106  0.26500909  0.41390486  1
  Te  Te146  1  0.91900283  0.26343182  0.75073853  1
  Te  Te147  1  0.91070805  0.57200780  0.09524901  1
  Te  Te148  1  0.93449481  0.61711366  0.39469353  1
  Te  Te149  1  0.92832598  0.62855706  0.74320356  1
  Te  Te150  1  0.97240400  0.92915565  0.06778250  1
  Te  Te151  1  0.95775201  0.86355639  0.42896857  1
  Te  Te152  1  0.90539463  0.88966649  0.75983788  1
  Te  Te153  1  0.25622088  0.08496560  0.18444990  1
  Te  Te154  1  0.25134942  0.06837786  0.57947660  1
  Te  Te155  1  0.25742392  0.05299805  0.92901387  1
  Te  Te156  1  0.23931554  0.41978097  0.23353909  1
  Te  Te157  1  0.25926250  0.41449274  0.60826580  1
  Te  Te158  1  0.25925600  0.41326861  0.89599953  1
  Te  Te159  1  0.30827396  0.76589339  0.21518305  1
  Te  Te160  1  0.26628554  0.78445159  0.56832307  1
  Te  Te161  1  0.23880134  0.75808915  0.93419115  1
  Te  Te162  1  0.57695122  0.04947770  0.23701428  1
  Te  Te163  1  0.58188364  0.07280718  0.58165089  1
  Te  Te164  1  0.59508711  0.05748003  0.93301245  1
  Te  Te165  1  0.55719295  0.42269554  0.24478316  1
  Te  Te166  1  0.58153590  0.41158980  0.59394093  1
  Te  Te167  1  0.58694403  0.40512146  0.91524910  1
  Te  Te168  1  0.58477901  0.78040755  0.22537746  1
  Te  Te169  1  0.61441668  0.75097856  0.58243317  1
  Te  Te170  1  0.53796859  0.79506660  0.96493997  1
  Te  Te171  1  0.90482077  0.07803439  0.24649092  1
  Te  Te172  1  0.92835008  0.08040590  0.57749759  1
  Te  Te173  1  0.90425926  0.06642518  0.91618913  1
  Te  Te174  1  0.92089135  0.43614659  0.26564944  1
  Te  Te175  1  0.91896261  0.43126747  0.58394801  1
  Te  Te176  1  0.90793054  0.41598158  0.92835833  1
  Te  Te177  1  0.90738468  0.81054504  0.25939199  1
  Te  Te178  1  0.93194964  0.78886644  0.55644144  1
  Te  Te179  1  0.90821909  0.74524537  0.93214771  1
