# generated using pymatgen
data_In2Te3
_symmetry_space_group_name_H-M   'P 1'
_cell_length_a   18.83211895
_cell_length_b   18.83418814
_cell_length_c   18.85332706
_cell_angle_alpha   89.95492349
_cell_angle_beta   90.05400327
_cell_angle_gamma   90.00756612
_symmetry_Int_Tables_number   1
_chemical_formula_structural   In2Te3
_chemical_formula_sum   'In72 Te108'
_cell_volume   6687.03757641
_cell_formula_units_Z   36
loop_
 _symmetry_equiv_pos_site_id
 _symmetry_equiv_pos_as_xyz
  1  'x, y, z'
loop_
 _atom_site_type_symbol
 _atom_site_label
 _atom_site_symmetry_multiplicity
 _atom_site_fract_x
 _atom_site_fract_y
 _atom_site_fract_z
 _atom_site_occupancy
  In  In0  1  0.52179520  0.01864548  0.51823217  1
  In  In1  1  0.82675005  0.68762611  0.17802140  1
  In  In2  1  0.65420274  0.48973315  0.50338796  1
  In  In3  1  -0.00906745  0.14375338  0.84069831  1
  In  In4  1  0.66815540  0.33924292  0.33355435  1
  In  In5  1  0.68532110  0.50334209  0.15919394  1
  In  In6  1  0.19059803  0.31416588  0.82350172  1
  In  In7  1  0.16984130  0.66457432  0.17787406  1
  In  In8  1  0.51932732  0.65232744  0.50869880  1
  In  In9  1  0.33649608  0.69716253  0.01170068  1
  In  In10  1  0.34872666  0.51884740  0.81741297  1
  In  In11  1  0.33469378  0.84385488  0.51315038  1
  In  In12  1  0.49140859  0.68427249  0.82854949  1
  In  In13  1  0.69904844  0.14425240  0.50027185  1
  In  In14  1  0.83916839  0.48864192  -0.00737856  1
  In  In15  1  0.38175847  0.18764816  0.54774665  1
  In  In16  1  0.33513542  0.48562080  0.21208360  1
  In  In17  1  0.53100752  0.47128413  -0.01842215  1
  In  In18  1  0.85688768  0.68158930  0.84441143  1
  In  In19  1  0.67746984  0.86607199  0.18648564  1
  In  In20  1  0.47921743  0.51909028  0.35174603  1
  In  In21  1  0.35831608  -0.00822360  0.32206454  1
  In  In22  1  0.33345201  0.36175690  0.34325478  1
  In  In23  1  0.16616631  0.16850993  0.67445971  1
  In  In24  1  0.17672044  0.49548818  0.63958701  1
  In  In25  1  -0.04887903  0.12618446  0.51397838  1
  In  In26  1  -0.00254695  0.31301548  0.68967836  1
  In  In27  1  0.67119690  0.68291227  0.65800534  1
  In  In28  1  0.35967656  0.31670464  -0.00371677  1
  In  In29  1  0.14811687  -0.00126442  0.51767896  1
  In  In30  1  0.33354719  0.16794662  0.15495728  1
  In  In31  1  0.33131149  0.01116637  0.69615219  1
  In  In32  1  -0.03498439  0.30666097  0.00277379  1
  In  In33  1  0.54174482  0.00394642  0.82665170  1
  In  In34  1  0.15622264  0.69711344  0.84652017  1
  In  In35  1  0.53693997  0.14867563  0.33105937  1
  In  In36  1  -0.01726187  0.84920898  0.81771346  1
  In  In37  1  0.15649778  0.81954931  0.32956885  1
  In  In38  1  0.16417112  0.49428578  0.30003956  1
  In  In39  1  -0.02438730  0.00129574  0.00413693  1
  In  In40  1  0.81374958  0.86263016  0.67799501  1
  In  In41  1  0.18464231  0.12768154  -0.03955103  1
  In  In42  1  0.31098142  0.68235760  0.32195219  1
  In  In43  1  0.77368264  0.28261695  0.81040330  1
  In  In44  1  0.16355448  -0.01273744  0.15009057  1
  In  In45  1  -0.02266189  0.50752145  0.81982300  1
  In  In46  1  0.82097409  0.67809690  0.48623024  1
  In  In47  1  -0.02095649  0.49829076  0.50939005  1
  In  In48  1  0.17786382  0.68715851  0.51059023  1
  In  In49  1  0.50809702  0.31113471  0.17391526  1
  In  In50  1  0.34968407  0.68696902  0.67032898  1
  In  In51  1  -0.01856973  0.70434041  -0.02940635  1
  In  In52  1  0.16878202  0.33595283  0.52146528  1
  In  In53  1  0.15434561  0.17912001  0.33845764  1
  In  In54  1  0.67960312  0.13744308  0.13441646  1
  In  In55  1  0.67342110  0.84097586  0.50358029  1
  In  In56  1  0.16011031  0.48713599  0.00789706  1
  In  In57  1  0.50745532  0.86021025  -0.00788300  1
  In  In58  1  0.67319752  0.66804507  0.00426477  1
  In  In59  1  -0.02737567  0.87293414  0.50353606  1
  In  In60  1  0.51546296  0.81644993  0.32997898  1
  In  In61  1  -0.00682869  0.31762090  0.34096483  1
  In  In62  1  -0.04772353  0.01840115  0.30959020  1
  In  In63  1  -0.00686778  0.50783335  0.17035788  1
  In  In64  1  0.18431144  0.84774139  -0.01267254  1
  In  In65  1  0.53643811  0.30039993  0.84354393  1
  In  In66  1  0.52069654  0.12847193  -0.00059770  1
  In  In67  1  0.83293176  0.32671206  0.51520515  1
  In  In68  1  0.32237137  0.46951966  0.49769611  1
  In  In69  1  0.51030464  0.47518321  0.67072567  1
  In  In70  1  0.83135892  0.30993066  0.16965248  1
  In  In71  1  -0.02213587  0.83836094  0.14634086  1
  Te  Te72  1  0.08453079  0.08845482  0.06964445  1
  Te  Te73  1  0.06513245  0.07555081  0.41232987  1
  Te  Te74  1  0.08696768  0.06768578  0.75167062  1
  Te  Te75  1  0.05957604  0.40156208  0.08266517  1
  Te  Te76  1  0.09049888  0.41816075  0.41724034  1
  Te  Te77  1  0.09534243  0.41866816  0.75085049  1
  Te  Te78  1  0.08996978  0.74894075  0.07492782  1
  Te  Te79  1  0.06794403  0.76318871  0.43719699  1
  Te  Te80  1  0.06126057  0.74564666  0.74666599  1
  Te  Te81  1  0.41888454  0.06795866  0.09005082  1
  Te  Te82  1  0.41785674  0.09002390  0.42346174  1
  Te  Te83  1  0.45157258  0.08811063  0.73633990  1
  Te  Te84  1  0.41929729  0.41570782  0.09523655  1
  Te  Te85  1  0.44642101  0.40038987  0.44148579  1
  Te  Te86  1  0.43243847  0.39950318  0.77798972  1
  Te  Te87  1  0.44139831  0.76514659  0.08683298  1
  Te  Te88  1  0.40829182  0.73839978  0.43104419  1
  Te  Te89  1  0.42243529  0.78742115  0.74908313  1
  Te  Te90  1  0.75009355  0.02366496  0.06387656  1
  Te  Te91  1  0.75520474  0.05418107  0.39502256  1
  Te  Te92  1  0.70919024  0.03884606  0.76915563  1
  Te  Te93  1  0.74793046  0.39631937  0.07272309  1
  Te  Te94  1  0.76277617  0.42192830  0.41823144  1
  Te  Te95  1  0.72923597  0.41297481  0.76043294  1
  Te  Te96  1  0.74995058  0.77406926  0.08058304  1
  Te  Te97  1  0.73259725  0.75811629  0.39653384  1
  Te  Te98  1  0.74670804  0.75697763  0.76572643  1
  Te  Te99  1  0.06244630  0.23621368  0.23528247  1
  Te  Te100  1  0.06078406  0.23822178  0.57041436  1
  Te  Te101  1  0.08238516  0.25033828  0.91072120  1
  Te  Te102  1  0.06247406  0.60502345  0.26745750  1
  Te  Te103  1  0.07694903  0.59331918  0.58089743  1
  Te  Te104  1  0.07555490  0.57971062  0.92029741  1
  Te  Te105  1  0.06883619  0.92140986  0.25381140  1
  Te  Te106  1  0.07197468  0.91236043  0.60683507  1
  Te  Te107  1  0.07416124  0.92352796  0.91671580  1
  Te  Te108  1  0.41265385  0.24190417  0.26967559  1
  Te  Te109  1  0.48476928  0.26552157  0.61764721  1
  Te  Te110  1  0.42692129  0.21367961  0.91075181  1
  Te  Te111  1  0.42039107  0.60970644  0.24370065  1
  Te  Te112  1  0.40616301  0.57211072  0.58548445  1
  Te  Te113  1  0.42281158  0.58604381  0.93190607  1
  Te  Te114  1  0.43125641  0.89669468  0.23846459  1
  Te  Te115  1  0.42228179  0.93313599  0.59784550  1
  Te  Te116  1  0.42232310  0.94607668  0.90393480  1
  Te  Te117  1  0.73099849  0.22953779  0.25113844  1
  Te  Te118  1  0.76977906  0.22568081  0.60338051  1
  Te  Te119  1  0.74581630  0.22063412  0.94144628  1
  Te  Te120  1  0.77469752  0.57121256  0.25208397  1
  Te  Te121  1  0.75042102  0.57894454  0.58201789  1
  Te  Te122  1  0.75527157  0.58360305  0.90808799  1
  Te  Te123  1  0.75571241  0.96551660  0.26638661  1
  Te  Te124  1  0.75108591  0.95260400  0.57108137  1
  Te  Te125  1  0.67749723  0.93426919  0.87127620  1
  Te  Te126  1  0.24259521  0.23833526  0.05501765  1
  Te  Te127  1  0.25612537  0.25266341  0.42673231  1
  Te  Te128  1  0.27851623  0.21850562  0.75639416  1
  Te  Te129  1  0.25584296  0.57595900  0.08795319  1
  Te  Te130  1  0.24181867  0.57741081  0.41463399  1
  Te  Te131  1  0.23789932  0.59481657  0.74598316  1
  Te  Te132  1  0.27364244  0.93277571  0.06849819  1
  Te  Te133  1  0.24472115  0.91694977  0.41193521  1
  Te  Te134  1  0.21265933  0.96517018  0.77230653  1
  Te  Te135  1  0.59102189  0.25032428  0.06598783  1
  Te  Te136  1  0.59866109  0.24363308  0.42967691  1
  Te  Te137  1  0.58666003  0.21873913  0.72711906  1
  Te  Te138  1  0.57828613  0.57830911  0.08294902  1
  Te  Te139  1  0.60441628  0.59222693  0.39970597  1
  Te  Te140  1  0.57741848  0.59271563  0.74172935  1
  Te  Te141  1  0.61340899  0.94261736  0.06680882  1
  Te  Te142  1  0.58168631  0.92695907  0.41295983  1
  Te  Te143  1  0.61925006  0.92044601  0.72400057  1
  Te  Te144  1  0.89537505  0.20149318  0.08457557  1
  Te  Te145  1  0.89386227  0.22840850  0.41448407  1
  Te  Te146  1  0.89712868  0.21257063  0.74149538  1
  Te  Te147  1  0.91807869  0.59634114  0.06946750  1
  Te  Te148  1  0.91012333  0.58376946  0.41273359  1
  Te  Te149  1  0.90518236  0.59889176  0.73174127  1
  Te  Te150  1  0.88457332  0.95330026  0.11613530  1
  Te  Te151  1  0.87303736  0.93456813  0.40547862  1
  Te  Te152  1  0.89948853  0.95845655  0.75661233  1
  Te  Te153  1  0.24307745  0.07929153  0.25570126  1
  Te  Te154  1  0.25858113  0.08967656  0.57041380  1
  Te  Te155  1  0.28013066  0.03319333  0.89534699  1
  Te  Te156  1  0.22868619  0.37791815  0.22835190  1
  Te  Te157  1  0.27833806  0.38376911  0.61705402  1
  Te  Te158  1  0.26234370  0.42166956  0.91453832  1
  Te  Te159  1  0.25708651  0.78251450  0.22057527  1
  Te  Te160  1  0.23964588  0.78053302  0.61437700  1
  Te  Te161  1  0.27991405  0.77195195  0.89115618  1
  Te  Te162  1  0.57870828  0.06433809  0.21931578  1
  Te  Te163  1  0.59534348  0.10977028  0.61285270  1
  Te  Te164  1  0.64222056  0.12059430  0.89837457  1
  Te  Te165  1  0.56836219  0.42614451  0.25504306  1
  Te  Te166  1  0.61644490  0.39071286  0.60890814  1
  Te  Te167  1  0.63080016  0.41697440  0.88047751  1
  Te  Te168  1  0.61860375  0.74471176  0.25161308  1
  Te  Te169  1  0.56503097  0.76933419  0.59108743  1
  Te  Te170  1  0.59334505  0.76016110  0.91153448  1
  Te  Te171  1  0.92579804  0.13883730  0.22740113  1
  Te  Te172  1  0.88529514  0.02943767  0.60566478  1
  Te  Te173  1  0.88194331  0.08592722  0.92374183  1
  Te  Te174  1  0.90799007  0.41141013  0.25418220  1
  Te  Te175  1  0.90878021  0.41446023  0.61594398  1
  Te  Te176  1  0.90354389  0.39235125  0.88949505  1
  Te  Te177  1  0.91762460  0.76893666  0.26025344  1
  Te  Te178  1  0.89396798  0.76980141  0.58448877  1
  Te  Te179  1  0.88212891  0.81010653  0.92948106  1
