# generated using pymatgen
data_In2Te3
_symmetry_space_group_name_H-M   'P 1'
_cell_length_a   18.98286585
_cell_length_b   18.95404308
_cell_length_c   18.97546891
_cell_angle_alpha   89.97605545
_cell_angle_beta   89.83677192
_cell_angle_gamma   89.96832332
_symmetry_Int_Tables_number   1
_chemical_formula_structural   In2Te3
_chemical_formula_sum   'In72 Te108'
_cell_volume   6827.38340925
_cell_formula_units_Z   36
loop_
 _symmetry_equiv_pos_site_id
 _symmetry_equiv_pos_as_xyz
  1  'x, y, z'
loop_
 _atom_site_type_symbol
 _atom_site_label
 _atom_site_symmetry_multiplicity
 _atom_site_fract_x
 _atom_site_fract_y
 _atom_site_fract_z
 _atom_site_occupancy
  In  In0  1  0.34549579  0.19138833  0.14299231  1
  In  In1  1  0.32464420  0.84630520  0.82296216  1
  In  In2  1  0.65376412  0.15949008  0.45763982  1
  In  In3  1  0.67451534  0.32232217  0.03053527  1
  In  In4  1  -0.00062682  0.84726652  0.84418196  1
  In  In5  1  0.65876978  -0.02114879  0.67454997  1
  In  In6  1  0.67278926  0.85721698  0.18272587  1
  In  In7  1  0.01847850  0.68593336  0.65555959  1
  In  In8  1  0.83946118  0.65514485  0.83053639  1
  In  In9  1  0.14621265  0.48740497  0.01062073  1
  In  In10  1  0.67985121  0.16868278  0.83530206  1
  In  In11  1  0.34699631  0.50046119  0.50951919  1
  In  In12  1  0.51333067  0.50730407  -0.01550872  1
  In  In13  1  0.00094663  0.68949246  0.00943117  1
  In  In14  1  0.36837236  0.67125910  -0.02523187  1
  In  In15  1  0.67487144  0.12745738  0.18409162  1
  In  In16  1  0.48806222  0.17608050  -0.01085071  1
  In  In17  1  0.65965890  0.66259356  0.02687915  1
  In  In18  1  0.51549413  0.33098798  0.47382745  1
  In  In19  1  0.50834631  0.63824773  0.81958044  1
  In  In20  1  0.51641803  0.84395918  0.00867993  1
  In  In21  1  0.17573329  0.49504517  0.34279096  1
  In  In22  1  0.17194455  0.01247860  0.83178885  1
  In  In23  1  0.85146079  0.17460971  0.32196050  1
  In  In24  1  0.49127967  0.16702335  0.66712141  1
  In  In25  1  0.50012006  0.34921768  0.18428552  1
  In  In26  1  0.17239013  -0.02847300  0.47522487  1
  In  In27  1  0.50379501  -0.01080486  0.48859097  1
  In  In28  1  0.83027524  0.84378806  0.33256479  1
  In  In29  1  0.17521032  0.30460934  0.81895200  1
  In  In30  1  0.30308931  0.84350812  0.17661088  1
  In  In31  1  0.81859626  0.16141393  0.65663253  1
  In  In32  1  0.82365104  0.64723330  0.49829781  1
  In  In33  1  0.32609192  0.32838100  -0.03893642  1
  In  In34  1  0.71770210  0.86326811  0.87190858  1
  In  In35  1  0.85468643  0.84332384  0.68062091  1
  In  In36  1  0.19054030  0.66732562  0.83392128  1
  In  In37  1  0.82719569  0.65518090  0.18489531  1
  In  In38  1  0.67262305  0.49461591  0.49853193  1
  In  In39  1  -0.00252281  0.00577788  0.32987700  1
  In  In40  1  0.36257231  0.66166341  0.36012864  1
  In  In41  1  -0.00655405  0.18550791  0.81596489  1
  In  In42  1  0.15326945  0.00416560  0.16078766  1
  In  In43  1  0.48925862  0.00312793  0.82324225  1
  In  In44  1  -0.00655820  0.86048120  0.17240066  1
  In  In45  1  0.52309687  0.50054926  0.34479611  1
  In  In46  1  -0.01785637  0.34301398  0.33526061  1
  In  In47  1  0.13078312  0.34058193  0.16699592  1
  In  In48  1  0.84612325  0.01290680  0.50717896  1
  In  In49  1  0.83816601  0.48942095  -0.00406289  1
  In  In50  1  0.64406917  0.83488327  0.47658779  1
  In  In51  1  -0.00245740  0.48494973  0.82905894  1
  In  In52  1  0.66122586  0.47158759  0.82347683  1
  In  In53  1  0.16168110  0.66805437  0.17891214  1
  In  In54  1  0.81342518  0.48827112  0.33314208  1
  In  In55  1  0.15907931  0.15019435  -0.01324996  1
  In  In56  1  0.50142950  0.83222917  0.65359139  1
  In  In57  1  0.67453782  0.32716994  0.65021071  1
  In  In58  1  0.16646158  0.16647265  0.34675965  1
  In  In59  1  -0.03088678  0.46769699  0.52976149  1
  In  In60  1  0.32092273  0.15770675  0.51031257  1
  In  In61  1  0.50815390  0.65369947  0.16630195  1
  In  In62  1  0.34792298  0.01627556  0.33466397  1
  In  In63  1  0.35075872  0.36445177  0.69641548  1
  In  In64  1  0.14068891  0.29902831  0.53327178  1
  In  In65  1  0.31181773  0.48763521  0.14925506  1
  In  In66  1  0.84999108  0.19569596  0.03137833  1
  In  In67  1  0.15364997  0.50670082  0.66388114  1
  In  In68  1  0.03229948  0.66497236  0.35197172  1
  In  In69  1  0.48751387  0.84000481  0.32338977  1
  In  In70  1  -0.00771382  0.01336443  -0.00478909  1
  In  In71  1  0.31299839  0.69882270  0.63061832  1
  Te  Te72  1  0.06077855  0.10476344  0.09540318  1
  Te  Te73  1  0.07345389  0.08614363  0.43219930  1
  Te  Te74  1  0.09531282  0.10555188  0.73947853  1
  Te  Te75  1  0.03845392  0.40504545  0.07092919  1
  Te  Te76  1  0.08479182  0.41049158  0.43250447  1
  Te  Te77  1  0.08226819  0.39719143  0.73930770  1
  Te  Te78  1  0.09375704  0.77246910  0.09380366  1
  Te  Te79  1  0.09137018  0.76219204  0.44549529  1
  Te  Te80  1  0.09478488  0.76090437  0.76242945  1
  Te  Te81  1  0.40378754  0.08304321  0.06573956  1
  Te  Te82  1  0.43312419  0.10628677  0.42155667  1
  Te  Te83  1  0.40547703  0.05498753  0.71269770  1
  Te  Te84  1  0.41177706  0.41157942  0.06409868  1
  Te  Te85  1  0.41125637  0.41640428  0.40159337  1
  Te  Te86  1  0.43701550  0.43508457  0.78614975  1
  Te  Te87  1  0.41377533  0.75013240  0.09744378  1
  Te  Te88  1  0.41089131  0.77995927  0.43491200  1
  Te  Te89  1  0.41433318  0.74386513  0.75362256  1
  Te  Te90  1  0.75027269  0.08693873  0.06060324  1
  Te  Te91  1  0.76085560  0.07197545  0.39940050  1
  Te  Te92  1  0.75464914  0.06155866  0.75640471  1
  Te  Te93  1  0.75913632  0.42068214  0.10132888  1
  Te  Te94  1  0.77119684  0.40096831  0.44221954  1
  Te  Te95  1  0.76428733  0.41400066  0.73155682  1
  Te  Te96  1  0.75232655  0.75528003  0.09590898  1
  Te  Te97  1  0.74491825  0.74374403  0.40728604  1
  Te  Te98  1  0.75658198  0.76083379  0.76027733  1
  Te  Te99  1  0.06650231  0.23886777  0.25816848  1
  Te  Te100  1  0.07070078  0.20918124  0.62490624  1
  Te  Te101  1  0.07412773  0.25702239  0.92171389  1
  Te  Te102  1  0.08022223  0.55951301  0.24492663  1
  Te  Te103  1  0.06980809  0.57736690  0.56172050  1
  Te  Te104  1  0.07514303  0.59550644  0.91267641  1
  Te  Te105  1  0.10069771  0.91039773  0.26850437  1
  Te  Te106  1  0.08869954  0.87594633  0.55499045  1
  Te  Te107  1  0.09711456  0.92496231  0.93029109  1
  Te  Te108  1  0.41548227  0.25346980  0.25494352  1
  Te  Te109  1  0.41973672  0.26487381  0.57651849  1
  Te  Te110  1  0.39684299  0.22646958  0.88242741  1
  Te  Te111  1  0.40384175  0.56927422  0.23963025  1
  Te  Te112  1  0.41363769  0.60002705  0.59357216  1
  Te  Te113  1  0.39767948  0.54698969  0.88984429  1
  Te  Te114  1  0.41620334  0.93070411  0.22722562  1
  Te  Te115  1  0.41402548  0.93389902  0.59281414  1
  Te  Te116  1  0.41401463  0.91822476  0.92436702  1
  Te  Te117  1  0.74210736  0.23989380  0.24877382  1
  Te  Te118  1  0.74563890  0.24020239  0.54896102  1
  Te  Te119  1  0.76135092  0.26219365  0.92073353  1
  Te  Te120  1  0.72782180  0.58689639  0.26622491  1
  Te  Te121  1  0.75154225  0.57087147  0.59863798  1
  Te  Te122  1  0.73590928  0.58239752  0.91846311  1
  Te  Te123  1  0.78799527  0.94051393  0.22952960  1
  Te  Te124  1  0.74470887  0.90985417  0.57117532  1
  Te  Te125  1  0.76464299  0.95154556  0.97728628  1
  Te  Te126  1  0.23111284  0.26609474  0.07169444  1
  Te  Te127  1  0.24773046  0.26310850  0.42828674  1
  Te  Te128  1  0.27466225  0.24430289  0.73022897  1
  Te  Te129  1  0.24493336  0.59562182  0.06672610  1
  Te  Te130  1  0.24852953  0.59091238  0.43346410  1
  Te  Te131  1  0.26168456  0.58680888  0.72923340  1
  Te  Te132  1  0.25092989  0.93511686  0.07623825  1
  Te  Te133  1  0.29079241  0.90471020  0.41354596  1
  Te  Te134  1  0.22728824  0.91240085  0.73837889  1
  Te  Te135  1  0.57296327  0.23522074  0.10259113  1
  Te  Te136  1  0.60136203  0.26680104  0.37005905  1
  Te  Te137  1  0.58565933  0.25145326  0.74938267  1
  Te  Te138  1  0.59752976  0.54848963  0.10397786  1
  Te  Te139  1  0.57755981  0.59288530  0.44124602  1
  Te  Te140  1  0.61007620  0.57808579  0.73495966  1
  Te  Te141  1  0.58581144  0.93834209  0.09583039  1
  Te  Te142  1  0.59792334  0.94545167  0.37288271  1
  Te  Te143  1  0.58655556  0.89297936  0.77514330  1
  Te  Te144  1  0.90500235  0.30377447  0.11495744  1
  Te  Te145  1  0.92895153  0.24258055  0.42682887  1
  Te  Te146  1  0.89598608  0.26605722  0.73362804  1
  Te  Te147  1  0.91907300  0.58768083  0.08438813  1
  Te  Te148  1  0.92577878  0.57136327  0.40950601  1
  Te  Te149  1  0.93173774  0.58536897  0.73559141  1
  Te  Te150  1  0.90769992  0.90867119  0.06060956  1
  Te  Te151  1  0.92705353  0.91113416  0.42659830  1
  Te  Te152  1  0.93522664  0.94030393  0.75201730  1
  Te  Te153  1  0.25034430  0.09622582  0.24243074  1
  Te  Te154  1  0.22184895  0.07133436  0.57297896  1
  Te  Te155  1  0.26812039  0.10202802  0.90106063  1
  Te  Te156  1  0.24627069  0.39680731  0.24985822  1
  Te  Te157  1  0.24459505  0.41059036  0.58349651  1
  Te  Te158  1  0.22755010  0.42699090  0.90085996  1
  Te  Te159  1  0.25681032  0.73589914  0.27260387  1
  Te  Te160  1  0.19746817  0.76086676  0.56473498  1
  Te  Te161  1  0.25452091  0.75999401  0.93308215  1
  Te  Te162  1  0.57777674  0.04828364  0.25830586  1
  Te  Te163  1  0.59435281  0.08260212  0.58382531  1
  Te  Te164  1  0.58260137  0.08249323  0.91312802  1
  Te  Te165  1  0.60747086  0.40952757  0.26548369  1
  Te  Te166  1  0.56945595  0.41489906  0.58575154  1
  Te  Te167  1  0.58330346  0.38831604  0.92457595  1
  Te  Te168  1  0.58593024  0.74830399  0.25336623  1
  Te  Te169  1  0.59689494  0.74722752  0.58362585  1
  Te  Te170  1  0.57423223  0.73309766  0.92367421  1
  Te  Te171  1  0.90569132  0.06682702  0.23261654  1
  Te  Te172  1  0.93414745  0.09065172  0.59528836  1
  Te  Te173  1  0.90775986  0.10789620  0.91416292  1
  Te  Te174  1  0.89571157  0.40979049  0.23222346  1
  Te  Te175  1  0.90598381  0.38609650  0.63264936  1
  Te  Te176  1  0.90413933  0.39958050  0.90119533  1
  Te  Te177  1  0.93436944  0.74443601  0.26007355  1
  Te  Te178  1  0.90903004  0.75089981  0.57421799  1
  Te  Te179  1  0.90092291  0.76014607  0.92207934  1
