# generated using pymatgen
data_In2Te3
_symmetry_space_group_name_H-M   'P 1'
_cell_length_a   18.95320533
_cell_length_b   18.95417607
_cell_length_c   18.95899454
_cell_angle_alpha   89.98407927
_cell_angle_beta   90.23888107
_cell_angle_gamma   90.11810235
_symmetry_Int_Tables_number   1
_chemical_formula_structural   In2Te3
_chemical_formula_sum   'In72 Te108'
_cell_volume   6810.80061414
_cell_formula_units_Z   36
loop_
 _symmetry_equiv_pos_site_id
 _symmetry_equiv_pos_as_xyz
  1  'x, y, z'
loop_
 _atom_site_type_symbol
 _atom_site_label
 _atom_site_symmetry_multiplicity
 _atom_site_fract_x
 _atom_site_fract_y
 _atom_site_fract_z
 _atom_site_occupancy
  In  In0  1  0.83004073  0.33915301  0.84046433  1
  In  In1  1  0.15889626  0.50224531  0.01632414  1
  In  In2  1  -0.00929109  0.84077185  0.16118436  1
  In  In3  1  0.47050972  0.82323595  0.33574026  1
  In  In4  1  0.31461314  0.18759503  0.49740588  1
  In  In5  1  0.84281932  0.15101225  0.67685180  1
  In  In6  1  0.86464701  -0.00089605  0.49627915  1
  In  In7  1  0.31697417  0.81961885  0.16879873  1
  In  In8  1  0.83612284  0.81190050  0.31002080  1
  In  In9  1  0.67855874  0.48450196  0.51518295  1
  In  In10  1  0.50948010  0.67834873  0.84640885  1
  In  In11  1  0.83367336  0.85003638  -0.02127659  1
  In  In12  1  0.50076605  0.34627322  0.49289823  1
  In  In13  1  0.53691335  -0.01319664  0.15022798  1
  In  In14  1  0.00450296  -0.03212628  0.72390887  1
  In  In15  1  0.17466762  0.65655389  0.81544406  1
  In  In16  1  -0.04050902  0.54303013  0.47059553  1
  In  In17  1  0.67614925  0.50664181  0.19425211  1
  In  In18  1  0.67288269  0.32814683  0.01025395  1
  In  In19  1  0.50598640  0.67389418  0.48454554  1
  In  In20  1  0.47707671  0.15895150  0.29315146  1
  In  In21  1  0.25392500  0.15696453  0.85803023  1
  In  In22  1  0.50046977  -0.01683645  0.83573190  1
  In  In23  1  -0.01678874  0.69183695  0.00443203  1
  In  In24  1  0.17781673  0.34165515  0.18981066  1
  In  In25  1  0.00716654  0.50012700  0.80937040  1
  In  In26  1  0.73886670  0.15154649  0.17602469  1
  In  In27  1  -0.00839643  0.16202106  0.15474289  1
  In  In28  1  0.83778659  0.51641894  0.00303849  1
  In  In29  1  0.67184720  0.66444967  0.35171334  1
  In  In30  1  0.67804359  0.83193197  0.82176577  1
  In  In31  1  0.83407673  0.33798711  0.49479518  1
  In  In32  1  0.51855886  0.50509691  0.68316954  1
  In  In33  1  -0.00415248  0.31843167  0.66728895  1
  In  In34  1  0.17036103  0.61499091  0.48076119  1
  In  In35  1  0.30796313  -0.01669577  0.33157812  1
  In  In36  1  0.31479126  0.35101430  0.01229407  1
  In  In37  1  0.84923117  0.14201163  -0.01518601  1
  In  In38  1  0.49937865  0.50856224  0.02320368  1
  In  In39  1  0.48578580  0.32966120  0.13717950  1
  In  In40  1  0.13134885  0.15729744  0.34714450  1
  In  In41  1  0.33696274  0.64229012  0.65474380  1
  In  In42  1  0.49966016  0.30824754  0.82030215  1
  In  In43  1  0.01714646  0.28659036  -0.01870669  1
  In  In44  1  0.18218102  0.83737826  0.66274575  1
  In  In45  1  0.68973390  0.18602162  0.50552931  1
  In  In46  1  -0.01823199  0.46703188  0.19337397  1
  In  In47  1  0.50797008  0.66334190  0.17837915  1
  In  In48  1  0.34236344  0.01816224  0.65085172  1
  In  In49  1  0.50844018  0.16043997  0.67057356  1
  In  In50  1  0.67536694  0.00545702  0.69319465  1
  In  In51  1  0.67218971  0.52413913  0.86849567  1
  In  In52  1  0.16737651  0.15293462  0.66772238  1
  In  In53  1  0.47129918  0.49260858  0.31805216  1
  In  In54  1  0.15275069  0.37114365  0.48599790  1
  In  In55  1  -0.02473492  0.68433625  0.67490531  1
  In  In56  1  0.89720127  0.15130941  0.35368737  1
  In  In57  1  0.13979364  0.65642376  0.17437275  1
  In  In58  1  0.68163820  -0.02401690  0.33197430  1
  In  In59  1  -0.00540457  0.81606925  0.51646896  1
  In  In60  1  0.14566169  0.83553878  0.33652198  1
  In  In61  1  0.15949284  0.48962062  0.65702445  1
  In  In62  1  0.46744175  0.00093962  0.52212532  1
  In  In63  1  0.68626713  0.82446115  0.14178796  1
  In  In64  1  0.34439158  0.16305633  0.15404332  1
  In  In65  1  0.51384249  0.15952848  -0.01021361  1
  In  In66  1  0.33297223  0.84604524  0.82249323  1
  In  In67  1  0.33354965  0.68975132  -0.01044409  1
  In  In68  1  0.67885187  0.32799328  0.34747485  1
  In  In69  1  0.64910386  0.85278524  0.52545688  1
  In  In70  1  0.82021826  0.51839942  0.67093005  1
  In  In71  1  0.16366548  -0.00360916  0.14965655  1
  Te  Te72  1  0.08090718  0.08507276  0.05974547  1
  Te  Te73  1  0.02235091  0.09273314  0.42274437  1
  Te  Te74  1  0.06042207  0.10416387  0.76252882  1
  Te  Te75  1  0.07294974  0.39547915  0.08325710  1
  Te  Te76  1  0.04705395  0.44262609  0.40753283  1
  Te  Te77  1  0.09656906  0.39158295  0.75662076  1
  Te  Te78  1  0.09381648  0.76570355  0.07848354  1
  Te  Te79  1  0.08389500  0.72996948  0.42797551  1
  Te  Te80  1  0.08489573  0.75907294  0.74966231  1
  Te  Te81  1  0.42686349  0.06709001  0.07347383  1
  Te  Te82  1  0.40350147  0.09001910  0.40839471  1
  Te  Te83  1  0.41413129  0.08927777  0.76449839  1
  Te  Te84  1  0.39123825  0.44454041  0.10704262  1
  Te  Te85  1  0.39412061  0.40975470  0.41264489  1
  Te  Te86  1  0.42707160  0.41873071  0.75884679  1
  Te  Te87  1  0.42899442  0.75752670  0.08752963  1
  Te  Te88  1  0.39011413  0.74154176  0.42468630  1
  Te  Te89  1  0.41051487  0.73837862  0.74747624  1
  Te  Te90  1  0.74437162  0.06906762  0.05796950  1
  Te  Te91  1  0.75624061  0.08574371  0.41253992  1
  Te  Te92  1  0.78842518  0.05597954  0.77743567  1
  Te  Te93  1  0.75598573  0.42456322  0.09226979  1
  Te  Te94  1  0.77149723  0.43955229  0.39908644  1
  Te  Te95  1  0.73772689  0.43200532  0.76584712  1
  Te  Te96  1  0.78837663  0.74456390  0.07334729  1
  Te  Te97  1  0.73802602  0.78101055  0.42107922  1
  Te  Te98  1  0.77789720  0.78631318  0.72012357  1
  Te  Te99  1  0.06747238  0.25575893  0.25009095  1
  Te  Te100  1  0.09939119  0.25734182  0.57822349  1
  Te  Te101  1  0.12306635  0.22438403  0.90481541  1
  Te  Te102  1  0.08671822  0.54801219  0.26819344  1
  Te  Te103  1  0.05739681  0.58256883  0.59189184  1
  Te  Te104  1  0.07496261  0.59390499  0.91678105  1
  Te  Te105  1  0.07032255  0.93596950  0.25138610  1
  Te  Te106  1  0.07324048  0.92034460  0.59535914  1
  Te  Te107  1  0.10160242  0.97354155  0.84389735  1
  Te  Te108  1  0.39332875  0.27499391  0.24631620  1
  Te  Te109  1  0.42175174  0.25121426  0.58377416  1
  Te  Te110  1  0.41316287  0.25915484  0.93593638  1
  Te  Te111  1  0.40215421  0.60835098  0.26217236  1
  Te  Te112  1  0.43552528  0.56626759  0.57086621  1
  Te  Te113  1  0.41628556  0.58284940  0.92017352  1
  Te  Te114  1  0.41830997  0.93241954  0.23987031  1
  Te  Te115  1  0.39858042  0.89455835  0.59237977  1
  Te  Te116  1  0.41179836  0.91063454  0.92731649  1
  Te  Te117  1  0.78634510  0.26821377  0.25797488  1
  Te  Te118  1  0.76448545  0.26447145  0.60935435  1
  Te  Te119  1  0.74611324  0.23856823  0.91534373  1
  Te  Te120  1  0.76883652  0.60634225  0.25523409  1
  Te  Te121  1  0.75462278  0.59866172  0.56630223  1
  Te  Te122  1  0.76263947  0.62157396  0.93250656  1
  Te  Te123  1  0.77146141  0.92083067  0.22471989  1
  Te  Te124  1  0.76150178  0.93648557  0.58659967  1
  Te  Te125  1  0.75225774  0.94175447  0.89286684  1
  Te  Te126  1  0.23633379  0.24428818  0.08627680  1
  Te  Te127  1  0.22727867  0.26261132  0.40019788  1
  Te  Te128  1  0.27054127  0.23394220  0.73539341  1
  Te  Te129  1  0.25028409  0.60234028  0.08443233  1
  Te  Te130  1  0.26159050  0.53263266  0.40065957  1
  Te  Te131  1  0.26312199  0.55358719  0.75279028  1
  Te  Te132  1  0.25544879  0.91203953  0.07298600  1
  Te  Te133  1  0.22984704  0.91215044  0.43076149  1
  Te  Te134  1  0.24594977  0.94707289  0.74766721  1
  Te  Te135  1  0.59713410  0.23328809  0.10230095  1
  Te  Te136  1  0.57457832  0.23550079  0.41086641  1
  Te  Te137  1  0.60527030  0.22912122  0.75755190  1
  Te  Te138  1  0.60683282  0.59310720  0.08825878  1
  Te  Te139  1  0.58463276  0.55314187  0.40812643  1
  Te  Te140  1  0.60732972  0.60462397  0.75644185  1
  Te  Te141  1  0.59718047  0.89904044  0.04973703  1
  Te  Te142  1  0.56131923  0.92582705  0.41372290  1
  Te  Te143  1  0.57231196  0.90258650  0.72984038  1
  Te  Te144  1  0.90260908  0.25607096  0.07218202  1
  Te  Te145  1  0.94525065  0.26301871  0.43666563  1
  Te  Te146  1  0.92326709  0.23996686  0.77540676  1
  Te  Te147  1  0.93722025  0.58036297  0.09817374  1
  Te  Te148  1  0.89670734  0.62640146  0.36735773  1
  Te  Te149  1  0.89759742  0.59929713  0.77449129  1
  Te  Te150  1  0.93332960  0.93406232  0.05814324  1
  Te  Te151  1  0.92439006  0.89589988  0.40602232  1
  Te  Te152  1  0.89349381  0.87104452  0.76451241  1
  Te  Te153  1  0.24105045  0.09481869  0.25140353  1
  Te  Te154  1  0.23484860  0.07401570  0.55510911  1
  Te  Te155  1  0.20917592  0.03918810  0.93358096  1
  Te  Te156  1  0.21889538  0.46235217  0.26710329  1
  Te  Te157  1  0.25870385  0.41990348  0.57603686  1
  Te  Te158  1  0.23599946  0.42830284  0.91667743  1
  Te  Te159  1  0.23481532  0.73676486  0.26398592  1
  Te  Te160  1  0.23107948  0.71951389  0.57952414  1
  Te  Te161  1  0.23225088  0.76481524  0.90519923  1
  Te  Te162  1  0.60536782  0.08385618  0.25073017  1
  Te  Te163  1  0.59640212  0.07972800  0.57322200  1
  Te  Te164  1  0.59109297  0.08712185  0.89032573  1
  Te  Te165  1  0.58043021  0.39726202  0.24508037  1
  Te  Te166  1  0.59348954  0.39673182  0.60192845  1
  Te  Te167  1  0.57611100  0.41471495  0.93019688  1
  Te  Te168  1  0.59251178  0.76619032  0.25787962  1
  Te  Te169  1  0.59048900  0.73471918  0.58706871  1
  Te  Te170  1  0.59596434  0.76579364  0.92729411  1
  Te  Te171  1  0.90270862  0.07180707  0.23020851  1
  Te  Te172  1  0.93857958  0.09926489  0.57697090  1
  Te  Te173  1  0.96210303  0.04967823  0.95667012  1
  Te  Te174  1  0.87559126  0.39939971  0.26736390  1
  Te  Te175  1  0.91708909  0.42853805  0.59506862  1
  Te  Te176  1  0.93078349  0.42246626  0.91817279  1
  Te  Te177  1  0.94896110  0.73103889  0.25570809  1
  Te  Te178  1  0.87899569  0.74771545  0.58086011  1
  Te  Te179  1  0.94497973  0.78811918  0.89740206  1
