# generated using pymatgen
data_In2Te3
_symmetry_space_group_name_H-M   'P 1'
_cell_length_a   18.93187280
_cell_length_b   18.90707550
_cell_length_c   18.91574887
_cell_angle_alpha   89.87890954
_cell_angle_beta   89.77229816
_cell_angle_gamma   90.05532228
_symmetry_Int_Tables_number   1
_chemical_formula_structural   In2Te3
_chemical_formula_sum   'In72 Te108'
_cell_volume   6770.75143510
_cell_formula_units_Z   36
loop_
 _symmetry_equiv_pos_site_id
 _symmetry_equiv_pos_as_xyz
  1  'x, y, z'
loop_
 _atom_site_type_symbol
 _atom_site_label
 _atom_site_symmetry_multiplicity
 _atom_site_fract_x
 _atom_site_fract_y
 _atom_site_fract_z
 _atom_site_occupancy
  In  In0  1  0.51466496  0.34289198  0.86432917  1
  In  In1  1  0.16564136  0.18459510  0.00548121  1
  In  In2  1  0.16439782  0.33202463  0.83987801  1
  In  In3  1  0.84384570  0.82780227  0.68782343  1
  In  In4  1  0.34198786  -0.00678142  0.30676038  1
  In  In5  1  0.66823605  0.49888476  0.15771903  1
  In  In6  1  0.66464566  0.29598171  0.29706596  1
  In  In7  1  0.64321407  0.13091691  0.86322950  1
  In  In8  1  0.84258708  0.48213433  0.68921227  1
  In  In9  1  0.14853584  0.68440470  0.14442812  1
  In  In10  1  -0.01944561  0.33085853  0.67029362  1
  In  In11  1  0.30504775  0.65096700  0.28417853  1
  In  In12  1  -0.00100359  0.66722295  0.67280444  1
  In  In13  1  0.48655735  0.66472970  0.16359027  1
  In  In14  1  0.18177307  0.83643612  0.66622100  1
  In  In15  1  0.17830714  -0.03361579  0.16245884  1
  In  In16  1  0.32631584  0.33686476  -0.01143842  1
  In  In17  1  0.69558326  0.13750307  0.13928816  1
  In  In18  1  0.54344994  0.01594172  0.50090148  1
  In  In19  1  0.83969269  0.32845258  0.84124666  1
  In  In20  1  0.14333580  -0.02577631  0.85555313  1
  In  In21  1  0.52040673  0.17136127  0.31115086  1
  In  In22  1  0.50084148  0.02251176  0.11188224  1
  In  In23  1  0.32100107  0.01576084  0.67646843  1
  In  In24  1  0.34940855  0.67017268  0.69932850  1
  In  In25  1  0.01305314  -0.00854687  0.67433995  1
  In  In26  1  0.31570879  0.15388712  0.47515012  1
  In  In27  1  0.69437943  0.46797317  0.52053728  1
  In  In28  1  0.35380893  0.33584627  0.66812171  1
  In  In29  1  0.83056440  0.64841234  0.49178882  1
  In  In30  1  0.18044595  0.69418963  0.83751495  1
  In  In31  1  0.33745696  0.19500705  0.83513598  1
  In  In32  1  0.50422974  0.69228261  0.50790943  1
  In  In33  1  0.68026858  -0.02205133  0.68474165  1
  In  In34  1  0.12556887  0.69508264  0.45714913  1
  In  In35  1  0.49643298  0.50093254  0.71616650  1
  In  In36  1  0.14883501  0.50915689  0.29666103  1
  In  In37  1  0.49659484  0.34482480  0.14760357  1
  In  In38  1  0.67006208  0.33616212  0.02052047  1
  In  In39  1  0.84876740  0.84535003  0.31333689  1
  In  In40  1  0.53650657  0.33206725  0.47429343  1
  In  In41  1  0.82956521  0.67983851  0.17100400  1
  In  In42  1  -0.01365246  0.16488472  0.14534779  1
  In  In43  1  0.68333509  0.33842598  0.69449893  1
  In  In44  1  0.84601355  0.83731101  0.01563860  1
  In  In45  1  0.33689143  0.01116620  -0.00191034  1
  In  In46  1  0.02781100  0.53275841  0.49225697  1
  In  In47  1  0.48782114  0.16558667  0.65949609  1
  In  In48  1  0.00969483  0.31211682  0.32477062  1
  In  In49  1  0.68151044  0.84314096  0.51080696  1
  In  In50  1  -0.01240749  0.65893144  0.01368154  1
  In  In51  1  0.32863119  0.50828324  0.50007535  1
  In  In52  1  0.63541694  0.66360454  0.33146131  1
  In  In53  1  0.15259777  -0.01673464  0.47862780  1
  In  In54  1  0.00342517  0.48537651  0.86808089  1
  In  In55  1  0.49392075  0.82534545  0.69005679  1
  In  In56  1  0.18684680  0.33043184  0.50608229  1
  In  In57  1  0.49318213  0.83461278  0.30185631  1
  In  In58  1  0.37455430  0.84429883  0.49171129  1
  In  In59  1  0.72028874  0.00694787  0.31432363  1
  In  In60  1  0.00455264  0.16675752  0.48087709  1
  In  In61  1  -0.02105640  0.00371098  -0.00465182  1
  In  In62  1  0.31269668  0.36979551  0.30356512  1
  In  In63  1  0.50544899  0.66031916  0.86741740  1
  In  In64  1  0.66704502  0.84487861  0.85629219  1
  In  In65  1  0.49941132  0.53456787  0.33496226  1
  In  In66  1  -0.00556360  0.00490110  0.31302495  1
  In  In67  1  0.85964173  0.46845433  0.29644135  1
  In  In68  1  0.86103626  0.32112946  0.47631130  1
  In  In69  1  0.32192366  0.66327566  0.01437857  1
  In  In70  1  0.83708446  0.16083444  0.67589554  1
  In  In71  1  0.77062250  0.67132496  0.91503435  1
  Te  Te72  1  0.09673639  0.06562577  0.07571025  1
  Te  Te73  1  0.09948632  0.09188687  0.38900601  1
  Te  Te74  1  0.09443455  0.07634420  0.76299710  1
  Te  Te75  1  0.00505924  0.46812669  0.07256936  1
  Te  Te76  1  0.09261609  0.41405100  0.41503689  1
  Te  Te77  1  0.07243222  0.42155608  0.74751184  1
  Te  Te78  1  0.06019693  0.77842728  0.06726882  1
  Te  Te79  1  0.05240509  0.78914236  0.37449292  1
  Te  Te80  1  0.07631583  0.76954349  0.75380256  1
  Te  Te81  1  0.37404134  0.10279654  0.11066883  1
  Te  Te82  1  0.42888029  0.07506963  0.40960546  1
  Te  Te83  1  0.42080131  0.08423356  0.76886312  1
  Te  Te84  1  0.41706965  0.43126764  0.06060670  1
  Te  Te85  1  0.41471173  0.41878349  0.41396954  1
  Te  Te86  1  0.39866511  0.41332583  0.79094041  1
  Te  Te87  1  0.39516424  0.76107935  0.10141682  1
  Te  Te88  1  0.41589794  0.73117362  0.38861349  1
  Te  Te89  1  0.40925399  0.76564650  0.79880755  1
  Te  Te90  1  0.75297118  0.05045354  0.03513340  1
  Te  Te91  1  0.74178027  0.10473538  0.41675378  1
  Te  Te92  1  0.75591221  0.07627939  0.77332997  1
  Te  Te93  1  0.76377320  0.38944501  0.12345800  1
  Te  Te94  1  0.75550835  0.39980944  0.39739216  1
  Te  Te95  1  0.73107443  0.44698182  0.78812475  1
  Te  Te96  1  0.74540063  0.72814246  0.05638168  1
  Te  Te97  1  0.74389629  0.74467884  0.41112559  1
  Te  Te98  1  0.75075877  0.74588092  0.77488470  1
  Te  Te99  1  0.08724084  0.23964233  0.22342121  1
  Te  Te100  1  0.07835156  0.25352705  0.58150345  1
  Te  Te101  1  0.06487403  0.26542084  0.93188526  1
  Te  Te102  1  0.06021720  0.61185948  0.24444449  1
  Te  Te103  1  0.11334264  0.61329441  0.58789262  1
  Te  Te104  1  0.09049167  0.59722097  0.91883593  1
  Te  Te105  1  0.09412691  0.89890622  0.26914111  1
  Te  Te106  1  0.07635996  0.89326383  0.57261588  1
  Te  Te107  1  0.05793347  0.88704058  0.94184382  1
  Te  Te108  1  0.41782270  0.26521523  0.25322726  1
  Te  Te109  1  0.41384411  0.24676947  0.55337033  1
  Te  Te110  1  0.43731870  0.23632589  0.93913035  1
  Te  Te111  1  0.39850456  0.55086938  0.22332019  1
  Te  Te112  1  0.42688916  0.58236213  0.58928203  1
  Te  Te113  1  0.40710215  0.57232632  0.93314144  1
  Te  Te114  1  0.41541569  0.91237986  0.20201297  1
  Te  Te115  1  0.43568128  0.94156179  0.59341301  1
  Te  Te116  1  0.45173146  0.92200264  0.95858082  1
  Te  Te117  1  0.77293225  0.24247116  0.21130043  1
  Te  Te118  1  0.76989715  0.26857690  0.59171295  1
  Te  Te119  1  0.73030829  0.24914423  0.91023844  1
  Te  Te120  1  0.74699395  0.57948528  0.26832231  1
  Te  Te121  1  0.75517592  0.57835428  0.60414809  1
  Te  Te122  1  0.72747462  0.52978520  0.92889105  1
  Te  Te123  1  0.73953335  0.89217811  0.22652270  1
  Te  Te124  1  0.78013362  0.92872905  0.58257036  1
  Te  Te125  1  0.76843763  0.93134359  0.92591948  1
  Te  Te126  1  0.24784655  0.26810550  0.09508955  1
  Te  Te127  1  0.24637034  0.25584478  0.38792881  1
  Te  Te128  1  0.24602493  0.24891974  0.72863206  1
  Te  Te129  1  0.22146290  0.57421020  0.07811918  1
  Te  Te130  1  0.23976342  0.59332022  0.41200722  1
  Te  Te131  1  0.24683776  0.58700898  0.76069946  1
  Te  Te132  1  0.24686455  0.90060664  0.04598331  1
  Te  Te133  1  0.26518258  0.90677250  0.40715603  1
  Te  Te134  1  0.25982474  0.91456965  0.77026246  1
  Te  Te135  1  0.58214861  0.23423878  0.09172875  1
  Te  Te136  1  0.62755674  0.21262461  0.42311140  1
  Te  Te137  1  0.57811101  0.24658574  0.75718359  1
  Te  Te138  1  0.58478542  0.59152533  0.08165330  1
  Te  Te139  1  0.59520650  0.57283810  0.45450661  1
  Te  Te140  1  0.58853317  0.60386915  0.75826425  1
  Te  Te141  1  0.57792667  0.91156926  0.04651712  1
  Te  Te142  1  0.58155268  0.90005227  0.41160342  1
  Te  Te143  1  0.56802943  0.92791401  0.77336341  1
  Te  Te144  1  0.92302101  0.23593356  0.03130844  1
  Te  Te145  1  0.90309583  0.21466825  0.37731405  1
  Te  Te146  1  0.93332819  0.22919973  0.77236701  1
  Te  Te147  1  0.89123457  0.56612688  0.08710744  1
  Te  Te148  1  0.91948461  0.57219442  0.39480408  1
  Te  Te149  1  0.92343676  0.57862022  0.77073029  1
  Te  Te150  1  0.91811382  0.92993229  0.11240844  1
  Te  Te151  1  0.90472166  0.93929701  0.41012657  1
  Te  Te152  1  0.91031637  0.93358395  0.76325250  1
  Te  Te153  1  0.25614254  0.08073161  0.22350675  1
  Te  Te154  1  0.22843777  0.07921115  0.57457896  1
  Te  Te155  1  0.24249437  0.09643211  0.90402401  1
  Te  Te156  1  0.21456009  0.41564542  0.20330764  1
  Te  Te157  1  0.24943828  0.42992343  0.60213768  1
  Te  Te158  1  0.21444709  0.42271952  0.94303964  1
  Te  Te159  1  0.24261654  0.76761757  0.22580686  1
  Te  Te160  1  0.29094519  0.76245996  0.58971983  1
  Te  Te161  1  0.24643086  0.77516369  0.94377284  1
  Te  Te162  1  0.59109397  0.05816350  0.23971206  1
  Te  Te163  1  0.61257188  0.09499589  0.60780152  1
  Te  Te164  1  0.55928916  0.05200435  0.96365227  1
  Te  Te165  1  0.57892604  0.42043604  0.26750703  1
  Te  Te166  1  0.57472778  0.40967192  0.60625624  1
  Te  Te167  1  0.59323869  0.44202488  0.94447222  1
  Te  Te168  1  0.59876632  0.75988699  0.22241066  1
  Te  Te169  1  0.60163298  0.75516500  0.60673443  1
  Te  Te170  1  0.58268590  0.75988096  0.94719566  1
  Te  Te171  1  0.90022242  0.05677804  0.20637317  1
  Te  Te172  1  0.92688938  0.08376287  0.58085527  1
  Te  Te173  1  0.87988028  0.11142524  0.95907083  1
  Te  Te174  1  0.96278070  0.40093588  0.20956191  1
  Te  Te175  1  0.92649866  0.43528487  0.56423053  1
  Te  Te176  1  0.90492208  0.40804675  0.95047502  1
  Te  Te177  1  0.93831470  0.74055597  0.25404056  1
  Te  Te178  1  0.91383759  0.74466647  0.57370660  1
  Te  Te179  1  0.90738151  0.73930304  0.91275389  1
