# generated using pymatgen
data_In2Te3
_symmetry_space_group_name_H-M   'P 1'
_cell_length_a   18.73778061
_cell_length_b   18.74175284
_cell_length_c   18.74717161
_cell_angle_alpha   89.99487181
_cell_angle_beta   90.03123434
_cell_angle_gamma   90.01663248
_symmetry_Int_Tables_number   1
_chemical_formula_structural   In2Te3
_chemical_formula_sum   'In72 Te108'
_cell_volume   6583.60893879
_cell_formula_units_Z   36
loop_
 _symmetry_equiv_pos_site_id
 _symmetry_equiv_pos_as_xyz
  1  'x, y, z'
loop_
 _atom_site_type_symbol
 _atom_site_label
 _atom_site_symmetry_multiplicity
 _atom_site_fract_x
 _atom_site_fract_y
 _atom_site_fract_z
 _atom_site_occupancy
  In  In0  1  0.84880908  -0.00170963  0.81495470  1
  In  In1  1  0.66711132  0.31555207  0.33250931  1
  In  In2  1  0.50444345  -0.02700777  0.81930504  1
  In  In3  1  0.52771488  0.82073934  -0.00920962  1
  In  In4  1  -0.01461887  0.33460332  -0.00795576  1
  In  In5  1  0.84597306  0.82605760  -0.00445339  1
  In  In6  1  0.30480366  0.37820033  0.61461827  1
  In  In7  1  0.00262637  0.01206130  0.00288332  1
  In  In8  1  0.51848385  0.13349264  0.63376270  1
  In  In9  1  0.67208746  0.18094677  0.19920715  1
  In  In10  1  0.69098791  0.17172417  0.82937603  1
  In  In11  1  0.51445857  0.33619712  0.82374322  1
  In  In12  1  0.33617729  0.82135512  0.80776839  1
  In  In13  1  0.67808820  0.48407793  0.15019287  1
  In  In14  1  0.49886982  0.50797117  0.67015676  1
  In  In15  1  0.83691435  0.80836233  0.35636916  1
  In  In16  1  0.82857677  0.66631417  0.83291993  1
  In  In17  1  0.30767526  0.16148923  0.18424360  1
  In  In18  1  0.50178406  0.32762489  0.15457226  1
  In  In19  1  0.15928394  0.68097619  0.18088866  1
  In  In20  1  0.67153022  -0.00749858  0.35895467  1
  In  In21  1  0.01133924  0.50411869  0.48968084  1
  In  In22  1  0.86180280  0.34834451  0.81405073  1
  In  In23  1  0.13287803  0.01100233  0.81790807  1
  In  In24  1  0.14173146  -0.01944448  0.21121993  1
  In  In25  1  0.33951561  0.65366901  -0.00288901  1
  In  In26  1  0.32112759  0.68030447  0.65435827  1
  In  In27  1  0.83484086  0.49479727  0.64532045  1
  In  In28  1  0.00173261  0.82212868  0.49535098  1
  In  In29  1  0.84132164  0.17246099  -0.00244872  1
  In  In30  1  0.16148214  0.16394841  0.33539717  1
  In  In31  1  0.67010182  0.81355750  0.81336333  1
  In  In32  1  0.13134196  0.36554442  0.79694582  1
  In  In33  1  0.33580588  0.00971314  0.64672447  1
  In  In34  1  0.50151840  0.33232789  0.49061824  1
  In  In35  1  0.85505113  0.17876992  0.34399501  1
  In  In36  1  0.33148424  0.82266943  0.20495569  1
  In  In37  1  0.50231688  0.80427962  0.62471692  1
  In  In38  1  0.84279909  0.17581038  0.65488858  1
  In  In39  1  0.84538924  0.67434240  0.16649076  1
  In  In40  1  0.30404083  0.19613442  0.80750417  1
  In  In41  1  0.36610974  0.36126126  0.00491334  1
  In  In42  1  0.48391208  0.83017341  0.35809896  1
  In  In43  1  0.68045038  0.67114605  0.36125998  1
  In  In44  1  0.84529041  0.32836380  0.50545953  1
  In  In45  1  0.51638598  0.17771701  0.02509845  1
  In  In46  1  0.32414341  0.51887933  0.82820477  1
  In  In47  1  0.66278539  0.51544082  0.50619791  1
  In  In48  1  0.67712661  0.83264244  0.15409917  1
  In  In49  1  0.16943971  0.33430177  0.19606564  1
  In  In50  1  0.86283208  0.50040261  0.33560341  1
  In  In51  1  0.15416663  0.65150365  0.82227442  1
  In  In52  1  0.00635875  0.51546600  0.16955661  1
  In  In53  1  0.64788266  -0.01366657  0.00422235  1
  In  In54  1  0.83109035  -0.01790306  0.50527237  1
  In  In55  1  0.33333388  0.01033886  0.01625903  1
  In  In56  1  0.16602579  0.51690612  -0.00861605  1
  In  In57  1  0.32401480  0.17358571  0.49326538  1
  In  In58  1  0.15442741  0.17398661  0.00365383  1
  In  In59  1  -0.00004056  0.65787074  0.34904577  1
  In  In60  1  0.16320301  0.80808753  0.65604707  1
  In  In61  1  0.47070090  0.51370551  0.34105004  1
  In  In62  1  0.49506404  0.49113832  0.00987086  1
  In  In63  1  -0.02299629  0.00471338  0.66421596  1
  In  In64  1  0.49449965  0.14854472  0.35631445  1
  In  In65  1  0.17924360  -0.01758546  0.46450259  1
  In  In66  1  0.14503446  0.82862687  0.01437882  1
  In  In67  1  0.49537393  0.65516105  0.18711833  1
  In  In68  1  0.68487102  0.50798382  0.81657731  1
  In  In69  1  0.84813731  0.01667676  0.17185807  1
  In  In70  1  -0.00091848  0.65869531  0.64227722  1
  In  In71  1  0.30519440  0.32226766  0.35087513  1
  Te  Te72  1  0.08710428  0.08578643  0.10689763  1
  Te  Te73  1  0.07471482  0.07647625  0.41965791  1
  Te  Te74  1  0.06843601  0.11171865  0.72798706  1
  Te  Te75  1  0.09672038  0.41048133  0.07954637  1
  Te  Te76  1  0.10964422  0.41106251  0.42430307  1
  Te  Te77  1  0.04328447  0.45533287  0.71945392  1
  Te  Te78  1  0.06389918  0.72197332  0.07477979  1
  Te  Te79  1  0.10264982  0.73652239  0.42607894  1
  Te  Te80  1  0.06314894  0.75312191  0.75359465  1
  Te  Te81  1  0.42417795  0.08955339  0.11020655  1
  Te  Te82  1  0.40766804  0.06324208  0.43951734  1
  Te  Te83  1  0.41880689  0.08459694  0.75424683  1
  Te  Te84  1  0.40587114  0.44428576  0.12709917  1
  Te  Te85  1  0.39100504  0.42029796  0.43553703  1
  Te  Te86  1  0.40068278  0.40728577  0.74887958  1
  Te  Te87  1  0.41446073  0.75323773  0.08683219  1
  Te  Te88  1  0.39357409  0.72517192  0.42642375  1
  Te  Te89  1  0.43869256  0.73167075  0.74581217  1
  Te  Te90  1  0.73855265  0.08244614  0.08271481  1
  Te  Te91  1  0.75669562  0.09784397  0.42819674  1
  Te  Te92  1  0.74854258  0.07452988  0.72728446  1
  Te  Te93  1  0.75207316  0.37666404  0.08674118  1
  Te  Te94  1  0.74736775  0.42369173  0.41589249  1
  Te  Te95  1  0.74661249  0.39921210  0.72726313  1
  Te  Te96  1  0.74407267  0.73329414  0.06313065  1
  Te  Te97  1  0.73323336  0.77181247  0.46030576  1
  Te  Te98  1  0.76469709  0.74449434  0.72204582  1
  Te  Te99  1  0.06671942  0.24816134  0.25578221  1
  Te  Te100  1  0.07526568  0.24531499  0.63983331  1
  Te  Te101  1  0.08266487  0.25713551  0.89909051  1
  Te  Te102  1  0.10253649  0.57075149  0.27522754  1
  Te  Te103  1  0.10834813  0.60299994  0.55449776  1
  Te  Te104  1  0.06013732  0.57796658  0.90972971  1
  Te  Te105  1  0.04728449  0.88294586  0.26634458  1
  Te  Te106  1  0.08751723  0.92244122  0.58636660  1
  Te  Te107  1  0.06545026  0.90860936  0.90750364  1
  Te  Te108  1  0.41935556  0.25257170  0.26295434  1
  Te  Te109  1  0.41626630  0.24878737  0.59110361  1
  Te  Te110  1  0.42318023  0.24401488  0.92069169  1
  Te  Te111  1  0.37871659  0.61356331  0.27384046  1
  Te  Te112  1  0.40273839  0.57880400  0.57619818  1
  Te  Te113  1  0.43789517  0.58729538  0.90160195  1
  Te  Te114  1  0.41894221  0.92541283  0.26393750  1
  Te  Te115  1  0.41658202  0.91379065  0.56872523  1
  Te  Te116  1  0.40822257  0.90964491  0.92403681  1
  Te  Te117  1  0.78412200  0.27459219  0.24289763  1
  Te  Te118  1  0.74145644  0.25670811  0.58257627  1
  Te  Te119  1  0.76461637  0.27406321  0.91174368  1
  Te  Te120  1  0.74878026  0.58425616  0.25401081  1
  Te  Te121  1  0.73940983  0.60151199  0.60175272  1
  Te  Te122  1  0.76663290  0.56709897  0.92582187  1
  Te  Te123  1  0.76055006  0.90975746  0.25684830  1
  Te  Te124  1  0.71859355  0.94070584  0.59162181  1
  Te  Te125  1  0.74837337  0.91980945  0.91149567  1
  Te  Te126  1  0.26491140  0.25898292  0.07355898  1
  Te  Te127  1  0.20417698  0.26166032  0.44940739  1
  Te  Te128  1  0.21612194  0.27338742  0.69910368  1
  Te  Te129  1  0.25118915  0.58418689  0.09839084  1
  Te  Te130  1  0.31427859  0.59907211  0.43444158  1
  Te  Te131  1  0.23206884  0.57079557  0.71959590  1
  Te  Te132  1  0.24000540  0.91765319  0.09692033  1
  Te  Te133  1  0.27053121  0.87379761  0.42179790  1
  Te  Te134  1  0.24195833  0.92378158  0.74613866  1
  Te  Te135  1  0.62581977  0.27536755  0.07560720  1
  Te  Te136  1  0.59862176  0.22690989  0.43729949  1
  Te  Te137  1  0.58569585  0.23400969  0.73634797  1
  Te  Te138  1  0.58854653  0.58937062  0.08407071  1
  Te  Te139  1  0.55993576  0.60340649  0.43063546  1
  Te  Te140  1  0.59561559  0.59692979  0.73750456  1
  Te  Te141  1  0.55891094  0.91832250  0.10627087  1
  Te  Te142  1  0.57733340  0.91304527  0.44519306  1
  Te  Te143  1  0.59137315  0.90596726  0.71803148  1
  Te  Te144  1  0.93177899  0.23982977  0.09237658  1
  Te  Te145  1  0.94827158  0.26921753  0.41884862  1
  Te  Te146  1  0.94849391  0.25154292  0.73446089  1
  Te  Te147  1  0.90135660  0.56907333  0.07963075  1
  Te  Te148  1  0.89428806  0.60086297  0.44364074  1
  Te  Te149  1  0.92941901  0.56621414  0.74550839  1
  Te  Te150  1  0.92821255  0.91225409  0.09224319  1
  Te  Te151  1  0.93034684  0.92215706  0.40116335  1
  Te  Te152  1  0.90391179  0.89153384  0.72821810  1
  Te  Te153  1  0.25850715  0.05454286  0.27905967  1
  Te  Te154  1  0.22674739  0.08538965  0.57516452  1
  Te  Te155  1  0.24105078  0.07774360  0.91318960  1
  Te  Te156  1  0.25214061  0.43309590  0.26749989  1
  Te  Te157  1  0.18111494  0.44732313  0.55091650  1
  Te  Te158  1  0.24976428  0.41057127  0.90831562  1
  Te  Te159  1  0.21258129  0.77767698  0.28553321  1
  Te  Te160  1  0.26996850  0.78230848  0.55113307  1
  Te  Te161  1  0.24647311  0.74565288  0.91502952  1
  Te  Te162  1  0.58455103  0.07077592  0.25782310  1
  Te  Te163  1  0.60033504  0.03710883  0.55453892  1
  Te  Te164  1  0.57943693  0.08590111  0.90902901  1
  Te  Te165  1  0.57848048  0.42145035  0.26280715  1
  Te  Te166  1  0.58713708  0.41084635  0.58927121  1
  Te  Te167  1  0.59490085  0.42141336  0.91735216  1
  Te  Te168  1  0.59080614  0.75523645  0.25925314  1
  Te  Te169  1  0.60372453  0.72731879  0.54950997  1
  Te  Te170  1  0.59866813  0.72432802  0.90716809  1
  Te  Te171  1  0.93842826  0.08008991  0.26845335  1
  Te  Te172  1  0.92495205  0.09590844  0.55298612  1
  Te  Te173  1  0.93064104  0.09753605  0.89782907  1
  Te  Te174  1  0.94065152  0.40958754  0.25148423  1
  Te  Te175  1  0.95394901  0.40522853  0.59718836  1
  Te  Te176  1  0.91511995  0.44187855  0.91682569  1
  Te  Te177  1  0.94456610  0.76134403  0.24660461  1
  Te  Te178  1  0.90471633  0.76378968  0.59201428  1
  Te  Te179  1  0.93145530  0.74299209  0.90963681  1
