# generated using pymatgen
data_In2Te3
_symmetry_space_group_name_H-M   'P 1'
_cell_length_a   18.91409928
_cell_length_b   18.93085666
_cell_length_c   18.89573104
_cell_angle_alpha   89.87248137
_cell_angle_beta   89.88479993
_cell_angle_gamma   90.05565411
_symmetry_Int_Tables_number   1
_chemical_formula_structural   In2Te3
_chemical_formula_sum   'In72 Te108'
_cell_volume   6765.77373629
_cell_formula_units_Z   36
loop_
 _symmetry_equiv_pos_site_id
 _symmetry_equiv_pos_as_xyz
  1  'x, y, z'
loop_
 _atom_site_type_symbol
 _atom_site_label
 _atom_site_symmetry_multiplicity
 _atom_site_fract_x
 _atom_site_fract_y
 _atom_site_fract_z
 _atom_site_occupancy
  In  In0  1  0.18795647  0.32756453  0.17845293  1
  In  In1  1  0.14733187  0.67797823  0.46499515  1
  In  In2  1  0.66819169  0.32544409  -0.00147336  1
  In  In3  1  0.00109391  0.15239676  0.82117655  1
  In  In4  1  0.32295829  0.14586245  0.83309414  1
  In  In5  1  0.68703597  0.14573583  0.16984053  1
  In  In6  1  0.17293083  0.16156589  0.67635289  1
  In  In7  1  0.33885282  0.68378419  0.68286396  1
  In  In8  1  0.65040314  0.68543429  -0.01584162  1
  In  In9  1  0.83228927  0.69559569  0.53540746  1
  In  In10  1  0.48169673  -0.00172134  0.52088766  1
  In  In11  1  0.00221172  0.69046853  0.67450012  1
  In  In12  1  0.18429609  0.14255243  0.33304159  1
  In  In13  1  0.64195044  0.15611095  0.47422740  1
  In  In14  1  0.18917024  0.49167262  0.00678483  1
  In  In15  1  -0.00043980  0.31753736  -0.02729833  1
  In  In16  1  -0.01537564  0.67612696  -0.00719927  1
  In  In17  1  0.20195794  0.68753491  0.86173857  1
  In  In18  1  0.83618912  0.34281879  0.50491468  1
  In  In19  1  0.85021838  0.66207049  0.16178866  1
  In  In20  1  0.64667143  0.51791027  0.79963552  1
  In  In21  1  0.33014008  0.85106431  0.51407705  1
  In  In22  1  0.13258305  0.12668598  0.01708119  1
  In  In23  1  0.82956160  -0.01117305  0.14451185  1
  In  In24  1  0.32847270  0.84641736  0.84067933  1
  In  In25  1  0.81679972  0.82560798  -0.02269272  1
  In  In26  1  0.49951731  0.68732951  0.16282313  1
  In  In27  1  0.32358477  0.66110890  0.32883332  1
  In  In28  1  0.30576220  0.33829154  0.35511541  1
  In  In29  1  0.17694705  0.47781218  0.64920200  1
  In  In30  1  0.50214945  0.69102228  0.52748150  1
  In  In31  1  0.17540427  0.92917106  -0.01637450  1
  In  In32  1  0.17497006  0.47383369  0.36111753  1
  In  In33  1  0.16014526  0.83955920  0.67881910  1
  In  In34  1  0.85044741  0.14318584  0.31244059  1
  In  In35  1  0.67097244  0.67637585  0.33929720  1
  In  In36  1  0.16508507  0.00692163  0.50560941  1
  In  In37  1  -0.02801659  0.50975247  0.51758466  1
  In  In38  1  0.85779135  -0.03621932  0.48818532  1
  In  In39  1  -0.00459606  0.50844630  0.16195349  1
  In  In40  1  0.33484966  0.33163575  -0.01553348  1
  In  In41  1  0.49750456  -0.01719714  0.15554431  1
  In  In42  1  0.52583754  0.12198185  -0.00998815  1
  In  In43  1  0.50410019  0.48073664  0.33408901  1
  In  In44  1  0.49260941  0.15644850  0.66845916  1
  In  In45  1  0.82387149  0.51487408  0.36593319  1
  In  In46  1  0.82491333  0.17314714  0.02069421  1
  In  In47  1  0.80331134  0.67174626  0.79915436  1
  In  In48  1  0.84374586  0.16252676  0.67555546  1
  In  In49  1  0.65651468  0.82952145  0.55319768  1
  In  In50  1  0.02165357  0.16238892  0.51643755  1
  In  In51  1  -0.00736654  0.84169493  0.16905400  1
  In  In52  1  0.50973159  0.31896091  0.50990041  1
  In  In53  1  0.66099907  0.15506818  0.85839858  1
  In  In54  1  0.50499042  0.51994389  -0.01810994  1
  In  In55  1  0.02378077  0.48745638  0.82652566  1
  In  In56  1  0.46987692  0.33607042  0.81630170  1
  In  In57  1  0.50918263  0.84212238  -0.00653489  1
  In  In58  1  0.34040139  0.50867598  0.84095678  1
  In  In59  1  0.18060807  0.63942238  0.15590411  1
  In  In60  1  0.67804961  0.34009617  0.66458949  1
  In  In61  1  0.02387489  0.70327475  0.32579874  1
  In  In62  1  0.49094836  0.33693445  0.17143074  1
  In  In63  1  0.00945794  0.32547291  0.32794940  1
  In  In64  1  0.16129723  0.82592614  0.34029004  1
  In  In65  1  0.35407270  0.15501173  0.15303686  1
  In  In66  1  0.50026128  0.85324924  0.33005172  1
  In  In67  1  0.34210651  0.16876541  0.49378611  1
  In  In68  1  0.66024439  -0.00237800  0.31652858  1
  In  In69  1  0.67977487  0.52048771  0.52249274  1
  In  In70  1  0.84136339  -0.00750643  0.83519004  1
  In  In71  1  0.82689998  0.33379440  0.15857251  1
  Te  Te72  1  0.05387829  0.04465306  0.11033918  1
  Te  Te73  1  0.06891191  0.07237024  0.40385599  1
  Te  Te74  1  0.08010295  0.05762827  0.73613144  1
  Te  Te75  1  0.08616177  0.40929189  0.09096381  1
  Te  Te76  1  0.06216090  0.41082633  0.44164770  1
  Te  Te77  1  0.08686950  0.39362501  0.73083417  1
  Te  Te78  1  0.07650744  0.73593804  0.09669101  1
  Te  Te79  1  0.04442066  0.79515199  0.45413173  1
  Te  Te80  1  0.09047907  0.75525809  0.78431428  1
  Te  Te81  1  0.40176943  0.05598291  0.04928443  1
  Te  Te82  1  0.41441284  0.07084396  0.41279441  1
  Te  Te83  1  0.42003920  0.06393924  0.75679725  1
  Te  Te84  1  0.41865588  0.42359642  0.06990859  1
  Te  Te85  1  0.41199682  0.41405515  0.43391794  1
  Te  Te86  1  0.40399464  0.43440221  0.73104934  1
  Te  Te87  1  0.41320065  0.77433725  0.08464840  1
  Te  Te88  1  0.41258221  0.75222747  0.41551529  1
  Te  Te89  1  0.42891408  0.75183994  0.77897748  1
  Te  Te90  1  0.72718600  0.05752635  0.05274045  1
  Te  Te91  1  0.76112405  0.07077148  0.41425521  1
  Te  Te92  1  0.74446561  0.07891177  0.75330949  1
  Te  Te93  1  0.74173531  0.42195204  0.08014166  1
  Te  Te94  1  0.72766289  0.41302261  0.42417641  1
  Te  Te95  1  0.75241065  0.42502644  0.75735135  1
  Te  Te96  1  0.74882505  0.74622490  0.08710148  1
  Te  Te97  1  0.74086999  0.76746982  0.43600463  1
  Te  Te98  1  0.73939701  0.80515450  0.75751702  1
  Te  Te99  1  0.09169792  0.23055375  0.24479556  1
  Te  Te100  1  0.08167713  0.25894816  0.60825641  1
  Te  Te101  1  0.10267821  0.23095372  0.90861291  1
  Te  Te102  1  0.08840957  0.57087136  0.26738099  1
  Te  Te103  1  0.08102660  0.59528604  0.58240667  1
  Te  Te104  1  0.09566192  0.58825634  0.93026656  1
  Te  Te105  1  0.08700368  0.92046628  0.25149119  1
  Te  Te106  1  0.07718336  0.91500743  0.58101679  1
  Te  Te107  1  0.06215278  0.92351050  0.89180275  1
  Te  Te108  1  0.39544171  0.25605546  0.25782755  1
  Te  Te109  1  0.40367572  0.25825553  0.60033585  1
  Te  Te110  1  0.43500674  0.23334106  0.92506587  1
  Te  Te111  1  0.42654448  0.58307525  0.25080614  1
  Te  Te112  1  0.42182271  0.58931443  0.60208241  1
  Te  Te113  1  0.40967390  0.61244024  0.91848008  1
  Te  Te114  1  0.40064011  0.90691536  0.23763777  1
  Te  Te115  1  0.43885007  0.88538488  0.60653905  1
  Te  Te116  1  0.42310901  0.93639892  0.91324595  1
  Te  Te117  1  0.75263902  0.24855196  0.26128343  1
  Te  Te118  1  0.74120843  0.23676829  0.57027373  1
  Te  Te119  1  0.76587772  0.25560003  0.90668449  1
  Te  Te120  1  0.75135279  0.58224320  0.25154809  1
  Te  Te121  1  0.77166568  0.58668848  0.61586457  1
  Te  Te122  1  0.73502616  0.58652205  0.90596748  1
  Te  Te123  1  0.75649374  0.91285985  0.24725746  1
  Te  Te124  1  0.77167681  0.91998708  0.60172831  1
  Te  Te125  1  0.72942793  0.90459672  0.88671270  1
  Te  Te126  1  0.24752296  0.23812927  0.07028501  1
  Te  Te127  1  0.22079524  0.24433136  0.43887087  1
  Te  Te128  1  0.26655615  0.25101519  0.74853160  1
  Te  Te129  1  0.28330331  0.58857123  0.06410698  1
  Te  Te130  1  0.26230136  0.57435739  0.43846579  1
  Te  Te131  1  0.23085883  0.58831358  0.74878502  1
  Te  Te132  1  0.25057424  0.96135118  0.10629958  1
  Te  Te133  1  0.25375232  0.92700090  0.40893439  1
  Te  Te134  1  0.26157708  0.92689966  0.73660223  1
  Te  Te135  1  0.58368887  0.23320829  0.08577642  1
  Te  Te136  1  0.56169732  0.24665231  0.39390858  1
  Te  Te137  1  0.58685370  0.24807185  0.75342993  1
  Te  Te138  1  0.58879138  0.58943151  0.08696956  1
  Te  Te139  1  0.57576248  0.59390020  0.42577346  1
  Te  Te140  1  0.54705681  0.59478235  0.72273712  1
  Te  Te141  1  0.60425864  0.92254698  0.07525972  1
  Te  Te142  1  0.59203119  0.91904879  0.43277928  1
  Te  Te143  1  0.62170393  0.87549245  0.69233728  1
  Te  Te144  1  0.93482842  0.25049392  0.09389869  1
  Te  Te145  1  0.91551328  0.24219168  0.41827320  1
  Te  Te146  1  0.92736874  0.25707908  0.74793035  1
  Te  Te147  1  0.90161761  0.56425545  0.05701448  1
  Te  Te148  1  0.91915198  0.61877245  0.42151683  1
  Te  Te149  1  0.92838768  0.58783198  0.75963168  1
  Te  Te150  1  0.92019255  0.90838909  0.05226042  1
  Te  Te151  1  0.94627445  0.89852905  0.39215176  1
  Te  Te152  1  0.96846771  0.94404083  0.77103903  1
  Te  Te153  1  0.25171989  0.06654336  0.22125486  1
  Te  Te154  1  0.26843373  0.07600065  0.59029352  1
  Te  Te155  1  0.22720753  0.06179538  0.91648366  1
  Te  Te156  1  0.26683886  0.43780420  0.24347780  1
  Te  Te157  1  0.24751665  0.43243240  0.53054629  1
  Te  Te158  1  0.23856772  0.40430865  0.89346110  1
  Te  Te159  1  0.24730309  0.75097573  0.23588529  1
  Te  Te160  1  0.24024061  0.74388890  0.57407379  1
  Te  Te161  1  0.24565176  0.79061944  0.95933649  1
  Te  Te162  1  0.56633065  0.08968002  0.24458811  1
  Te  Te163  1  0.59428938  0.07364976  0.59184514  1
  Te  Te164  1  0.56462994  0.04150400  0.87124452  1
  Te  Te165  1  0.59407955  0.41488375  0.23978224  1
  Te  Te166  1  0.57877315  0.42737594  0.59096433  1
  Te  Te167  1  0.57568660  0.40929624  0.90184742  1
  Te  Te168  1  0.59665294  0.77031274  0.24671923  1
  Te  Te169  1  0.61299356  0.69916394  0.63188665  1
  Te  Te170  1  0.56386265  0.75285489  0.88521026  1
  Te  Te171  1  0.93564095  0.07644761  0.20914955  1
  Te  Te172  1  0.92051251  0.07154489  0.58239281  1
  Te  Te173  1  0.91361154  0.08931426  0.93068168  1
  Te  Te174  1  0.91290775  0.42816747  0.26668194  1
  Te  Te175  1  0.89861694  0.42230980  0.61011822  1
  Te  Te176  1  0.92062101  0.42215286  0.91077568  1
  Te  Te177  1  0.89768041  0.76422238  0.26204500  1
  Te  Te178  1  0.90303333  0.78901086  0.62517486  1
  Te  Te179  1  0.90790455  0.74818041  0.88478112  1
