# generated using pymatgen
data_In2Te3
_symmetry_space_group_name_H-M   'P 1'
_cell_length_a   18.92847066
_cell_length_b   18.97526611
_cell_length_c   18.98482404
_cell_angle_alpha   89.72482903
_cell_angle_beta   89.88641653
_cell_angle_gamma   89.98367581
_symmetry_Int_Tables_number   1
_chemical_formula_structural   In2Te3
_chemical_formula_sum   'In72 Te108'
_cell_volume   6818.73949883
_cell_formula_units_Z   36
loop_
 _symmetry_equiv_pos_site_id
 _symmetry_equiv_pos_as_xyz
  1  'x, y, z'
loop_
 _atom_site_type_symbol
 _atom_site_label
 _atom_site_symmetry_multiplicity
 _atom_site_fract_x
 _atom_site_fract_y
 _atom_site_fract_z
 _atom_site_occupancy
  In  In0  1  0.69987418  0.53298179  0.86024713  1
  In  In1  1  0.66589966  0.66192954  0.30540936  1
  In  In2  1  0.67068347  0.17084428  0.15224155  1
  In  In3  1  0.52840170  0.35917564  0.84947403  1
  In  In4  1  0.85591312  0.17135670  0.34694592  1
  In  In5  1  0.15865077  0.68027990  0.16504751  1
  In  In6  1  0.30327870  0.65411261  0.32084144  1
  In  In7  1  0.69676209  0.29691046  0.66229605  1
  In  In8  1  0.50870554  0.13096654  0.67347987  1
  In  In9  1  0.49998271  0.47946775  0.33084167  1
  In  In10  1  0.68003362  0.84052175  0.52833107  1
  In  In11  1  0.47044687  0.83616658  0.34240082  1
  In  In12  1  0.14858326  0.19846574  0.31215118  1
  In  In13  1  0.51276066  0.85104508  0.68538891  1
  In  In14  1  0.84253741  0.79876501  -0.01337107  1
  In  In15  1  -0.02211026  0.13806247  0.81169739  1
  In  In16  1  0.14584615  0.46672994  0.30688343  1
  In  In17  1  0.84187410  0.15288158  -0.02370198  1
  In  In18  1  0.81958076  0.65354571  0.50047013  1
  In  In19  1  -0.01488646  0.16401262  0.51508177  1
  In  In20  1  0.84349007  0.84998542  0.70043305  1
  In  In21  1  0.85077996  0.46072204  0.29627662  1
  In  In22  1  0.00315874  0.83353966  0.16654127  1
  In  In23  1  0.50594058  0.68075592  0.48992282  1
  In  In24  1  0.33889522  -0.01567997  0.67214822  1
  In  In25  1  0.65326082  0.31832811  0.32414592  1
  In  In26  1  0.32939185  0.83176643  0.84611890  1
  In  In27  1  0.85642685  0.63739233  0.11248032  1
  In  In28  1  0.68755647  0.85623919  0.15699599  1
  In  In29  1  0.15992662  0.84630540  -0.00708429  1
  In  In30  1  0.30182571  0.50380545  0.84810270  1
  In  In31  1  0.51782410  -0.00085250  0.17060177  1
  In  In32  1  0.33280234  -0.00516079  -0.00002750  1
  In  In33  1  0.83370537  0.48805928  0.67245585  1
  In  In34  1  0.15265409  0.50874175  0.64637411  1
  In  In35  1  0.32373565  0.66224235  0.62700865  1
  In  In36  1  -0.01221610  0.32759053  0.65091631  1
  In  In37  1  0.50076973  0.00565757  0.52066207  1
  In  In38  1  0.84548338  0.02853921  0.16289673  1
  In  In39  1  0.14421837  0.01204817  0.86126142  1
  In  In40  1  0.52490302  0.67013304  0.14629221  1
  In  In41  1  -0.00559859  0.00274591  0.32717214  1
  In  In42  1  0.68293526  0.47725513  0.50107272  1
  In  In43  1  0.34267184  0.16389632  0.49105143  1
  In  In44  1  0.32195529  0.17004487  0.16394060  1
  In  In45  1  0.52181489  0.16970112  -0.02524421  1
  In  In46  1  0.84211536  0.35202835  0.86988371  1
  In  In47  1  0.32109920  0.32527615  0.66615672  1
  In  In48  1  0.12132944  0.17303757  0.04099246  1
  In  In49  1  -0.01360301  0.66576249  0.66902136  1
  In  In50  1  0.15581146  0.33097601  0.49373759  1
  In  In51  1  0.00202859  0.85989415  0.49541879  1
  In  In52  1  0.49059423  0.32502194  0.16983503  1
  In  In53  1  0.14301097  0.66733502  0.50872910  1
  In  In54  1  0.67592126  0.82857673  0.82884942  1
  In  In55  1  0.69563138  0.49459723  0.11393006  1
  In  In56  1  0.34501947  0.65477083  0.01518771  1
  In  In57  1  0.67041429  0.02080853  0.35622723  1
  In  In58  1  -0.00671595  0.33718834  0.00592392  1
  In  In59  1  -0.02275784  0.67396281  0.34698283  1
  In  In60  1  0.10999515  0.67121973  0.84849675  1
  In  In61  1  0.85907172  0.83992771  0.34998252  1
  In  In62  1  0.52287698  0.48957264  0.69126444  1
  In  In63  1  0.17170291  0.32680570  0.85207854  1
  In  In64  1  0.34678493  0.17798200  0.84718075  1
  In  In65  1  0.34001530  0.50708973  0.18410753  1
  In  In66  1  0.31020209  0.02211550  0.33053633  1
  In  In67  1  0.49823388  0.68550609  0.84170842  1
  In  In68  1  -0.01159374  0.46900098  0.85257532  1
  In  In69  1  0.36132027  0.50220879  0.45846250  1
  In  In70  1  0.69395210  0.15501335  0.80077509  1
  In  In71  1  0.16480524  -0.00616218  0.50345589  1
  Te  Te72  1  0.02986018  0.06229897  0.05555594  1
  Te  Te73  1  0.08749476  0.09444139  0.41418480  1
  Te  Te74  1  0.08315032  0.06708368  0.73743990  1
  Te  Te75  1  0.07958667  0.40382965  0.10808102  1
  Te  Te76  1  0.05847751  0.40164701  0.40823195  1
  Te  Te77  1  0.09050304  0.40966710  0.74355048  1
  Te  Te78  1  0.06764533  0.74538826  0.06253886  1
  Te  Te79  1  0.08199284  0.76446696  0.40815834  1
  Te  Te80  1  0.08474618  0.75507166  0.73202209  1
  Te  Te81  1  0.43240320  0.09434760  0.07708461  1
  Te  Te82  1  0.43290648  0.07767745  0.40654387  1
  Te  Te83  1  0.41674435  0.06461716  0.77493924  1
  Te  Te84  1  0.42486356  0.43070905  0.09358290  1
  Te  Te85  1  0.44894877  0.38013820  0.43172441  1
  Te  Te86  1  0.40307034  0.41655733  0.75725852  1
  Te  Te87  1  0.41654376  0.75358715  0.09408145  1
  Te  Te88  1  0.38487533  0.73971966  0.42358187  1
  Te  Te89  1  0.40270183  0.74427066  0.73599393  1
  Te  Te90  1  0.74088431  0.07200051  0.06313046  1
  Te  Te91  1  0.74537752  0.12100281  0.43504990  1
  Te  Te92  1  0.77115887  0.06907620  0.71004518  1
  Te  Te93  1  0.79677097  0.38952069  0.09072563  1
  Te  Te94  1  0.76118237  0.39505793  0.40257947  1
  Te  Te95  1  0.73847760  0.41141338  0.76357207  1
  Te  Te96  1  0.73866064  0.73531738  0.08396673  1
  Te  Te97  1  0.74102242  0.75000477  0.40914921  1
  Te  Te98  1  0.75483455  0.74149244  0.73944489  1
  Te  Te99  1  0.07586518  0.28980880  0.21886847  1
  Te  Te100  1  0.09476265  0.23535385  0.59405051  1
  Te  Te101  1  0.05787457  0.23930261  0.90937760  1
  Te  Te102  1  0.07557509  0.59544587  0.26177854  1
  Te  Te103  1  0.04085020  0.56809888  0.56457233  1
  Te  Te104  1  0.08629654  0.55078578  0.92782125  1
  Te  Te105  1  0.08309092  0.90459687  0.26545064  1
  Te  Te106  1  0.05859787  0.94811244  0.59701587  1
  Te  Te107  1  0.05462086  0.89530676  0.89759268  1
  Te  Te108  1  0.40655499  0.24424458  0.25728650  1
  Te  Te109  1  0.42125391  0.23553167  0.59832800  1
  Te  Te110  1  0.42432646  0.27921096  0.92810638  1
  Te  Te111  1  0.44105125  0.60365740  0.26277318  1
  Te  Te112  1  0.43870566  0.56637097  0.58518303  1
  Te  Te113  1  0.42036025  0.57337791  0.91200552  1
  Te  Te114  1  0.40468312  0.93117794  0.24536317  1
  Te  Te115  1  0.41506535  0.89456105  0.57710935  1
  Te  Te116  1  0.42412521  0.90571004  0.92731234  1
  Te  Te117  1  0.76155065  0.24318388  0.24768013  1
  Te  Te118  1  0.78061349  0.24474955  0.55271639  1
  Te  Te119  1  0.74061337  0.24830303  0.91337869  1
  Te  Te120  1  0.76750640  0.57529790  0.23358191  1
  Te  Te121  1  0.73426884  0.58013632  0.60100406  1
  Te  Te122  1  0.77706786  0.64296072  0.93265870  1
  Te  Te123  1  0.76399453  0.93503612  0.26336068  1
  Te  Te124  1  0.77194537  0.93151392  0.59779269  1
  Te  Te125  1  0.76733193  0.90516411  0.92011708  1
  Te  Te126  1  0.24023150  0.25232223  0.07198637  1
  Te  Te127  1  0.25428420  0.25569400  0.40661764  1
  Te  Te128  1  0.23974592  0.23228145  0.75383084  1
  Te  Te129  1  0.24023834  0.57527658  0.09188097  1
  Te  Te130  1  0.22669777  0.57116415  0.42278273  1
  Te  Te131  1  0.24114885  0.59049048  0.73759164  1
  Te  Te132  1  0.23169851  0.93180650  0.08545829  1
  Te  Te133  1  0.26273715  0.92031621  0.42341350  1
  Te  Te134  1  0.23955018  0.92655514  0.77075370  1
  Te  Te135  1  0.59085593  0.26775592  0.06979507  1
  Te  Te136  1  0.56178854  0.27471601  0.42754844  1
  Te  Te137  1  0.57110788  0.25164779  0.75211479  1
  Te  Te138  1  0.58457898  0.57209677  0.05482298  1
  Te  Te139  1  0.59736710  0.58025624  0.41775996  1
  Te  Te140  1  0.59769066  0.59654418  0.76681933  1
  Te  Te141  1  0.59043140  0.92213389  0.07006054  1
  Te  Te142  1  0.58597449  0.90603676  0.42455077  1
  Te  Te143  1  0.59628759  0.93865721  0.76443456  1
  Te  Te144  1  0.88707697  0.25656787  0.07527497  1
  Te  Te145  1  0.94889969  0.26605719  0.41300183  1
  Te  Te146  1  0.90712380  0.26405835  0.76332704  1
  Te  Te147  1  0.96554623  0.55090052  0.06550841  1
  Te  Te148  1  0.89471590  0.56227081  0.40680796  1
  Te  Te149  1  0.91401790  0.57410532  0.76822411  1
  Te  Te150  1  0.93617589  0.93932820  0.08068302  1
  Te  Te151  1  0.89836913  0.95761091  0.43582122  1
  Te  Te152  1  0.92941992  0.91050984  0.80320904  1
  Te  Te153  1  0.21302226  0.08693137  0.23197217  1
  Te  Te154  1  0.25947673  0.08083783  0.58663016  1
  Te  Te155  1  0.24486265  0.10270150  0.93476450  1
  Te  Te156  1  0.27633242  0.40993577  0.27465012  1
  Te  Te157  1  0.25806021  0.42622996  0.57027344  1
  Te  Te158  1  0.24943325  0.40699489  0.94521721  1
  Te  Te159  1  0.25774280  0.76216834  0.23451241  1
  Te  Te160  1  0.21854601  0.75939740  0.59406517  1
  Te  Te161  1  0.24109948  0.72970389  0.91759568  1
  Te  Te162  1  0.58601780  0.10110570  0.25858486  1
  Te  Te163  1  0.60935180  0.08450097  0.57798045  1
  Te  Te164  1  0.59911886  0.07908608  0.88798454  1
  Te  Te165  1  0.60506109  0.43358477  0.23221686  1
  Te  Te166  1  0.59672635  0.39702100  0.59621295  1
  Te  Te167  1  0.61453904  0.43852093  0.94029959  1
  Te  Te168  1  0.58378830  0.77978021  0.25402789  1
  Te  Te169  1  0.58645750  0.74469680  0.59897865  1
  Te  Te170  1  0.57759716  0.77218679  0.92569246  1
  Te  Te171  1  0.94759191  0.11215802  0.23422435  1
  Te  Te172  1  0.87312937  0.13923185  0.61490105  1
  Te  Te173  1  0.88716591  0.04135065  0.88382307  1
  Te  Te174  1  0.96200353  0.40036372  0.21881722  1
  Te  Te175  1  0.89496570  0.40596486  0.56913662  1
  Te  Te176  1  0.87627070  0.46334852  0.97518869  1
  Te  Te177  1  0.89621732  0.74470887  0.23546569  1
  Te  Te178  1  0.91286506  0.75254234  0.56497087  1
  Te  Te179  1  0.91029825  0.70217499  0.90039156  1
