# generated using pymatgen
data_In2Te3
_symmetry_space_group_name_H-M   'P 1'
_cell_length_a   18.72040287
_cell_length_b   18.72826555
_cell_length_c   18.72602245
_cell_angle_alpha   89.95388767
_cell_angle_beta   89.93878503
_cell_angle_gamma   90.01614971
_symmetry_Int_Tables_number   1
_chemical_formula_structural   In2Te3
_chemical_formula_sum   'In72 Te108'
_cell_volume   6565.34999637
_cell_formula_units_Z   36
loop_
 _symmetry_equiv_pos_site_id
 _symmetry_equiv_pos_as_xyz
  1  'x, y, z'
loop_
 _atom_site_type_symbol
 _atom_site_label
 _atom_site_symmetry_multiplicity
 _atom_site_fract_x
 _atom_site_fract_y
 _atom_site_fract_z
 _atom_site_occupancy
  In  In0  1  -0.00268962  0.67580221  0.68487615  1
  In  In1  1  0.15353903  -0.00997910  0.83482123  1
  In  In2  1  -0.02456123  0.16587913  0.49818317  1
  In  In3  1  0.15742400  0.16100147  0.32087234  1
  In  In4  1  0.52575552  0.52369137  0.67840714  1
  In  In5  1  0.01332272  0.33320359  0.01818324  1
  In  In6  1  0.52934936  0.03470085  0.85594274  1
  In  In7  1  0.35335852  0.49339880  0.45128681  1
  In  In8  1  0.16531742  0.84348107  -0.00340161  1
  In  In9  1  0.18047918  0.16350115  0.03449310  1
  In  In10  1  -0.00424615  0.47767153  0.49315781  1
  In  In11  1  0.17468356  0.65377969  0.16820716  1
  In  In12  1  0.68517882  0.84483404  0.85901361  1
  In  In13  1  0.67457758  0.64133347  0.32110707  1
  In  In14  1  0.66192662  0.16632480  0.14445760  1
  In  In15  1  0.79853607  0.50739220  -0.00080141  1
  In  In16  1  0.01772481  0.66001055  0.33971477  1
  In  In17  1  0.85307953  0.47034474  0.30984162  1
  In  In18  1  0.81807687  0.31523644  0.84593593  1
  In  In19  1  0.34879319  0.18925910  0.17804174  1
  In  In20  1  0.48949304  0.83529632  0.67340625  1
  In  In21  1  0.35300012  0.31741749  0.00707724  1
  In  In22  1  0.85028935  0.68258236  0.52327770  1
  In  In23  1  0.68347361  0.02700160  0.68595008  1
  In  In24  1  0.82427035  0.66132892  0.15841486  1
  In  In25  1  0.50282242  0.02305310  0.49630252  1
  In  In26  1  0.66981254  0.01630106  0.32294127  1
  In  In27  1  -0.03477726  0.84209447  0.82284916  1
  In  In28  1  -0.00745125  0.51882237  0.83809819  1
  In  In29  1  -0.00805150  0.17101117  0.15966984  1
  In  In30  1  0.51330579  0.32689996  0.85782099  1
  In  In31  1  0.67393847  0.82585165  0.14651892  1
  In  In32  1  0.62946061  0.34222600  0.30731218  1
  In  In33  1  0.18535008  0.51423955  0.65645405  1
  In  In34  1  0.83568710  0.18261840  0.31823226  1
  In  In35  1  0.32524929  0.15271420  0.49277951  1
  In  In36  1  0.00946682  0.02408688  0.33680711  1
  In  In37  1  0.33655610  0.66217659  0.02547224  1
  In  In38  1  -0.02137857  0.16855476  0.82803612  1
  In  In39  1  0.33919978  0.82857047  0.82430661  1
  In  In40  1  0.48951636  0.34460491  0.46410846  1
  In  In41  1  0.14769253  0.49702231  0.02131038  1
  In  In42  1  0.52049095  0.65494428  0.49396944  1
  In  In43  1  0.51048414  0.48736331  0.02305208  1
  In  In44  1  0.82109472  0.00199095  0.50683860  1
  In  In45  1  0.50240942  0.15382311  0.67809215  1
  In  In46  1  0.50265719  -0.00468283  0.16651049  1
  In  In47  1  0.16967823  0.15913874  0.66972125  1
  In  In48  1  0.32109506  0.32899497  0.66269437  1
  In  In49  1  0.83429868  0.83967658  0.34608303  1
  In  In50  1  -0.03151216  0.31807483  0.68535680  1
  In  In51  1  0.51141110  0.81593393  0.00346926  1
  In  In52  1  0.67826845  0.32098662  0.65023854  1
  In  In53  1  -0.03331449  0.85986959  0.13838369  1
  In  In54  1  0.12848089  0.85742922  0.66805320  1
  In  In55  1  0.16963525  0.33050225  0.81535810  1
  In  In56  1  0.34485153  0.67891461  0.68120687  1
  In  In57  1  0.34745235  0.49971509  0.84632801  1
  In  In58  1  0.49277297  0.82952760  0.31069453  1
  In  In59  1  0.67982004  0.50052925  0.47969979  1
  In  In60  1  0.18653298  0.66633226  0.48888169  1
  In  In61  1  0.33489138  0.00082805  0.01528146  1
  In  In62  1  0.83558196  0.15568998  -0.00324881  1
  In  In63  1  0.66704466  0.67311499  0.70195653  1
  In  In64  1  0.15199478  0.32372065  0.46753805  1
  In  In65  1  0.36143902  0.62933990  0.30485752  1
  In  In66  1  -0.02088874  0.67068350  -0.00335997  1
  In  In67  1  0.17282428  0.82205278  0.34318801  1
  In  In68  1  0.68969402  0.86977824  0.51453099  1
  In  In69  1  0.33281552  0.85158618  0.48986378  1
  In  In70  1  0.15569922  0.00837736  0.15554879  1
  In  In71  1  0.85022778  0.49073470  0.67752648  1
  Te  Te72  1  0.05665757  0.07506725  0.05912513  1
  Te  Te73  1  0.09809502  0.08958731  0.44293752  1
  Te  Te74  1  0.06492292  0.07352373  0.74147164  1
  Te  Te75  1  0.07704247  0.41530695  0.12905188  1
  Te  Te76  1  0.08282202  0.42631767  0.38376370  1
  Te  Te77  1  0.07490112  0.42989113  0.73855655  1
  Te  Te78  1  0.07967659  0.75223908  0.09094052  1
  Te  Te79  1  0.07140430  0.75957834  0.44090756  1
  Te  Te80  1  0.09084017  0.75585405  0.77431830  1
  Te  Te81  1  0.42877155  0.10070974  0.07956225  1
  Te  Te82  1  0.41681307  0.08696232  0.39578809  1
  Te  Te83  1  0.41916670  0.06440599  0.76126507  1
  Te  Te84  1  0.41710321  0.40337264  0.11036977  1
  Te  Te85  1  0.40142869  0.39356750  0.34040500  1
  Te  Te86  1  0.42262948  0.41485309  0.74224197  1
  Te  Te87  1  0.42040941  0.75609340  0.10376296  1
  Te  Te88  1  0.41115774  0.73602420  0.42069945  1
  Te  Te89  1  0.45087657  0.73071290  0.77877732  1
  Te  Te90  1  0.76201427  0.06514827  0.09321302  1
  Te  Te91  1  0.74784254  0.10476348  0.41950197  1
  Te  Te92  1  0.76569393  0.08925039  0.79190488  1
  Te  Te93  1  0.72422534  0.43183383  0.10326580  1
  Te  Te94  1  0.75026978  0.39560467  0.39761001  1
  Te  Te95  1  0.74289561  0.41467227  0.75536320  1
  Te  Te96  1  0.75444950  0.74032869  0.05229734  1
  Te  Te97  1  0.73943578  0.74388083  0.42233515  1
  Te  Te98  1  0.76545050  0.76787753  0.75718766  1
  Te  Te99  1  0.06709222  0.25901415  0.25404927  1
  Te  Te100  1  0.08319018  0.26322800  0.59429513  1
  Te  Te101  1  0.08576240  0.24276521  0.91336879  1
  Te  Te102  1  0.06647096  0.57275031  0.23181296  1
  Te  Te103  1  0.06995091  0.58345289  0.57663725  1
  Te  Te104  1  0.09336106  0.59854875  0.92079668  1
  Te  Te105  1  0.07483139  0.90914878  0.24848590  1
  Te  Te106  1  0.05085422  0.91028039  0.55725769  1
  Te  Te107  1  0.05461210  0.92020474  0.92769074  1
  Te  Te108  1  0.44848941  0.26959825  0.25305350  1
  Te  Te109  1  0.42323827  0.25190327  0.57745655  1
  Te  Te110  1  0.41202012  0.22955152  0.90484179  1
  Te  Te111  1  0.45685418  0.55750612  0.21576848  1
  Te  Te112  1  0.40750988  0.57834622  0.58264122  1
  Te  Te113  1  0.43535079  0.58852805  0.93265201  1
  Te  Te114  1  0.40143525  0.92979232  0.25453483  1
  Te  Te115  1  0.41378038  0.93721538  0.58880885  1
  Te  Te116  1  0.42328754  0.91871439  0.91770871  1
  Te  Te117  1  0.74178664  0.26540164  0.23068297  1
  Te  Te118  1  0.78925095  0.25731595  0.57841644  1
  Te  Te119  1  0.72325926  0.24904308  0.94517475  1
  Te  Te120  1  0.74239702  0.53866720  0.22124468  1
  Te  Te121  1  0.74561744  0.58259591  0.59250837  1
  Te  Te122  1  0.72506048  0.59182775  0.90355707  1
  Te  Te123  1  0.75424814  0.91731771  0.24261127  1
  Te  Te124  1  0.77860990  0.90881194  0.63435049  1
  Te  Te125  1  0.76876662  0.94384578  0.93240356  1
  Te  Te126  1  0.24011858  0.27805832  0.11125639  1
  Te  Te127  1  0.26245976  0.25066880  0.39186137  1
  Te  Te128  1  0.27083839  0.22664356  0.76464721  1
  Te  Te129  1  0.26646312  0.54933220  0.10339072  1
  Te  Te130  1  0.23066161  0.56736673  0.37899837  1
  Te  Te131  1  0.25030601  0.59263611  0.76920821  1
  Te  Te132  1  0.25683803  0.90296094  0.10280688  1
  Te  Te133  1  0.24241395  0.93478246  0.40857635  1
  Te  Te134  1  0.25122495  0.92035060  0.73936845  1
  Te  Te135  1  0.58031343  0.24331878  0.04488798  1
  Te  Te136  1  0.58776127  0.24633523  0.41455449  1
  Te  Te137  1  0.59830231  0.24373481  0.75575665  1
  Te  Te138  1  0.60564141  0.56437259  0.11264391  1
  Te  Te139  1  0.56680910  0.55412690  0.38999712  1
  Te  Te140  1  0.60818635  0.56969002  0.79645132  1
  Te  Te141  1  0.59615530  0.92956607  0.06500761  1
  Te  Te142  1  0.58150263  0.91099241  0.40764403  1
  Te  Te143  1  0.58625809  0.92164618  0.75497744  1
  Te  Te144  1  0.89373164  0.26658275  0.08783616  1
  Te  Te145  1  0.93807932  0.26177359  0.39216227  1
  Te  Te146  1  0.85820855  0.21486303  0.73184548  1
  Te  Te147  1  0.91675607  0.56287942  0.08400227  1
  Te  Te148  1  0.89759626  0.58307608  0.41443051  1
  Te  Te149  1  0.88891561  0.60726501  0.77016584  1
  Te  Te150  1  0.86162012  0.92700995  0.05936078  1
  Te  Te151  1  0.93090456  0.92273809  0.42779145  1
  Te  Te152  1  0.90131595  0.93786910  0.72977943  1
  Te  Te153  1  0.25919525  0.07862141  0.24273263  1
  Te  Te154  1  0.24862669  0.06677333  0.58575096  1
  Te  Te155  1  0.24368686  0.08077143  0.92147287  1
  Te  Te156  1  0.25508641  0.42740731  0.30855252  1
  Te  Te157  1  0.25116666  0.41709872  0.55532490  1
  Te  Te158  1  0.24379902  0.41284071  0.92304108  1
  Te  Te159  1  0.26611349  0.74245905  0.25255979  1
  Te  Te160  1  0.24679940  0.75991670  0.59417060  1
  Te  Te161  1  0.25534074  0.74529678  0.92219781  1
  Te  Te162  1  0.56944547  0.10482651  0.25280940  1
  Te  Te163  1  0.60721388  0.10157376  0.57654502  1
  Te  Te164  1  0.60686538  0.12568320  0.94400262  1
  Te  Te165  1  0.56306357  0.43970707  0.20760762  1
  Te  Te166  1  0.57838429  0.41968850  0.57555876  1
  Te  Te167  1  0.60580663  0.41172212  0.93530597  1
  Te  Te168  1  0.58548015  0.73554447  0.23459541  1
  Te  Te169  1  0.59075473  0.75599569  0.58654552  1
  Te  Te170  1  0.61809626  0.73221147  0.93703228  1
  Te  Te171  1  0.90400465  0.07069948  0.23774982  1
  Te  Te172  1  0.91980836  0.06993673  0.59751959  1
  Te  Te173  1  0.88996460  0.05753447  0.88820520  1
  Te  Te174  1  0.94478734  0.39654121  0.22131085  1
  Te  Te175  1  0.89024643  0.39249436  0.56477296  1
  Te  Te176  1  0.91877801  0.41094439  0.91730771  1
  Te  Te177  1  0.91354880  0.74741052  0.25278681  1
  Te  Te178  1  0.93848192  0.78097657  0.59382516  1
  Te  Te179  1  0.88750635  0.76156904  0.92407298  1
