# generated using pymatgen
data_In2Te3
_symmetry_space_group_name_H-M   'P 1'
_cell_length_a   18.77209010
_cell_length_b   18.76035911
_cell_length_c   18.76255919
_cell_angle_alpha   90.02120835
_cell_angle_beta   90.05203401
_cell_angle_gamma   89.99932173
_symmetry_Int_Tables_number   1
_chemical_formula_structural   In2Te3
_chemical_formula_sum   'In72 Te108'
_cell_volume   6607.62889848
_cell_formula_units_Z   36
loop_
 _symmetry_equiv_pos_site_id
 _symmetry_equiv_pos_as_xyz
  1  'x, y, z'
loop_
 _atom_site_type_symbol
 _atom_site_label
 _atom_site_symmetry_multiplicity
 _atom_site_fract_x
 _atom_site_fract_y
 _atom_site_fract_z
 _atom_site_occupancy
  In  In0  1  0.13512886  0.00522021  0.18699900  1
  In  In1  1  0.65390433  0.63715240  0.00599898  1
  In  In2  1  0.66707014  0.32732511  0.66806008  1
  In  In3  1  0.02573974  0.35786186  0.02468852  1
  In  In4  1  0.51249934  0.04148021  0.18182595  1
  In  In5  1  0.32172661  0.00162464  0.34267011  1
  In  In6  1  0.64319518  0.16039092  0.82105838  1
  In  In7  1  0.00090343  0.65295431  0.65627989  1
  In  In8  1  0.84656566  0.82632460  0.65524581  1
  In  In9  1  0.83248390  0.50227714  0.00050593  1
  In  In10  1  0.16410148  0.00563754  0.81430593  1
  In  In11  1  0.33161853  0.83265959  0.17823190  1
  In  In12  1  0.13823861  0.67178335  0.47959879  1
  In  In13  1  0.83245161  0.64576954  0.19440133  1
  In  In14  1  -0.01030382  0.01216828  0.34685083  1
  In  In15  1  0.17442485  0.17148078  0.67828627  1
  In  In16  1  0.20227435  0.21648958  0.01455668  1
  In  In17  1  0.16438475  0.49846252  0.32920959  1
  In  In18  1  0.16924885  0.82802513  0.64705320  1
  In  In19  1  0.50485370  0.33108518  0.47655074  1
  In  In20  1  0.85077399  0.33967595  0.20127394  1
  In  In21  1  0.82762727  0.17024382  0.34208389  1
  In  In22  1  0.01401625  0.64936130  -0.00395409  1
  In  In23  1  0.48743728  0.48686421  0.66012220  1
  In  In24  1  0.48874237  0.34084652  0.18162148  1
  In  In25  1  -0.00841320  0.84196305  0.18772204  1
  In  In26  1  0.84004037  0.16362558  0.66025291  1
  In  In27  1  0.66226719  0.17725210  0.46905834  1
  In  In28  1  0.82452964  0.14956384  0.01197253  1
  In  In29  1  0.31968572  0.15380302  0.49436700  1
  In  In30  1  0.66898514  0.82335045  0.83454129  1
  In  In31  1  0.67507885  -0.00329795  0.66021245  1
  In  In32  1  0.67583207  0.48531891  0.83708020  1
  In  In33  1  0.48959515  0.01251248  0.84550620  1
  In  In34  1  0.17558247  0.19595887  0.30849459  1
  In  In35  1  0.02263171  0.18532228  0.84705133  1
  In  In36  1  0.64634702  0.33840078  0.02060418  1
  In  In37  1  0.48765648  0.66916491  0.82297236  1
  In  In38  1  0.34013465  0.67786250  0.35130192  1
  In  In39  1  -0.00194100  0.49438007  0.79318945  1
  In  In40  1  0.66862877  0.65381958  0.31966408  1
  In  In41  1  0.64589356  0.83669248  0.48544936  1
  In  In42  1  0.85302339  0.37840299  0.49734223  1
  In  In43  1  -0.00614778  0.83733545  0.81266099  1
  In  In44  1  0.66877515  0.00770229  -0.00230720  1
  In  In45  1  0.86302067  0.63487267  0.47361353  1
  In  In46  1  0.34609485  0.17644918  0.84182647  1
  In  In47  1  -0.01473451  0.17535427  0.50224531  1
  In  In48  1  0.15619430  -0.01838264  0.49539418  1
  In  In49  1  0.82467621  0.32696403  0.82402181  1
  In  In50  1  0.46898263  0.83278653  0.65950515  1
  In  In51  1  0.35034199  0.00285347  0.00251736  1
  In  In52  1  -0.01070320  0.00003826  0.01388007  1
  In  In53  1  0.48062052  0.86500333  0.00474460  1
  In  In54  1  0.49782343  -0.01171434  0.48640578  1
  In  In55  1  0.49598866  0.49584095  0.33595761  1
  In  In56  1  0.18883557  0.61898188  0.81406554  1
  In  In57  1  0.18868187  0.64155343  0.17765658  1
  In  In58  1  0.36431245  0.47669023  0.15181246  1
  In  In59  1  0.69344873  0.64171441  0.63674997  1
  In  In60  1  0.52243618  0.67889417  0.15589589  1
  In  In61  1  0.67905360  0.82317166  0.19469319  1
  In  In62  1  0.17863705  0.81364581  -0.00228234  1
  In  In63  1  0.18258083  0.35165274  0.48689023  1
  In  In64  1  0.50161961  0.16887802  0.68873216  1
  In  In65  1  0.31750877  0.62409432  0.00023361  1
  In  In66  1  0.83776234  0.84318611  0.33794997  1
  In  In67  1  0.84756447  0.82647545  -0.00089644  1
  In  In68  1  0.00970585  0.18587843  0.18208555  1
  In  In69  1  0.48122655  0.66189547  0.50222401  1
  In  In70  1  0.31685060  0.34418196  0.65164306  1
  In  In71  1  0.47215812  0.51558125  0.02679063  1
  Te  Te72  1  0.08691175  0.10385872  0.07257418  1
  Te  Te73  1  0.10047414  0.10507330  0.40789412  1
  Te  Te74  1  0.06140582  0.08457919  0.73545981  1
  Te  Te75  1  0.10694046  0.42393040  0.12794979  1
  Te  Te76  1  0.06695887  0.42679872  0.42346667  1
  Te  Te77  1  0.06892441  0.40468071  0.70240532  1
  Te  Te78  1  0.08069394  0.74887109  0.09638072  1
  Te  Te79  1  0.07311611  0.76327219  0.38305978  1
  Te  Te80  1  0.09135543  0.73281503  0.75886160  1
  Te  Te81  1  0.41869766  0.10474688  0.08437119  1
  Te  Te82  1  0.42750491  0.09610321  0.40314529  1
  Te  Te83  1  0.39623356  0.07169024  0.74006796  1
  Te  Te84  1  0.38191707  0.37410415  0.02323429  1
  Te  Te85  1  0.40342304  0.42667942  0.42796081  1
  Te  Te86  1  0.41496379  0.39562270  0.75204667  1
  Te  Te87  1  0.40228186  0.74274372  0.07272671  1
  Te  Te88  1  0.42721886  0.77440727  0.42290063  1
  Te  Te89  1  0.38843676  0.73635910  0.73677604  1
  Te  Te90  1  0.73534882  0.08241437  0.10667676  1
  Te  Te91  1  0.75638758  0.07174472  0.42670919  1
  Te  Te92  1  0.75657725  0.07972104  0.76025513  1
  Te  Te93  1  0.75750899  0.41186053  0.09584224  1
  Te  Te94  1  0.75800272  0.43184847  0.39880544  1
  Te  Te95  1  0.76615872  0.42931980  0.72740942  1
  Te  Te96  1  0.75334315  0.73452929  0.08660866  1
  Te  Te97  1  0.75089365  0.73647477  0.42114959  1
  Te  Te98  1  0.75516353  0.73874379  0.74180398  1
  Te  Te99  1  0.08468470  0.29827772  0.24411957  1
  Te  Te100  1  0.10090807  0.25040986  0.57035672  1
  Te  Te101  1  0.10957098  0.29238873  0.91448657  1
  Te  Te102  1  0.07265809  0.58898554  0.25266350  1
  Te  Te103  1  0.08686518  0.56456534  0.57309499  1
  Te  Te104  1  0.08761621  0.54941708  0.90718175  1
  Te  Te105  1  0.09130410  0.89839961  0.29255935  1
  Te  Te106  1  0.06289304  0.91107769  0.58543536  1
  Te  Te107  1  0.07982364  0.91016150  0.92687943  1
  Te  Te108  1  0.38241415  0.25274644  0.23399593  1
  Te  Te109  1  0.41795937  0.24429283  0.58113734  1
  Te  Te110  1  0.42662165  0.25164904  0.93654088  1
  Te  Te111  1  0.41123434  0.59838544  0.23755253  1
  Te  Te112  1  0.39569020  0.59160584  0.60364222  1
  Te  Te113  1  0.40253755  0.55878685  0.89011782  1
  Te  Te114  1  0.42174757  0.93065867  0.24762639  1
  Te  Te115  1  0.39505001  0.92383088  0.57022430  1
  Te  Te116  1  0.38931653  0.90363413  0.89040785  1
  Te  Te117  1  0.74320222  0.24818832  0.24686633  1
  Te  Te118  1  0.75697730  0.25488320  0.56686775  1
  Te  Te119  1  0.73597789  0.24894361  0.92040153  1
  Te  Te120  1  0.76637983  0.53998121  0.28486929  1
  Te  Te121  1  0.76599753  0.54619365  0.54784331  1
  Te  Te122  1  0.75930947  0.59609190  0.90435548  1
  Te  Te123  1  0.73871999  0.93429094  0.27295119  1
  Te  Te124  1  0.75471700  0.91201782  0.56389452  1
  Te  Te125  1  0.76037274  0.91856961  0.91222166  1
  Te  Te126  1  0.26340121  0.27822444  0.13934738  1
  Te  Te127  1  0.27772538  0.26669340  0.39943467  1
  Te  Te128  1  0.24746447  0.26977170  0.76863612  1
  Te  Te129  1  0.21094860  0.52942887  0.06626711  1
  Te  Te130  1  0.25648480  0.57637462  0.42388394  1
  Te  Te131  1  0.27036137  0.54139895  0.71926737  1
  Te  Te132  1  0.23916158  0.92168865  0.09060035  1
  Te  Te133  1  0.26192375  0.89926022  0.43080852  1
  Te  Te134  1  0.24841011  0.90664861  0.74715676  1
  Te  Te135  1  0.57493841  0.24151108  0.10703094  1
  Te  Te136  1  0.57139284  0.24677800  0.36921389  1
  Te  Te137  1  0.56399735  0.28163621  0.77241271  1
  Te  Te138  1  0.59781007  0.55279830  0.11829617  1
  Te  Te139  1  0.58603619  0.58082824  0.42722341  1
  Te  Te140  1  0.59130502  0.58271659  0.74590761  1
  Te  Te141  1  0.58890091  0.91299084  0.09925207  1
  Te  Te142  1  0.59985733  0.94111926  0.38949121  1
  Te  Te143  1  0.57837107  0.91942427  0.75372053  1
  Te  Te144  1  0.91711979  0.25757617  0.07422846  1
  Te  Te145  1  0.92369612  0.27074205  0.40327631  1
  Te  Te146  1  0.93245476  0.25684516  0.74245529  1
  Te  Te147  1  0.92823641  0.57201719  0.09734356  1
  Te  Te148  1  0.95501501  0.53976778  0.40145795  1
  Te  Te149  1  0.89800899  0.58956281  0.74264925  1
  Te  Te150  1  0.89202427  0.92615573  0.10645201  1
  Te  Te151  1  0.92777929  0.91154568  0.43491643  1
  Te  Te152  1  0.90150387  0.92981043  0.74669711  1
  Te  Te153  1  0.25500279  0.08716095  0.23376406  1
  Te  Te154  1  0.24436158  0.06648161  0.59228660  1
  Te  Te155  1  0.23863258  0.08628910  0.92177006  1
  Te  Te156  1  0.26216890  0.41420612  0.24617055  1
  Te  Te157  1  0.22793816  0.45487992  0.59423050  1
  Te  Te158  1  0.27453723  0.45186122  0.94682893  1
  Te  Te159  1  0.23607840  0.75575792  0.26804773  1
  Te  Te160  1  0.24506190  0.73129626  0.56552333  1
  Te  Te161  1  0.25804119  0.73067650  0.90219153  1
  Te  Te162  1  0.59899609  0.13530922  0.25807821  1
  Te  Te163  1  0.58464369  0.09420842  0.58274936  1
  Te  Te164  1  0.56421179  0.10434225  0.93994014  1
  Te  Te165  1  0.59205785  0.41447866  0.25846876  1
  Te  Te166  1  0.59071375  0.41729173  0.57074434  1
  Te  Te167  1  0.56948029  0.43568063  0.93160307  1
  Te  Te168  1  0.56497623  0.75995973  0.27635552  1
  Te  Te169  1  0.58725467  0.74959971  0.59986793  1
  Te  Te170  1  0.57552908  0.74885606  0.93227473  1
  Te  Te171  1  0.91281408  0.08431264  0.23824013  1
  Te  Te172  1  0.91232429  0.06879415  0.57225665  1
  Te  Te173  1  0.91942916  0.08749975  0.90958037  1
  Te  Te174  1  0.91233332  0.45062302  0.27830869  1
  Te  Te175  1  0.94450115  0.40479855  0.61087083  1
  Te  Te176  1  0.91904736  0.40993344  0.91346718  1
  Te  Te177  1  0.92876487  0.73230376  0.27669028  1
  Te  Te178  1  0.93127331  0.74562216  0.55670493  1
  Te  Te179  1  0.92345765  0.73419560  0.90570535  1
