# generated using pymatgen
data_In2Te3
_symmetry_space_group_name_H-M   'P 1'
_cell_length_a   18.96007858
_cell_length_b   18.97527623
_cell_length_c   18.98630373
_cell_angle_alpha   90.18559250
_cell_angle_beta   89.95709699
_cell_angle_gamma   90.17907811
_symmetry_Int_Tables_number   1
_chemical_formula_structural   In2Te3
_chemical_formula_sum   'In72 Te108'
_cell_volume   6830.68323021
_cell_formula_units_Z   36
loop_
 _symmetry_equiv_pos_site_id
 _symmetry_equiv_pos_as_xyz
  1  'x, y, z'
loop_
 _atom_site_type_symbol
 _atom_site_label
 _atom_site_symmetry_multiplicity
 _atom_site_fract_x
 _atom_site_fract_y
 _atom_site_fract_z
 _atom_site_occupancy
  In  In0  1  0.49977150  0.32717581  0.13425013  1
  In  In1  1  -0.00441865  0.68943668  0.36575842  1
  In  In2  1  0.65113607  0.00092661  0.68254093  1
  In  In3  1  0.64730707  0.53168619  0.57282376  1
  In  In4  1  0.63830576  0.14063113  0.52210709  1
  In  In5  1  0.14962312  0.70136038  0.18112861  1
  In  In6  1  0.32749320  0.01253584  0.35139190  1
  In  In7  1  0.50128036  0.82430290  0.01199943  1
  In  In8  1  0.35132185  0.85069237  0.18074206  1
  In  In9  1  0.00614020  0.15763053  0.15472303  1
  In  In10  1  -0.01337372  0.14797264  0.50464836  1
  In  In11  1  0.32795973  0.34167710  0.32373982  1
  In  In12  1  0.17228423  0.15267210  0.30697399  1
  In  In13  1  0.80716015  0.18155174  -0.00541773  1
  In  In14  1  0.15744198  0.34532248  0.48231418  1
  In  In15  1  0.65534913  0.83287676  0.18661881  1
  In  In16  1  0.83151852  0.50686922  0.69026129  1
  In  In17  1  0.33377195  0.50928251  0.16658158  1
  In  In18  1  0.81101622  -0.00482254  0.20652251  1
  In  In19  1  0.83235690  -0.01382075  0.51127835  1
  In  In20  1  0.50666946  0.12289683  0.82233234  1
  In  In21  1  -0.01134345  0.49663533  0.49930767  1
  In  In22  1  0.19178664  0.49906044  -0.01054081  1
  In  In23  1  0.01022358  0.33589744  0.65768065  1
  In  In24  1  0.00241672  0.51137230  0.16382082  1
  In  In25  1  0.79715269  0.82855179  0.02137921  1
  In  In26  1  -0.01069609  0.68434963  0.64469935  1
  In  In27  1  0.66654817  0.81854508  0.83439809  1
  In  In28  1  0.35265260  0.20565142  0.53499533  1
  In  In29  1  0.00488970  -0.01978025  0.36464749  1
  In  In30  1  0.33417808  0.83256360  0.83083269  1
  In  In31  1  0.80638177  0.32023291  0.48486372  1
  In  In32  1  0.49030778  0.00450944  0.17755944  1
  In  In33  1  0.34957038  0.50200081  0.50427066  1
  In  In34  1  0.16661623  -0.02459488  0.57465737  1
  In  In35  1  0.66748544  0.66103402  0.33186910  1
  In  In36  1  0.25350995  0.69240138  0.49119050  1
  In  In37  1  0.66790708  0.33360692  0.66342287  1
  In  In38  1  0.00508035  0.16712076  0.82524588  1
  In  In39  1  0.18003793  -0.00761745  0.79816430  1
  In  In40  1  0.50079838  0.16597740  0.33052484  1
  In  In41  1  -0.01071592  -0.00728364  0.00793715  1
  In  In42  1  0.63193106  0.83364410  0.48167521  1
  In  In43  1  0.00683350  0.81556540  0.81069608  1
  In  In44  1  0.48977432  0.84794961  0.66519833  1
  In  In45  1  0.50789441  0.33097942  0.82771517  1
  In  In46  1  0.53611179  0.64472328  0.81757117  1
  In  In47  1  0.82485305  0.32280534  0.83705048  1
  In  In48  1  0.82806559  0.15043774  0.36639597  1
  In  In49  1  0.66200091  0.17657961  0.15997995  1
  In  In50  1  0.48187774  0.67212022  0.52644617  1
  In  In51  1  0.17746875  0.32923955  0.14976932  1
  In  In52  1  -0.00588999  0.66315632  -0.00398457  1
  In  In53  1  0.17310232  0.16076070  -0.04167383  1
  In  In54  1  0.80442632  0.37360524  0.16002119  1
  In  In55  1  0.51632741  0.65130166  0.16870931  1
  In  In56  1  -0.01817330  0.31878702  -0.01670202  1
  In  In57  1  -0.01446656  0.84704564  0.22599197  1
  In  In58  1  0.16568944  0.84124314  0.34774248  1
  In  In59  1  0.18313773  0.65027090  0.80749228  1
  In  In60  1  0.17972635  0.82394147  -0.03041898  1
  In  In61  1  0.65646903  0.33266244  0.32081573  1
  In  In62  1  0.21088347  0.19666179  0.68827212  1
  In  In63  1  0.42733580  0.60955045  -0.00734175  1
  In  In64  1  0.32740983  0.33065444  -0.04960762  1
  In  In65  1  0.33401136  0.00647936  0.00416102  1
  In  In66  1  0.82641193  0.67332636  0.82973442  1
  In  In67  1  0.18081828  0.48772603  0.66047925  1
  In  In68  1  0.81812486  -0.06825167  0.79000310  1
  In  In69  1  0.50434492  0.49413954  0.33549183  1
  In  In70  1  0.83195775  0.52523589  0.31999688  1
  In  In71  1  0.81832915  0.49670674  -0.01443660  1
  Te  Te72  1  0.10023977  0.07820820  0.06814024  1
  Te  Te73  1  0.09749913  0.08451011  0.42348616  1
  Te  Te74  1  0.09851566  0.09855349  0.72841223  1
  Te  Te75  1  0.07678420  0.41453208  0.06636620  1
  Te  Te76  1  0.06973776  0.42648649  0.39992681  1
  Te  Te77  1  0.08213878  0.42305286  0.74887027  1
  Te  Te78  1  0.07546294  0.77018000  0.06866209  1
  Te  Te79  1  0.10995050  0.74477100  0.44792631  1
  Te  Te80  1  0.10936646  0.75163063  0.72309677  1
  Te  Te81  1  0.41869357  0.09244925  0.08648752  1
  Te  Te82  1  0.41479908  0.10354565  0.43732891  1
  Te  Te83  1  0.42497093  0.06880238  0.71030461  1
  Te  Te84  1  0.39136573  0.40979387  0.06928317  1
  Te  Te85  1  0.42889609  0.39578123  0.42162609  1
  Te  Te86  1  0.40313733  0.36473724  0.72459425  1
  Te  Te87  1  0.40425184  0.73543675  0.08931012  1
  Te  Te88  1  0.38714700  0.74589147  0.44015431  1
  Te  Te89  1  0.43363366  0.74207616  0.76106796  1
  Te  Te90  1  0.75422205  0.07509364  0.09223567  1
  Te  Te91  1  0.72475294  0.06058691  0.42630232  1
  Te  Te92  1  0.75936499  0.06199105  0.76088430  1
  Te  Te93  1  0.72473980  0.39777261  0.04270625  1
  Te  Te94  1  0.74224958  0.42746328  0.40212514  1
  Te  Te95  1  0.73240678  0.42182790  0.76896834  1
  Te  Te96  1  0.72264427  0.73318482  0.10104458  1
  Te  Te97  1  0.74059300  0.75867428  0.41418736  1
  Te  Te98  1  0.77958461  0.78473338  0.74130841  1
  Te  Te99  1  0.08206393  0.25592973  0.24298075  1
  Te  Te100  1  0.10006962  0.24144321  0.57964540  1
  Te  Te101  1  0.09330996  0.27133231  0.89243216  1
  Te  Te102  1  0.07284339  0.60094710  0.26353736  1
  Te  Te103  1  0.08085344  0.57832476  0.58535683  1
  Te  Te104  1  0.08937077  0.58483207  0.91232082  1
  Te  Te105  1  0.10093811  0.93681933  0.24839626  1
  Te  Te106  1  0.03656881  0.90743475  0.59203812  1
  Te  Te107  1  0.08753935  0.92860275  0.90560850  1
  Te  Te108  1  0.41692089  0.25233735  0.23888918  1
  Te  Te109  1  0.45617038  0.25649319  0.62836274  1
  Te  Te110  1  0.42893999  0.22803327  0.90739984  1
  Te  Te111  1  0.41231119  0.59117015  0.26604850  1
  Te  Te112  1  0.41710636  0.57306556  0.61643179  1
  Te  Te113  1  0.43415756  0.53917384  0.85983443  1
  Te  Te114  1  0.43363845  0.91803376  0.28903732  1
  Te  Te115  1  0.41120552  0.89173774  0.54205114  1
  Te  Te116  1  0.42395962  0.91673570  0.92050807  1
  Te  Te117  1  0.76339319  0.24287766  0.25984082  1
  Te  Te118  1  0.74664569  0.22550311  0.58558613  1
  Te  Te119  1  0.71589320  0.23226322  0.88943877  1
  Te  Te120  1  0.72521677  0.57102932  0.23099748  1
  Te  Te121  1  0.76667876  0.61183653  0.60843749  1
  Te  Te122  1  0.73614213  0.58995167  0.90753491  1
  Te  Te123  1  0.74489075  0.89444948  0.28815301  1
  Te  Te124  1  0.72168734  0.91114418  0.58225258  1
  Te  Te125  1  0.73686612  0.92256719  0.92348692  1
  Te  Te126  1  0.25613799  0.24133091  0.05840140  1
  Te  Te127  1  0.25384693  0.24019937  0.41113359  1
  Te  Te128  1  0.28019730  0.28806886  0.78173203  1
  Te  Te129  1  0.22841035  0.59586228  0.09873052  1
  Te  Te130  1  0.25238355  0.56657279  0.41768288  1
  Te  Te131  1  0.27677251  0.59193322  0.70844570  1
  Te  Te132  1  0.25202884  0.90368051  0.07968250  1
  Te  Te133  1  0.23707445  0.93339651  0.44362620  1
  Te  Te134  1  0.26073079  0.89680550  0.71737269  1
  Te  Te135  1  0.57997601  0.23314245  0.04997342  1
  Te  Te136  1  0.58803845  0.24714843  0.42486425  1
  Te  Te137  1  0.58211851  0.22783275  0.73337454  1
  Te  Te138  1  0.54846134  0.55794477  0.05728881  1
  Te  Te139  1  0.57749744  0.58279242  0.43473087  1
  Te  Te140  1  0.62813837  0.59535235  0.71265006  1
  Te  Te141  1  0.58441703  0.92461579  0.08841228  1
  Te  Te142  1  0.52486747  0.92703051  0.44628417  1
  Te  Te143  1  0.56779604  0.91670075  0.77810833  1
  Te  Te144  1  0.90331562  0.25448215  0.09605210  1
  Te  Te145  1  0.92706801  0.25626594  0.41768701  1
  Te  Te146  1  0.91265542  0.24902696  0.73786996  1
  Te  Te147  1  0.89882947  0.58534613  0.08272757  1
  Te  Te148  1  0.89610011  0.59811788  0.43682822  1
  Te  Te149  1  0.93519028  0.59676788  0.75709433  1
  Te  Te150  1  0.90561952  0.91336129  0.10683935  1
  Te  Te151  1  0.90998729  0.88663233  0.42852525  1
  Te  Te152  1  0.95800439  0.93400476  0.73643616  1
  Te  Te153  1  0.27439419  0.08042852  0.23257005  1
  Te  Te154  1  0.28822096  0.09146609  0.61287352  1
  Te  Te155  1  0.27316117  0.07773069  0.88129669  1
  Te  Te156  1  0.23167346  0.43052876  0.24885748  1
  Te  Te157  1  0.26455549  0.39409742  0.57627296  1
  Te  Te158  1  0.25512504  0.43476259  0.87278733  1
  Te  Te159  1  0.26243246  0.75908384  0.26444604  1
  Te  Te160  1  0.30779652  0.78699603  0.59315047  1
  Te  Te161  1  0.27138900  0.71885026  0.91256733  1
  Te  Te162  1  0.59871157  0.07804775  0.25688316  1
  Te  Te163  1  0.53582623  0.06210506  0.60321407  1
  Te  Te164  1  0.60792197  0.11811512  0.92972232  1
  Te  Te165  1  0.57973407  0.42026444  0.22540550  1
  Te  Te166  1  0.57990227  0.40263748  0.56969351  1
  Te  Te167  1  0.53841667  0.44479377  0.91835533  1
  Te  Te168  1  0.55908748  0.75145251  0.27242128  1
  Te  Te169  1  0.58780541  0.75087459  0.60162725  1
  Te  Te170  1  0.59048422  0.73214029  0.93252985  1
  Te  Te171  1  0.92920788  0.08216027  0.26521257  1
  Te  Te172  1  0.89742650  0.08428885  0.59930645  1
  Te  Te173  1  0.91548361  0.09614877  0.92587578  1
  Te  Te174  1  0.91678234  0.41868445  0.24909950  1
  Te  Te175  1  0.88809004  0.40972097  0.58471222  1
  Te  Te176  1  0.92021826  0.42539254  0.89804661  1
  Te  Te177  1  0.90913661  0.72751930  0.25181681  1
  Te  Te178  1  0.93153139  0.79493200  0.56718954  1
  Te  Te179  1  0.91226835  0.77172119  0.92527595  1
