# generated using pymatgen
data_In2Te3
_symmetry_space_group_name_H-M   'P 1'
_cell_length_a   18.91848769
_cell_length_b   18.90691261
_cell_length_c   18.92310375
_cell_angle_alpha   90.01446624
_cell_angle_beta   89.86235003
_cell_angle_gamma   89.99373599
_symmetry_Int_Tables_number   1
_chemical_formula_structural   In2Te3
_chemical_formula_sum   'In72 Te108'
_cell_volume   6768.58885270
_cell_formula_units_Z   36
loop_
 _symmetry_equiv_pos_site_id
 _symmetry_equiv_pos_as_xyz
  1  'x, y, z'
loop_
 _atom_site_type_symbol
 _atom_site_label
 _atom_site_symmetry_multiplicity
 _atom_site_fract_x
 _atom_site_fract_y
 _atom_site_fract_z
 _atom_site_occupancy
  In  In0  1  0.64523088  0.35362106  0.01642223  1
  In  In1  1  0.40230579  0.51601445  0.67175245  1
  In  In2  1  0.67097722  0.82044284  0.18652802  1
  In  In3  1  -0.01395253  0.36199307  0.30552454  1
  In  In4  1  0.19291470  0.67391144  0.49522162  1
  In  In5  1  -0.01950128  0.81118811  0.50116934  1
  In  In6  1  0.67218340  0.01845288  0.64486989  1
  In  In7  1  0.61259058  0.64101081  0.34406401  1
  In  In8  1  0.64642346  0.84884726  0.83138867  1
  In  In9  1  0.49185390  0.32466512  0.18083315  1
  In  In10  1  0.80540281  0.19189255  0.31448311  1
  In  In11  1  0.33490394  0.81779387  0.49974318  1
  In  In12  1  0.00009298  0.34087015  0.00355743  1
  In  In13  1  0.18077779  0.49386022  0.65972479  1
  In  In14  1  0.66167321  0.50181723  0.83329467  1
  In  In15  1  0.62994915  0.30934308  0.70400727  1
  In  In16  1  0.15068277  0.66216454  0.16184955  1
  In  In17  1  0.83949432  0.48196558  0.02222057  1
  In  In18  1  0.00807794  0.17233230  0.48361960  1
  In  In19  1  0.35380791  0.63599006  0.35241042  1
  In  In20  1  0.81365652  0.35343360  0.49753583  1
  In  In21  1  0.49033632  0.01066845  0.81495918  1
  In  In22  1  0.34543483  0.33745494  0.33682780  1
  In  In23  1  0.82696052  0.16520409  0.66772106  1
  In  In24  1  0.18302971  0.15872831  0.67517805  1
  In  In25  1  0.16798543  0.34916655  0.84084244  1
  In  In26  1  0.01029461  -0.00233204  -0.01393295  1
  In  In27  1  0.31457321  0.02989365  0.31095604  1
  In  In28  1  0.35428833  0.82581987  0.16768950  1
  In  In29  1  0.48048888  0.64474960  0.16517052  1
  In  In30  1  0.49114936  0.64661208  0.83242152  1
  In  In31  1  0.01130041  0.00646250  0.65962253  1
  In  In32  1  0.47887112  0.16715552  0.01284009  1
  In  In33  1  0.66625957  0.01769663  0.01392561  1
  In  In34  1  0.17524127  0.02171734  0.51382758  1
  In  In35  1  0.37368979  0.20681286  0.49720557  1
  In  In36  1  0.00614480  0.16139154  0.81391140  1
  In  In37  1  0.17834763  0.33387239  0.51631312  1
  In  In38  1  0.65002105  0.66889764  0.66944071  1
  In  In39  1  0.48460492  -0.01143319  0.49643731  1
  In  In40  1  0.18711812  0.49703777  0.00172972  1
  In  In41  1  0.83814746  0.66906925  0.49295950  1
  In  In42  1  0.19925887  0.18752616  0.02235404  1
  In  In43  1  0.18431602  0.66199362  0.82392064  1
  In  In44  1  0.86459336  0.84023889  0.01541902  1
  In  In45  1  0.33076819  0.82134404  0.82266669  1
  In  In46  1  0.80836464  0.18657796  0.02461365  1
  In  In47  1  0.00008599  -0.01231309  0.33274582  1
  In  In48  1  0.63914870  0.20594929  0.46890206  1
  In  In49  1  0.19125903  0.33616390  0.18542646  1
  In  In50  1  0.84804892  0.00188622  0.83547973  1
  In  In51  1  0.01896182  0.83797939  0.84105602  1
  In  In52  1  0.00113271  0.65786535  -0.00926747  1
  In  In53  1  0.65986997  0.46009033  0.48902928  1
  In  In54  1  0.83806431  0.33040807  0.84787904  1
  In  In55  1  0.65771787  0.83252243  0.52343974  1
  In  In56  1  0.63328768  0.49507843  0.17745312  1
  In  In57  1  0.49079941  0.50129119  0.00553244  1
  In  In58  1  0.01508570  0.51128847  0.49122068  1
  In  In59  1  0.33351910  -0.01084257  0.00648177  1
  In  In60  1  0.00863660  0.16061982  0.16348191  1
  In  In61  1  0.82984711  0.66636702  0.16451689  1
  In  In62  1  -0.01234112  0.64322808  0.32134352  1
  In  In63  1  0.67377158  0.00937248  0.33934552  1
  In  In64  1  0.80830099  0.64459550  0.81326488  1
  In  In65  1  0.50875454  0.80258323  0.00537391  1
  In  In66  1  0.17105441  0.83964860  0.32047251  1
  In  In67  1  0.50719908  0.01629321  0.18417794  1
  In  In68  1  0.84112001  0.50637115  0.65204588  1
  In  In69  1  0.19797548  0.82321750  0.65704653  1
  In  In70  1  0.83276290  0.81746089  0.33749916  1
  In  In71  1  0.34774504  0.18646672  0.83162285  1
  Te  Te72  1  0.12180833  0.07967616  0.09878568  1
  Te  Te73  1  0.09846471  0.08512839  0.39939939  1
  Te  Te74  1  0.10732984  0.06017894  0.76433954  1
  Te  Te75  1  0.09511301  0.41452760  0.09194651  1
  Te  Te76  1  0.08793518  0.40428348  0.41321016  1
  Te  Te77  1  0.08642750  0.41202795  0.73771393  1
  Te  Te78  1  0.06808496  0.75207028  0.07913191  1
  Te  Te79  1  0.08000764  0.74288175  0.40878418  1
  Te  Te80  1  0.09372104  0.75128679  0.73909204  1
  Te  Te81  1  0.39505620  0.08561887  0.10915529  1
  Te  Te82  1  0.41794069  0.09185538  0.40506779  1
  Te  Te83  1  0.42510690  0.11126033  0.72468916  1
  Te  Te84  1  0.41084901  0.41906122  0.09994147  1
  Te  Te85  1  0.44289697  0.40809503  0.42585209  1
  Te  Te86  1  0.44326768  0.38249635  0.72181433  1
  Te  Te87  1  0.39681539  0.72025354  0.06207153  1
  Te  Te88  1  0.42978069  0.74714118  0.41236956  1
  Te  Te89  1  0.44248292  0.75892011  0.75172688  1
  Te  Te90  1  0.76209595  0.07479862  0.10803913  1
  Te  Te91  1  0.75032906  0.10607625  0.42748124  1
  Te  Te92  1  0.74320185  0.08678496  0.76651458  1
  Te  Te93  1  0.74548291  0.40859715  0.11535175  1
  Te  Te94  1  0.73854310  0.39747472  0.37871806  1
  Te  Te95  1  0.75337079  0.41399165  0.74712384  1
  Te  Te96  1  0.74955167  0.75712767  0.07237889  1
  Te  Te97  1  0.72731601  0.73371869  0.40785595  1
  Te  Te98  1  0.74115270  0.76333939  0.74532693  1
  Te  Te99  1  0.08411699  0.25405379  0.25682297  1
  Te  Te100  1  0.08328359  0.24171502  0.59458075  1
  Te  Te101  1  0.08287817  0.23721356  0.92520789  1
  Te  Te102  1  0.10729087  0.57570646  0.27232051  1
  Te  Te103  1  0.09402830  0.59884877  0.58508178  1
  Te  Te104  1  0.09234136  0.57251521  0.90685753  1
  Te  Te105  1  0.07851726  0.91185183  0.23407684  1
  Te  Te106  1  0.08788539  0.90772032  0.56904912  1
  Te  Te107  1  0.11270516  0.91723426  0.92005253  1
  Te  Te108  1  0.39493402  0.23358280  0.24442422  1
  Te  Te109  1  0.44715813  0.29498372  0.59504251  1
  Te  Te110  1  0.40669781  0.27127844  0.93702745  1
  Te  Te111  1  0.40638366  0.54425374  0.24544758  1
  Te  Te112  1  0.42132093  0.62340154  0.57303567  1
  Te  Te113  1  0.39568774  0.56755478  0.91274478  1
  Te  Te114  1  0.41721877  0.92533405  0.26582207  1
  Te  Te115  1  0.39870909  0.91527844  0.59173177  1
  Te  Te116  1  0.44055877  0.91243675  0.92526525  1
  Te  Te117  1  0.69746259  0.22489982  0.22228153  1
  Te  Te118  1  0.73295082  0.25593281  0.58824248  1
  Te  Te119  1  0.72653095  0.26023788  0.92023779  1
  Te  Te120  1  0.72599451  0.59461235  0.24989738  1
  Te  Te121  1  0.73276991  0.57757310  0.57081993  1
  Te  Te122  1  0.75151789  0.57142824  0.93491984  1
  Te  Te123  1  0.76312474  0.92142660  0.25014827  1
  Te  Te124  1  0.75950541  0.91702053  0.58467751  1
  Te  Te125  1  0.74997435  0.91967951  0.92187693  1
  Te  Te126  1  0.28579095  0.29471448  0.07611243  1
  Te  Te127  1  0.24843250  0.24396356  0.41843899  1
  Te  Te128  1  0.25670525  0.27162423  0.73977026  1
  Te  Te129  1  0.25721086  0.59334665  0.08795503  1
  Te  Te130  1  0.25753440  0.55535677  0.43374940  1
  Te  Te131  1  0.27822130  0.56282213  0.75301824  1
  Te  Te132  1  0.25472551  0.89751025  0.08888716  1
  Te  Te133  1  0.25187259  0.92450056  0.41990361  1
  Te  Te134  1  0.27417301  0.92392816  0.73092178  1
  Te  Te135  1  0.59083947  0.23360260  0.09346402  1
  Te  Te136  1  0.53960390  0.29236681  0.39638121  1
  Te  Te137  1  0.54758775  0.20221117  0.75980326  1
  Te  Te138  1  0.59055764  0.59466671  0.07208364  1
  Te  Te139  1  0.54468406  0.54138661  0.43109077  1
  Te  Te140  1  0.56594500  0.55623275  0.72812165  1
  Te  Te141  1  0.57815043  0.91230217  0.09435111  1
  Te  Te142  1  0.58607496  0.91016001  0.41310695  1
  Te  Te143  1  0.57587993  0.92555846  0.72214736  1
  Te  Te144  1  0.91358494  0.26399579  0.10210118  1
  Te  Te145  1  0.91021804  0.26327379  0.41048860  1
  Te  Te146  1  0.92133414  0.26093570  0.73908074  1
  Te  Te147  1  0.93476584  0.56558754  0.10857652  1
  Te  Te148  1  0.89553861  0.55801173  0.40767567  1
  Te  Te149  1  0.92249994  0.58440234  0.74509828  1
  Te  Te150  1  0.92401155  0.94774287  0.09343019  1
  Te  Te151  1  0.90197572  0.91808282  0.42806743  1
  Te  Te152  1  0.92487022  0.91239268  0.74214255  1
  Te  Te153  1  0.22301458  0.09173213  0.21713708  1
  Te  Te154  1  0.28372684  0.10546252  0.57499070  1
  Te  Te155  1  0.26312206  0.09392097  0.92009721  1
  Te  Te156  1  0.26874382  0.43962759  0.25950626  1
  Te  Te157  1  0.27692980  0.43912102  0.55732888  1
  Te  Te158  1  0.27573211  0.42453626  0.90657312  1
  Te  Te159  1  0.26979334  0.73972807  0.26485886  1
  Te  Te160  1  0.29601646  0.70663540  0.60843407  1
  Te  Te161  1  0.24515958  0.75411182  0.91987311  1
  Te  Te162  1  0.59018311  0.11023902  0.26585906  1
  Te  Te163  1  0.57688849  0.09666413  0.55649889  1
  Te  Te164  1  0.57216450  0.08843785  0.91968101  1
  Te  Te165  1  0.58284190  0.39633197  0.27868465  1
  Te  Te166  1  0.56807668  0.39849044  0.59830055  1
  Te  Te167  1  0.56271152  0.41108930  0.90316061  1
  Te  Te168  1  0.55494112  0.74805827  0.25088209  1
  Te  Te169  1  0.55767499  0.73393235  0.57329277  1
  Te  Te170  1  0.59817140  0.72731012  0.90855375  1
  Te  Te171  1  0.91283143  0.09643258  0.26427550  1
  Te  Te172  1  0.91666532  0.08671635  0.57231663  1
  Te  Te173  1  0.91068028  0.10873616  0.92521994  1
  Te  Te174  1  0.91847512  0.46237629  0.22534853  1
  Te  Te175  1  0.93110903  0.41234268  0.57548113  1
  Te  Te176  1  0.92961363  0.43487493  0.90694142  1
  Te  Te177  1  0.92893189  0.75604450  0.23795901  1
  Te  Te178  1  0.91135436  0.73167537  0.60255952  1
  Te  Te179  1  0.90636987  0.74738422  0.90116538  1
