# generated using pymatgen
data_In2Te3
_symmetry_space_group_name_H-M   'P 1'
_cell_length_a   18.77335958
_cell_length_b   18.79075379
_cell_length_c   18.78397699
_cell_angle_alpha   89.97467215
_cell_angle_beta   89.97832557
_cell_angle_gamma   90.07188197
_symmetry_Int_Tables_number   1
_chemical_formula_structural   In2Te3
_chemical_formula_sum   'In72 Te108'
_cell_volume   6626.33415605
_cell_formula_units_Z   36
loop_
 _symmetry_equiv_pos_site_id
 _symmetry_equiv_pos_as_xyz
  1  'x, y, z'
loop_
 _atom_site_type_symbol
 _atom_site_label
 _atom_site_symmetry_multiplicity
 _atom_site_fract_x
 _atom_site_fract_y
 _atom_site_fract_z
 _atom_site_occupancy
  In  In0  1  0.34810780  0.18861643  0.51977503  1
  In  In1  1  0.67730378  0.17197788  0.86695372  1
  In  In2  1  0.16810772  0.65579950  0.15741253  1
  In  In3  1  -0.01134018  0.82959182  0.49111739  1
  In  In4  1  0.67101723  0.35264464  0.66697781  1
  In  In5  1  0.82023323  0.49104194  0.67498475  1
  In  In6  1  -0.01839563  0.51907624  0.50434504  1
  In  In7  1  0.33204472  0.67722255  0.01243607  1
  In  In8  1  0.69139367  0.67942242  0.04380793  1
  In  In9  1  0.53427045  0.82004176  0.30219137  1
  In  In10  1  0.33138044  0.63674441  0.66117372  1
  In  In11  1  0.51691717  0.32325812  0.84411646  1
  In  In12  1  -0.01185654  0.83625965  0.82899553  1
  In  In13  1  0.68574546  0.86434052  0.86021091  1
  In  In14  1  -0.01638359  0.35237665  0.31590076  1
  In  In15  1  0.52601066  0.33855035  0.17126822  1
  In  In16  1  0.80964995  -0.00254787  0.15367054  1
  In  In17  1  0.32253535  0.32065578  0.65165570  1
  In  In18  1  0.68659419  0.18348464  0.14857513  1
  In  In19  1  0.34589333  0.81731341  0.49815332  1
  In  In20  1  0.79815442  0.36124489  0.47057054  1
  In  In21  1  0.34183633  0.65367056  0.32015099  1
  In  In22  1  -0.00659344  0.32970487  0.69670454  1
  In  In23  1  0.50963254  0.51418554  0.33803828  1
  In  In24  1  0.15331805  0.35713286  0.16424618  1
  In  In25  1  0.16659035  -0.03031770  0.14784152  1
  In  In26  1  0.31273487  0.49893751  0.82627875  1
  In  In27  1  0.36237406  0.02216764  0.71126468  1
  In  In28  1  0.67308760  0.00513387  0.67038973  1
  In  In29  1  0.16236101  0.67268803  0.48482042  1
  In  In30  1  0.83695813  0.66928684  0.83368668  1
  In  In31  1  0.32874493  0.83016038  0.15489395  1
  In  In32  1  0.82731067  0.16005338  0.32085496  1
  In  In33  1  0.16313473  0.51730017  0.33395899  1
  In  In34  1  0.17262622  0.16311346  -0.01421166  1
  In  In35  1  -0.01442659  0.49327480  0.16944744  1
  In  In36  1  0.16666711  0.32447299  0.83427419  1
  In  In37  1  0.51196476  -0.00157942  0.48749273  1
  In  In38  1  -0.00410182  0.00699118  -0.01499772  1
  In  In39  1  0.67478366  -0.01925377  0.31945856  1
  In  In40  1  0.52257606  0.19372054  0.33584772  1
  In  In41  1  -0.00830649  0.67092372  0.00167628  1
  In  In42  1  0.51638659  -0.01386671  0.14668366  1
  In  In43  1  -0.01910680  -0.01682183  0.66801359  1
  In  In44  1  -0.00750105  0.47435081  0.85867402  1
  In  In45  1  0.19592709  0.35150069  0.51489392  1
  In  In46  1  -0.01715935  0.16575369  0.85604222  1
  In  In47  1  0.65870442  0.17709380  0.50835228  1
  In  In48  1  0.49873391  0.67905822  0.82865587  1
  In  In49  1  0.34582322  0.14291278  0.15268363  1
  In  In50  1  0.50052439  0.49805617  0.64823608  1
  In  In51  1  0.13872502  0.19964770  0.30133857  1
  In  In52  1  0.50083867  0.83461816  0.00466683  1
  In  In53  1  0.83688509  -0.02186575  0.51289736  1
  In  In54  1  0.16369233  -0.01129987  0.50822857  1
  In  In55  1  0.32616600  0.83762846  0.84723102  1
  In  In56  1  -0.02626317  -0.01322518  0.32572983  1
  In  In57  1  0.82577586  0.67094272  0.46760681  1
  In  In58  1  0.82394994  0.32665812  0.15000875  1
  In  In59  1  0.17152738  -0.00108454  0.83667287  1
  In  In60  1  0.52452354  0.50615107  0.00701060  1
  In  In61  1  -0.01219540  0.80974930  0.18120438  1
  In  In62  1  0.33721382  0.35771032  0.34123333  1
  In  In63  1  0.68200082  0.68324030  0.64255651  1
  In  In64  1  0.00941123  0.67995584  0.65127461  1
  In  In65  1  0.52463260  0.83900566  0.65673958  1
  In  In66  1  0.64733901  0.48227019  0.83867919  1
  In  In67  1  0.17117372  0.18285601  0.67955990  1
  In  In68  1  -0.00745518  0.14709523  0.50278657  1
  In  In69  1  0.83242502  0.48548648  0.00226973  1
  In  In70  1  0.34962097  0.33654420  -0.00413478  1
  In  In71  1  0.31702200  -0.00847822  0.34715985  1
  Te  Te72  1  0.08641744  0.08247935  0.08323581  1
  Te  Te73  1  0.08298283  0.07215922  0.40486613  1
  Te  Te74  1  0.07529939  0.08479560  0.74796476  1
  Te  Te75  1  0.07376412  0.43420387  0.06627045  1
  Te  Te76  1  0.08813047  0.40838859  0.41333665  1
  Te  Te77  1  0.09672409  0.42615710  0.74524026  1
  Te  Te78  1  0.09091356  0.76094552  0.07879614  1
  Te  Te79  1  0.05739709  0.73473021  0.40202564  1
  Te  Te80  1  0.08207205  0.74249198  0.76230174  1
  Te  Te81  1  0.43895668  0.07771532  0.05933185  1
  Te  Te82  1  0.41773885  0.09189527  0.40889653  1
  Te  Te83  1  0.45805935  0.10757193  0.79090183  1
  Te  Te84  1  0.42523271  0.42499944  0.09377884  1
  Te  Te85  1  0.42634111  0.42876734  0.43209136  1
  Te  Te86  1  0.43026529  0.42349918  0.76332418  1
  Te  Te87  1  0.43808042  0.73690264  0.10451322  1
  Te  Te88  1  0.43609199  0.74699497  0.39736149  1
  Te  Te89  1  0.41382452  0.76050341  0.73402394  1
  Te  Te90  1  0.73371561  0.07886159  0.05074874  1
  Te  Te91  1  0.74601552  0.07840989  0.42383298  1
  Te  Te92  1  0.75162856  0.08594741  0.76688946  1
  Te  Te93  1  0.73033127  0.42547254  0.09213369  1
  Te  Te94  1  0.71891718  0.45662805  0.38946135  1
  Te  Te95  1  0.76405072  0.39803136  0.78201453  1
  Te  Te96  1  0.78768088  0.77318405  0.10648703  1
  Te  Te97  1  0.70668112  0.72692818  0.39246809  1
  Te  Te98  1  0.74577793  0.76356049  0.75518802  1
  Te  Te99  1  0.03140466  0.26094149  0.19759368  1
  Te  Te100  1  0.08304021  0.25067741  0.57417644  1
  Te  Te101  1  0.06932110  0.26367757  0.93508945  1
  Te  Te102  1  0.06318225  0.59734137  0.25255661  1
  Te  Te103  1  0.09656881  0.57336363  0.58465603  1
  Te  Te104  1  0.07580828  0.57715137  0.92238457  1
  Te  Te105  1  0.08358733  0.90394820  0.25881220  1
  Te  Te106  1  0.08142424  0.89447474  0.59567457  1
  Te  Te107  1  0.09037122  0.90452924  0.92309133  1
  Te  Te108  1  0.40733455  0.25225153  0.25037206  1
  Te  Te109  1  0.44698740  0.25868315  0.60198718  1
  Te  Te110  1  0.42149527  0.23331337  0.91708871  1
  Te  Te111  1  0.42517890  0.57318914  0.23003106  1
  Te  Te112  1  0.44397793  0.61054446  0.56677187  1
  Te  Te113  1  0.42356947  0.57754170  0.91485098  1
  Te  Te114  1  0.41919122  0.92152938  0.25712229  1
  Te  Te115  1  0.41173490  0.92961213  0.58238961  1
  Te  Te116  1  0.43177949  0.92177353  0.90718241  1
  Te  Te117  1  0.73361405  0.26386403  0.26787071  1
  Te  Te118  1  0.76283460  0.26026326  0.58159950  1
  Te  Te119  1  0.77778075  0.27101762  0.91355018  1
  Te  Te120  1  0.73838578  0.63670941  0.27348590  1
  Te  Te121  1  0.75252937  0.57124791  0.56714684  1
  Te  Te122  1  0.74147127  0.58185793  0.91628752  1
  Te  Te123  1  0.74325754  0.88430546  0.22784939  1
  Te  Te124  1  0.73288439  0.90078333  0.58265469  1
  Te  Te125  1  0.75883914  0.95379023  0.95281873  1
  Te  Te126  1  0.24925264  0.25309500  0.09306204  1
  Te  Te127  1  0.24550645  0.24168946  0.41259908  1
  Te  Te128  1  0.27720937  0.23905051  0.77271690  1
  Te  Te129  1  0.25869180  0.56899006  0.08111062  1
  Te  Te130  1  0.26695318  0.57556234  0.42883316  1
  Te  Te131  1  0.23470730  0.61103631  0.77097095  1
  Te  Te132  1  0.27423721  0.92592769  0.05753008  1
  Te  Te133  1  0.23241646  0.88651359  0.41760283  1
  Te  Te134  1  0.25166950  0.91653794  0.73686789  1
  Te  Te135  1  0.56992630  0.23593970  0.07462802  1
  Te  Te136  1  0.57894603  0.28240169  0.43874203  1
  Te  Te137  1  0.60213325  0.24378192  0.74653139  1
  Te  Te138  1  0.60075672  0.58171800  0.11151961  1
  Te  Te139  1  0.62407169  0.58024075  0.41286614  1
  Te  Te140  1  0.59484799  0.59114365  0.74334893  1
  Te  Te141  1  0.61398459  0.89982620  0.07764650  1
  Te  Te142  1  0.60141944  0.89614840  0.42380714  1
  Te  Te143  1  0.57752881  0.92560278  0.77021724  1
  Te  Te144  1  0.91915552  0.23115929  0.09457604  1
  Te  Te145  1  0.91681713  0.24701578  0.41279621  1
  Te  Te146  1  0.90054262  0.23082247  0.75036321  1
  Te  Te147  1  0.89612596  0.59132877  0.09139463  1
  Te  Te148  1  0.91343673  0.57979990  0.39015659  1
  Te  Te149  1  0.92458903  0.57460608  0.74916894  1
  Te  Te150  1  0.92820738  0.92068235  0.09173138  1
  Te  Te151  1  0.88092880  0.88976617  0.39548266  1
  Te  Te152  1  0.88583077  0.91518466  0.75648723  1
  Te  Te153  1  0.24034651  0.07761973  0.24642854  1
  Te  Te154  1  0.25214274  0.08476125  0.58884096  1
  Te  Te155  1  0.26880149  0.08116001  0.91098517  1
  Te  Te156  1  0.25663305  0.43999549  0.24066394  1
  Te  Te157  1  0.26873936  0.44784537  0.59989102  1
  Te  Te158  1  0.23775053  0.41922073  0.93248021  1
  Te  Te159  1  0.24419475  0.75036996  0.25265839  1
  Te  Te160  1  0.24686824  0.74551466  0.58948621  1
  Te  Te161  1  0.23993084  0.74025816  0.91660484  1
  Te  Te162  1  0.58889322  0.08618485  0.24836675  1
  Te  Te163  1  0.56738888  0.09015162  0.59484953  1
  Te  Te164  1  0.56708538  0.07221917  0.89033094  1
  Te  Te165  1  0.60782486  0.42050623  0.26521934  1
  Te  Te166  1  0.59069325  0.41824709  0.56168270  1
  Te  Te167  1  0.60621079  0.38828331  0.95164128  1
  Te  Te168  1  0.60479858  0.70780353  0.23493158  1
  Te  Te169  1  0.56391453  0.73013043  0.56323134  1
  Te  Te170  1  0.60135298  0.73939641  0.92458153  1
  Te  Te171  1  0.91671063  0.08590365  0.22407646  1
  Te  Te172  1  0.89263579  0.09027195  0.60127051  1
  Te  Te173  1  0.88283899  0.06236025  0.90333661  1
  Te  Te174  1  0.87352779  0.43523269  0.25582876  1
  Te  Te175  1  0.91266788  0.40511973  0.57933787  1
  Te  Te176  1  0.89763396  0.37384231  0.92164985  1
  Te  Te177  1  0.87272489  0.72777119  0.22946488  1
  Te  Te178  1  0.89509861  0.75136912  0.58452973  1
  Te  Te179  1  0.89538920  0.76842225  0.93292938  1
