# generated using pymatgen
data_In2Te3
_symmetry_space_group_name_H-M   'P 1'
_cell_length_a   18.85409180
_cell_length_b   18.85846600
_cell_length_c   18.86009409
_cell_angle_alpha   90.04661291
_cell_angle_beta   90.09829665
_cell_angle_gamma   89.93178145
_symmetry_Int_Tables_number   1
_chemical_formula_structural   In2Te3
_chemical_formula_sum   'In72 Te108'
_cell_volume   6705.86406207
_cell_formula_units_Z   36
loop_
 _symmetry_equiv_pos_site_id
 _symmetry_equiv_pos_as_xyz
  1  'x, y, z'
loop_
 _atom_site_type_symbol
 _atom_site_label
 _atom_site_symmetry_multiplicity
 _atom_site_fract_x
 _atom_site_fract_y
 _atom_site_fract_z
 _atom_site_occupancy
  In  In0  1  0.31672384  0.16632580  0.48723289  1
  In  In1  1  0.47779561  0.33321261  0.19802884  1
  In  In2  1  0.00963410  0.52729270  0.48366353  1
  In  In3  1  0.84217681  0.49332685  0.67947042  1
  In  In4  1  0.32661690  -0.01103098  0.32654504  1
  In  In5  1  0.49824088  0.15152843  0.64394191  1
  In  In6  1  0.66885886  0.16738588  0.18128710  1
  In  In7  1  0.16471381  0.35139457  0.19167744  1
  In  In8  1  0.51373621  0.53769576  0.03243415  1
  In  In9  1  0.17202305  0.34772869  0.47360808  1
  In  In10  1  0.85140922  -0.01560837  0.18287921  1
  In  In11  1  0.49604401  0.85907170  0.64964602  1
  In  In12  1  0.16721946  0.15572399  0.67179257  1
  In  In13  1  0.36001100  0.51885194  0.83040969  1
  In  In14  1  0.16053903  0.84414383  0.66757615  1
  In  In15  1  0.16653712  0.48031632  0.63698431  1
  In  In16  1  0.50510085  0.30904980  0.40202144  1
  In  In17  1  -0.00067840  0.50612169  0.16091285  1
  In  In18  1  0.82974493  0.15157829  0.00709669  1
  In  In19  1  0.65726181  0.32932550  0.03014424  1
  In  In20  1  0.02035984  0.15775461  0.18377216  1
  In  In21  1  -0.02920187  0.16292922  0.84958205  1
  In  In22  1  0.83199826  0.67327860  0.49283434  1
  In  In23  1  0.67037148  0.00263377  0.67261759  1
  In  In24  1  0.34492810  -0.02662147  0.02360999  1
  In  In25  1  -0.00582075  0.35255200  0.00569268  1
  In  In26  1  0.49177521  0.80615798  0.03338467  1
  In  In27  1  -0.02438342  0.50748766  0.85365158  1
  In  In28  1  0.50929550  -0.01211081  0.51055861  1
  In  In29  1  0.69336264  0.53718438  0.86407515  1
  In  In30  1  0.16892090  0.35218195  0.83769103  1
  In  In31  1  0.66221850  0.83382003  0.49385185  1
  In  In32  1  0.68853483  0.16453091  0.82038952  1
  In  In33  1  0.29998123  0.35069228  0.62381594  1
  In  In34  1  0.69336237  0.53287441  0.19805766  1
  In  In35  1  -0.01230837  0.15721198  0.49091473  1
  In  In36  1  0.51216050  0.00379035  0.18051544  1
  In  In37  1  0.16276426  -0.02075508  0.48886005  1
  In  In38  1  0.31268535  0.52372423  0.18473383  1
  In  In39  1  0.47728162  0.51683251  0.64283929  1
  In  In40  1  0.83936115  0.81487019  0.32911771  1
  In  In41  1  0.49866400  0.52334428  0.30916416  1
  In  In42  1  0.18915593  0.67635823  0.19978657  1
  In  In43  1  0.49042648  0.80378727  0.33399100  1
  In  In44  1  0.32656458  0.14463668  0.84725393  1
  In  In45  1  0.51632880  0.34835387  0.83035471  1
  In  In46  1  0.68854078  0.82264850  0.16577381  1
  In  In47  1  -0.02021117  0.68209875  0.00334198  1
  In  In48  1  0.33330103  0.82664031  0.82928567  1
  In  In49  1  0.82459899  0.32081982  0.48111711  1
  In  In50  1  0.31813444  0.33743209  0.01338095  1
  In  In51  1  0.81573287  0.02670737  0.46765693  1
  In  In52  1  0.64649388  0.47936322  0.46771342  1
  In  In53  1  0.03858408  0.80821214  0.47432050  1
  In  In54  1  0.55687421  -0.01873104  0.84584430  1
  In  In55  1  0.32680295  0.66897808  0.63839629  1
  In  In56  1  0.13138187  0.00519634  0.85417986  1
  In  In57  1  0.66602839  0.66701253  0.66060857  1
  In  In58  1  -0.01315095  0.31175270  0.66723963  1
  In  In59  1  0.52780967  0.68282022  0.84373433  1
  In  In60  1  0.47913170  0.13669679  -0.00621266  1
  In  In61  1  0.36468478  -0.03289307  0.66065574  1
  In  In62  1  0.83101310  0.34376982  0.17730347  1
  In  In63  1  0.00054646  0.00780278  0.33861090  1
  In  In64  1  -0.01853941  0.83464527  0.16391058  1
  In  In65  1  0.18314623  0.67061009  0.84821519  1
  In  In66  1  -0.01016160  0.83156910  0.84553993  1
  In  In67  1  0.69272417  0.35321238  0.63761707  1
  In  In68  1  0.83172971  0.82137355  0.68594836  1
  In  In69  1  0.14726477  0.16891769  0.04016246  1
  In  In70  1  0.17124449  -0.01567593  0.16967797  1
  In  In71  1  0.00033533  0.63313797  0.66464231  1
  Te  Te72  1  0.05885395  0.05378930  0.08119215  1
  Te  Te73  1  0.10300030  0.09464354  0.41134580  1
  Te  Te74  1  0.05892391  0.08252276  0.74449964  1
  Te  Te75  1  0.10454256  0.42875598  0.07401252  1
  Te  Te76  1  0.08325013  0.43510446  0.39396444  1
  Te  Te77  1  0.07054634  0.42786003  0.74860142  1
  Te  Te78  1  0.08085025  0.73784794  0.10203851  1
  Te  Te79  1  0.06568238  0.71069207  0.36636989  1
  Te  Te80  1  0.08434946  0.73793664  0.74879167  1
  Te  Te81  1  0.39996120  0.08557481  0.11120424  1
  Te  Te82  1  0.41631505  0.07270467  0.42199274  1
  Te  Te83  1  0.43228748  0.07294126  0.75620960  1
  Te  Te84  1  0.41887855  0.42781434  0.08659435  1
  Te  Te85  1  0.42155844  0.43128288  0.39712850  1
  Te  Te86  1  0.40515811  0.40617777  0.73633763  1
  Te  Te87  1  0.39185310  0.71681922  0.09808015  1
  Te  Te88  1  0.38975041  0.70621371  0.38586341  1
  Te  Te89  1  0.42355603  0.74367411  0.73890271  1
  Te  Te90  1  0.74672306  0.06569205  0.10025245  1
  Te  Te91  1  0.73317452  0.12288179  0.39336015  1
  Te  Te92  1  0.77387438  0.06114337  0.75994434  1
  Te  Te93  1  0.74806114  0.43505559  0.08861926  1
  Te  Te94  1  0.76772475  0.43095204  0.40132242  1
  Te  Te95  1  0.73668835  0.42311572  0.76395103  1
  Te  Te96  1  0.74296885  0.71156054  0.07769243  1
  Te  Te97  1  0.72710023  0.73402105  0.39944615  1
  Te  Te98  1  0.75319134  0.72456592  0.76643608  1
  Te  Te99  1  0.07464692  0.26349513  0.27023862  1
  Te  Te100  1  0.09912442  0.25527283  0.57848919  1
  Te  Te101  1  0.09207984  0.24676124  0.91655444  1
  Te  Te102  1  0.09328223  0.57307932  0.26276400  1
  Te  Te103  1  0.11156460  0.60557260  0.56582058  1
  Te  Te104  1  0.08080458  0.58933472  0.92611946  1
  Te  Te105  1  0.07751117  0.90369971  0.26037878  1
  Te  Te106  1  0.05964244  0.92165876  0.58288868  1
  Te  Te107  1  0.09464354  0.88889502  0.93451506  1
  Te  Te108  1  0.42598016  0.23905839  0.29714647  1
  Te  Te109  1  0.41074411  0.25217155  0.57281620  1
  Te  Te110  1  0.41828806  0.26041799  0.91543715  1
  Te  Te111  1  0.42472107  0.62200112  0.21816642  1
  Te  Te112  1  0.42204553  0.60837005  0.54070413  1
  Te  Te113  1  0.42230304  0.61319749  0.93020992  1
  Te  Te114  1  0.41709238  0.90104951  0.24010249  1
  Te  Te115  1  0.39691875  0.88441468  0.53548399  1
  Te  Te116  1  0.43138660  0.91324971  0.91116736  1
  Te  Te117  1  0.73476666  0.27096411  0.26781308  1
  Te  Te118  1  0.77483050  0.24006208  0.59432239  1
  Te  Te119  1  0.74629936  0.25604243  0.93148107  1
  Te  Te120  1  0.80713361  0.60206619  0.26335755  1
  Te  Te121  1  0.75247348  0.57045590  0.58034116  1
  Te  Te122  1  0.77473211  0.60311100  0.96843882  1
  Te  Te123  1  0.74491484  0.91999390  0.27060168  1
  Te  Te124  1  0.76014681  0.91295532  0.57601946  1
  Te  Te125  1  0.67983405  0.90580237  0.88627963  1
  Te  Te126  1  0.25588671  0.24614494  0.11483972  1
  Te  Te127  1  0.25883210  0.26102039  0.39090030  1
  Te  Te128  1  0.25305370  0.25198772  0.75418434  1
  Te  Te129  1  0.25635287  0.61155411  0.07933177  1
  Te  Te130  1  0.20335937  0.63614336  0.35925862  1
  Te  Te131  1  0.24707825  0.57439967  0.73941130  1
  Te  Te132  1  0.26011602  0.88546962  0.10391655  1
  Te  Te133  1  0.23443669  0.88975283  0.39491752  1
  Te  Te134  1  0.24408247  0.93694470  0.76203452  1
  Te  Te135  1  0.55214306  0.23916984  0.09170108  1
  Te  Te136  1  0.64035280  0.24912949  0.40591743  1
  Te  Te137  1  0.58049971  0.24125182  0.74144028  1
  Te  Te138  1  0.61247008  0.62572492  0.10568583  1
  Te  Te139  1  0.59215683  0.59710996  0.39898738  1
  Te  Te140  1  0.57620124  0.56827233  0.74845380  1
  Te  Te141  1  0.58811684  0.91340182  0.08578811  1
  Te  Te142  1  0.58032680  0.91620396  0.39729600  1
  Te  Te143  1  0.61471900  0.87304313  0.74689118  1
  Te  Te144  1  0.92332130  0.24536307  0.08879028  1
  Te  Te145  1  0.93238952  0.25892733  0.40112797  1
  Te  Te146  1  0.89327400  0.25587663  0.76466949  1
  Te  Te147  1  0.90331751  0.56463682  0.06024975  1
  Te  Te148  1  0.90438397  0.58731235  0.39323298  1
  Te  Te149  1  0.89423275  0.60687692  0.77100606  1
  Te  Te150  1  0.88455845  0.89524217  0.06732388  1
  Te  Te151  1  0.91867128  0.90722036  0.42255014  1
  Te  Te152  1  0.90857251  0.92192415  0.76071241  1
  Te  Te153  1  0.23912244  0.08369783  0.25406857  1
  Te  Te154  1  0.25861097  0.06469420  0.59051817  1
  Te  Te155  1  0.24091748  0.07521394  0.95096320  1
  Te  Te156  1  0.26908630  0.41761717  0.27606023  1
  Te  Te157  1  0.26882327  0.46211969  0.52662985  1
  Te  Te158  1  0.25876093  0.44287690  0.92011898  1
  Te  Te159  1  0.27641591  0.76100265  0.29618217  1
  Te  Te160  1  0.24267877  0.76972541  0.56905765  1
  Te  Te161  1  0.24239760  0.77556533  0.93362059  1
  Te  Te162  1  0.58418448  0.09119258  0.27601195  1
  Te  Te163  1  0.61047556  0.09060686  0.56269087  1
  Te  Te164  1  0.61063307  0.09528349  0.93575032  1
  Te  Te165  1  0.59197753  0.42289256  0.23928009  1
  Te  Te166  1  0.56630470  0.40767489  0.57581625  1
  Te  Te167  1  0.58460669  0.43627993  0.93421253  1
  Te  Te168  1  0.58538830  0.73940030  0.23665539  1
  Te  Te169  1  0.56960557  0.74366053  0.57194891  1
  Te  Te170  1  0.60513650  0.76592817  0.93980446  1
  Te  Te171  1  0.90441871  0.10053431  0.26606140  1
  Te  Te172  1  0.89558188  0.08482922  0.57795636  1
  Te  Te173  1  0.90845181  0.05532619  0.92782354  1
  Te  Te174  1  0.93396576  0.41368974  0.25553807  1
  Te  Te175  1  0.93367836  0.42471681  0.57805042  1
  Te  Te176  1  0.89358220  0.39987426  0.90988259  1
  Te  Te177  1  0.90156343  0.72235025  0.22808763  1
  Te  Te178  1  0.93189482  0.74550789  0.58338734  1
  Te  Te179  1  0.88555905  0.77808536  0.93759214  1
