# generated using pymatgen
data_In2Te3
_symmetry_space_group_name_H-M   'P 1'
_cell_length_a   19.04392466
_cell_length_b   19.00205218
_cell_length_c   19.01625005
_cell_angle_alpha   89.94378300
_cell_angle_beta   89.99525306
_cell_angle_gamma   90.03029990
_symmetry_Int_Tables_number   1
_chemical_formula_structural   In2Te3
_chemical_formula_sum   'In72 Te108'
_cell_volume   6881.47551457
_cell_formula_units_Z   36
loop_
 _symmetry_equiv_pos_site_id
 _symmetry_equiv_pos_as_xyz
  1  'x, y, z'
loop_
 _atom_site_type_symbol
 _atom_site_label
 _atom_site_symmetry_multiplicity
 _atom_site_fract_x
 _atom_site_fract_y
 _atom_site_fract_z
 _atom_site_occupancy
  In  In0  1  0.50392444  0.84757193  0.01123738  1
  In  In1  1  0.35346566  0.34268807  0.68390377  1
  In  In2  1  -0.02171134  0.00101661  0.05454024  1
  In  In3  1  0.81787488  0.67494136  0.83234544  1
  In  In4  1  0.16863577  0.32252884  0.50941570  1
  In  In5  1  0.48312566  0.79979820  0.66762232  1
  In  In6  1  0.08381344  0.74306145  0.93891796  1
  In  In7  1  0.01951591  0.34415158  0.67638205  1
  In  In8  1  0.67345487  0.51220447  0.47582870  1
  In  In9  1  0.00183029  0.00394759  0.66849907  1
  In  In10  1  0.67319213  -0.00184630  0.68112680  1
  In  In11  1  -0.03291429  0.48876357  0.47358656  1
  In  In12  1  0.17706717  0.18497085  0.02309772  1
  In  In13  1  0.30548009  0.16300185  0.82711539  1
  In  In14  1  0.82150708  0.49465771  0.65581334  1
  In  In15  1  0.48995330  0.33836321  0.83230987  1
  In  In16  1  0.50113596  0.66830230  0.83105548  1
  In  In17  1  0.52281114  0.48449860  0.00157892  1
  In  In18  1  0.15992205  0.84464125  0.34325588  1
  In  In19  1  0.31296023  0.49841270  0.14335078  1
  In  In20  1  0.14179144  0.17112443  0.31139666  1
  In  In21  1  0.48531799  0.14643746  0.66195874  1
  In  In22  1  0.35096233  0.47953535  0.81402601  1
  In  In23  1  0.85310031  0.68221139  0.15587772  1
  In  In24  1  0.35002566  0.34327303  0.32969023  1
  In  In25  1  0.51195811  0.31302699  0.17679263  1
  In  In26  1  0.19299485  -0.00166619  0.17979159  1
  In  In27  1  0.50867374  -0.01846151  0.50568327  1
  In  In28  1  0.85631469  0.85495091  0.64918974  1
  In  In29  1  0.65186202  0.82370340  0.82376387  1
  In  In30  1  0.15356574  0.80444442  0.68180639  1
  In  In31  1  0.87301795  -0.02939027  0.85030845  1
  In  In32  1  0.83009283  0.35137879  0.84470894  1
  In  In33  1  0.13204395  -0.01863156  0.86349582  1
  In  In34  1  0.13553811  0.53178778  0.32838149  1
  In  In35  1  0.67150433  0.34596012  0.33430049  1
  In  In36  1  0.84857972  0.82244553  0.01201593  1
  In  In37  1  0.31347553  0.67079155  0.33285665  1
  In  In38  1  0.18447654  0.01733450  0.48097598  1
  In  In39  1  0.50377711  0.49192639  0.33415054  1
  In  In40  1  0.50306343  0.67648114  0.17609103  1
  In  In41  1  -0.02177815  0.03310052  0.29549815  1
  In  In42  1  0.67274187  0.17286534  0.83827244  1
  In  In43  1  0.15290491  0.66866908  0.50890971  1
  In  In44  1  0.65684704  0.32865934  0.62339632  1
  In  In45  1  0.86635986  0.35003631  0.15079823  1
  In  In46  1  -0.00300760  0.14844955  0.85000357  1
  In  In47  1  0.51559829  0.83349326  0.33595011  1
  In  In48  1  0.61197823  0.61928420  0.64456894  1
  In  In49  1  0.00705613  0.84382617  0.49004063  1
  In  In50  1  0.47781421  0.64369490  0.50378346  1
  In  In51  1  0.29862278  0.65565404  -0.02154442  1
  In  In52  1  0.13741738  0.37722897  0.14710118  1
  In  In53  1  0.16309821  0.34594886  0.84454610  1
  In  In54  1  0.70782900  0.52666363  0.15708613  1
  In  In55  1  0.68860632  0.01319558  0.01352213  1
  In  In56  1  0.34557196  -0.02005842  0.01867584  1
  In  In57  1  0.70105205  0.67929640  0.30262807  1
  In  In58  1  -0.01142276  0.22251278  0.44439122  1
  In  In59  1  0.35078046  0.15670768  0.49121033  1
  In  In60  1  0.30737599  0.32100626  0.00196913  1
  In  In61  1  0.17922121  0.49515158  0.67166867  1
  In  In62  1  0.31387278  -0.00963340  0.67313324  1
  In  In63  1  0.80580373  0.86239402  0.29878755  1
  In  In64  1  0.52319051  0.10972286  0.03342997  1
  In  In65  1  0.65790763  0.15224956  0.44227096  1
  In  In66  1  0.81927229  0.01847458  0.48102686  1
  In  In67  1  -0.00781966  0.66023483  0.67072949  1
  In  In68  1  0.33963706  0.82680005  0.17911514  1
  In  In69  1  0.65638856  0.16441345  0.18434480  1
  In  In70  1  0.81587676  0.18209824  0.66832458  1
  In  In71  1  0.86494543  0.52397001  -0.00546616  1
  Te  Te72  1  0.09599314  0.08598574  0.10247488  1
  Te  Te73  1  0.06129831  0.08588599  0.41975399  1
  Te  Te74  1  0.09483409  0.08559841  0.75470762  1
  Te  Te75  1  0.07382789  0.43652721  0.02827066  1
  Te  Te76  1  0.09111349  0.41831610  0.42157220  1
  Te  Te77  1  0.07650307  0.44715681  0.77268122  1
  Te  Te78  1  0.03414786  0.68847221  0.07374476  1
  Te  Te79  1  0.06956860  0.73753251  0.40304273  1
  Te  Te80  1  0.08933231  0.70675848  0.77328381  1
  Te  Te81  1  0.39277177  0.09488893  0.09372706  1
  Te  Te82  1  0.43940966  0.07166688  0.41447283  1
  Te  Te83  1  0.40697733  0.06969031  0.76491519  1
  Te  Te84  1  0.41628647  0.40224480  0.08678708  1
  Te  Te85  1  0.41522145  0.42735517  0.42966804  1
  Te  Te86  1  0.46605814  0.43927126  0.72238924  1
  Te  Te87  1  0.40499592  0.73359584  0.07554039  1
  Te  Te88  1  0.41337620  0.74735054  0.41519187  1
  Te  Te89  1  0.40207673  0.76462775  0.78407046  1
  Te  Te90  1  0.76597313  0.09641750  0.10848191  1
  Te  Te91  1  0.77562191  0.10414076  0.36700806  1
  Te  Te92  1  0.78241786  0.06518839  0.76188785  1
  Te  Te93  1  0.76415691  0.42483798  0.06453378  1
  Te  Te94  1  0.76841006  0.40828360  0.42763074  1
  Te  Te95  1  0.73430875  0.39888051  0.73289569  1
  Te  Te96  1  0.74650755  0.73928349  0.07515055  1
  Te  Te97  1  0.76750098  0.76442074  0.40018173  1
  Te  Te98  1  0.75775452  0.76951327  0.73096761  1
  Te  Te99  1  0.06411132  0.27994686  0.24115680  1
  Te  Te100  1  0.06543618  0.23733094  0.57845543  1
  Te  Te101  1  0.08005428  0.24945415  0.92694783  1
  Te  Te102  1  0.05676584  0.59044727  0.21916770  1
  Te  Te103  1  0.06817145  0.56050521  0.58259947  1
  Te  Te104  1  0.08552311  0.58501586  0.97888240  1
  Te  Te105  1  0.07636104  0.92801004  0.24763725  1
  Te  Te106  1  0.09725814  0.92464830  0.58003667  1
  Te  Te107  1  0.05100525  0.90600378  0.96251294  1
  Te  Te108  1  0.43059110  0.23604294  0.26994839  1
  Te  Te109  1  0.42499157  0.25557264  0.57859484  1
  Te  Te110  1  0.40218675  0.24393777  0.91204721  1
  Te  Te111  1  0.40505043  0.58023270  0.24477024  1
  Te  Te112  1  0.41604644  0.59451086  0.62557234  1
  Te  Te113  1  0.41982397  0.56793982  0.92486235  1
  Te  Te114  1  0.42766331  0.91646448  0.25184511  1
  Te  Te115  1  0.40613728  0.90680783  0.58780692  1
  Te  Te116  1  0.41482952  0.90787425  0.91279740  1
  Te  Te117  1  0.74601464  0.28162387  0.22157976  1
  Te  Te118  1  0.74605063  0.23555206  0.54695153  1
  Te  Te119  1  0.76388331  0.24631696  0.92316165  1
  Te  Te120  1  0.78851963  0.55552700  0.28183097  1
  Te  Te121  1  0.74765409  0.59886513  0.57624938  1
  Te  Te122  1  0.75123577  0.57064175  0.91170583  1
  Te  Te123  1  0.70381980  0.97144236  0.28857258  1
  Te  Te124  1  0.74482428  0.92110207  0.57187237  1
  Te  Te125  1  0.74979317  0.90736295  0.91161302  1
  Te  Te126  1  0.24746592  0.26554391  0.12792974  1
  Te  Te127  1  0.24576755  0.24450391  0.40557862  1
  Te  Te128  1  0.23535735  0.26430044  0.73998757  1
  Te  Te129  1  0.22049023  0.59967008  0.09115085  1
  Te  Te130  1  0.24583461  0.57854985  0.42922136  1
  Te  Te131  1  0.29026509  0.58241123  0.72189207  1
  Te  Te132  1  0.24012251  0.89317908  0.08254293  1
  Te  Te133  1  0.26202102  0.90931481  0.42372970  1
  Te  Te134  1  0.22463985  0.90971924  0.76550917  1
  Te  Te135  1  0.58561099  0.24249850  0.06654272  1
  Te  Te136  1  0.56936702  0.25720409  0.39239549  1
  Te  Te137  1  0.58198393  0.24001042  0.73797688  1
  Te  Te138  1  0.59025613  0.59158273  0.08461829  1
  Te  Te139  1  0.58686073  0.60706458  0.38700642  1
  Te  Te140  1  0.61795016  0.58869989  0.78675329  1
  Te  Te141  1  0.58392593  0.94250085  0.09517841  1
  Te  Te142  1  0.60900608  0.92158461  0.41314980  1
  Te  Te143  1  0.56489602  0.91262274  0.73890181  1
  Te  Te144  1  0.95888055  0.23655299  0.11964435  1
  Te  Te145  1  0.88856795  0.30413590  0.37363596  1
  Te  Te146  1  0.92353388  0.24859866  0.75721280  1
  Te  Te147  1  0.93554634  0.55919364  0.12815077  1
  Te  Te148  1  0.91771489  0.57251763  0.36613531  1
  Te  Te149  1  0.90332193  0.57216773  0.75551634  1
  Te  Te150  1  0.88071501  0.91372678  0.12534546  1
  Te  Te151  1  0.91840509  0.93036824  0.40365044  1
  Te  Te152  1  0.95779167  0.88822001  0.75641588  1
  Te  Te153  1  0.25210750  0.07900673  0.28630118  1
  Te  Te154  1  0.25029405  0.09991937  0.58960542  1
  Te  Te155  1  0.23569719  0.07492210  0.92950324  1
  Te  Te156  1  0.23915356  0.43206832  0.25877648  1
  Te  Te157  1  0.26610335  0.41346850  0.57911051  1
  Te  Te158  1  0.25302743  0.43765201  0.92316036  1
  Te  Te159  1  0.22438964  0.74957404  0.24221716  1
  Te  Te160  1  0.24659039  0.74882493  0.58587903  1
  Te  Te161  1  0.22860711  0.77194333  0.92742747  1
  Te  Te162  1  0.58116002  0.04531249  0.22925286  1
  Te  Te163  1  0.60114462  0.08970527  0.58207934  1
  Te  Te164  1  0.58963307  0.06586210  0.90482447  1
  Te  Te165  1  0.59381389  0.43689029  0.22620925  1
  Te  Te166  1  0.57891904  0.43093770  0.55416229  1
  Te  Te167  1  0.59552257  0.39554020  0.91334291  1
  Te  Te168  1  0.60526991  0.77223703  0.22848243  1
  Te  Te169  1  0.58143492  0.74320353  0.56757169  1
  Te  Te170  1  0.58628675  0.74685353  0.93447975  1
  Te  Te171  1  0.90170334  0.12409400  0.20844772  1
  Te  Te172  1  0.90565073  0.08678170  0.58728701  1
  Te  Te173  1  0.90410530  0.08190087  0.94786345  1
  Te  Te174  1  0.94865919  0.39428212  0.26833620  1
  Te  Te175  1  0.91154371  0.39616637  0.58492410  1
  Te  Te176  1  0.93535286  0.40625621  0.93435273  1
  Te  Te177  1  0.91763302  0.78638822  0.23733733  1
  Te  Te178  1  0.92056894  0.74475085  0.56733108  1
  Te  Te179  1  0.92482638  0.74216152  0.91200048  1
