# generated using pymatgen
data_In2Te3
_symmetry_space_group_name_H-M   'P 1'
_cell_length_a   19.02195058
_cell_length_b   18.98130942
_cell_length_c   19.02226683
_cell_angle_alpha   89.84265911
_cell_angle_beta   90.19755875
_cell_angle_gamma   89.97650015
_symmetry_Int_Tables_number   1
_chemical_formula_structural   In2Te3
_chemical_formula_sum   'In72 Te108'
_cell_volume   6868.14143140
_cell_formula_units_Z   36
loop_
 _symmetry_equiv_pos_site_id
 _symmetry_equiv_pos_as_xyz
  1  'x, y, z'
loop_
 _atom_site_type_symbol
 _atom_site_label
 _atom_site_symmetry_multiplicity
 _atom_site_fract_x
 _atom_site_fract_y
 _atom_site_fract_z
 _atom_site_occupancy
  In  In0  1  0.83087598  0.64331408  0.15136938  1
  In  In1  1  0.67459916  0.85691393  0.82619993  1
  In  In2  1  0.51413419  0.37375723  0.50137354  1
  In  In3  1  0.51996518  0.66239060  0.16599329  1
  In  In4  1  0.64690322  0.86347975  0.17519768  1
  In  In5  1  0.30200987  0.33420168  0.30361208  1
  In  In6  1  0.85410753  0.00429346  0.83476468  1
  In  In7  1  0.83608049  0.65470766  0.52731100  1
  In  In8  1  0.85453174  0.66994984  0.82460037  1
  In  In9  1  0.16219377  0.84376193  -0.01375317  1
  In  In10  1  0.34493303  -0.05404055  -0.03616188  1
  In  In11  1  0.01478972  0.15020161  0.17606434  1
  In  In12  1  0.65938980  0.13973577  0.16634753  1
  In  In13  1  0.83997786  0.82077768  -0.00298183  1
  In  In14  1  0.84304252  0.32754544  0.50242601  1
  In  In15  1  -0.02787634  0.14754389  0.48735456  1
  In  In16  1  0.17402725  0.50292100  0.32521196  1
  In  In17  1  0.51309076  0.84387868  0.68158796  1
  In  In18  1  0.68292057  0.46539688  0.14711563  1
  In  In19  1  0.08889321  0.75433645  0.51521343  1
  In  In20  1  0.50012770  0.32577015  0.82996813  1
  In  In21  1  0.30222638  0.31204108  0.02099349  1
  In  In22  1  0.00075890  0.52549797  0.49526598  1
  In  In23  1  0.86230042  0.30992790  0.13600423  1
  In  In24  1  0.15774604  0.50021039  -0.00488193  1
  In  In25  1  0.16563830  0.17175948  0.68244212  1
  In  In26  1  -0.01381872  0.49008930  0.83736424  1
  In  In27  1  0.15384272  0.30321375  0.12707938  1
  In  In28  1  0.82628491  0.15426687  0.32248690  1
  In  In29  1  0.68703684  0.31992818  -0.01187101  1
  In  In30  1  0.49967155  0.15391604  -0.01237934  1
  In  In31  1  0.48750885  0.00540795  0.18166492  1
  In  In32  1  0.33122906  -0.01519298  0.68678671  1
  In  In33  1  0.81618037  -0.01384269  0.49277599  1
  In  In34  1  0.31683853  0.17815799  0.15211200  1
  In  In35  1  0.32123003  0.70396093  0.65121606  1
  In  In36  1  0.31760733  0.81166930  0.17699541  1
  In  In37  1  0.66935403  0.67121152  0.34843559  1
  In  In38  1  0.01724151  0.14855836  0.83397166  1
  In  In39  1  0.33342613  0.53780793  0.83742956  1
  In  In40  1  0.02445943  0.33425204  0.69170179  1
  In  In41  1  0.82646757  0.00218731  0.16041010  1
  In  In42  1  0.52460457  0.50366918  0.67693763  1
  In  In43  1  0.65919435  0.15018464  0.84265617  1
  In  In44  1  0.17161526  -0.01068579  0.83026738  1
  In  In45  1  0.83075899  0.83369236  0.32578387  1
  In  In46  1  0.01815583  0.83670101  0.18431616  1
  In  In47  1  0.50365576  0.33106481  0.18505906  1
  In  In48  1  0.84333921  0.16755582  0.66146957  1
  In  In49  1  0.48986758  0.53373491  0.34721671  1
  In  In50  1  0.16380382  0.33025387  0.49337647  1
  In  In51  1  0.18067986  0.66053869  0.17486130  1
  In  In52  1  0.67416106  0.69720542  -0.02793448  1
  In  In53  1  0.37159648  0.14319622  0.52954357  1
  In  In54  1  0.14142463  0.68011302  0.79776688  1
  In  In55  1  0.31732021  0.31657390  0.68341721  1
  In  In56  1  0.50317859  0.11942318  0.67896465  1
  In  In57  1  0.33823843  0.49176124  0.52325584  1
  In  In58  1  0.30209088  -0.00788509  0.35208623  1
  In  In59  1  0.68752133  0.51179339  0.82464219  1
  In  In60  1  0.83201107  0.84614697  0.67310949  1
  In  In61  1  0.16046863  0.17292979  0.34363715  1
  In  In62  1  0.84018544  0.49572590  0.68292267  1
  In  In63  1  0.35122963  0.66650307  0.35478609  1
  In  In64  1  0.01410670  0.50399135  0.15859922  1
  In  In65  1  0.51568024  0.70621461  0.52049214  1
  In  In66  1  0.48383663  0.49079386  0.00946719  1
  In  In67  1  0.14113764  -0.02167470  0.52427699  1
  In  In68  1  0.84823012  0.49364996  0.34285335  1
  In  In69  1  0.33882640  0.70670975  -0.00221773  1
  In  In70  1  0.67630549  0.32634814  0.34483128  1
  In  In71  1  0.52110980  -0.02615486  0.49194488  1
  Te  Te72  1  0.12559409  0.08537041  0.10599853  1
  Te  Te73  1  0.07885651  0.06826208  0.41530349  1
  Te  Te74  1  0.07722658  0.06028577  0.72793246  1
  Te  Te75  1  0.05513796  0.39306620  0.04427765  1
  Te  Te76  1  0.07821450  0.42281044  0.41040784  1
  Te  Te77  1  0.10161000  0.42837417  0.77005493  1
  Te  Te78  1  0.09547879  0.75006983  0.08645854  1
  Te  Te79  1  0.04701515  0.82235623  0.38342472  1
  Te  Te80  1  0.09514650  0.80095730  0.72626706  1
  Te  Te81  1  0.39881940  0.07989368  0.07392801  1
  Te  Te82  1  0.42018221  0.06649698  0.41258905  1
  Te  Te83  1  0.38552190  0.10008193  0.76246222  1
  Te  Te84  1  0.40132652  0.40338350  0.10006962  1
  Te  Te85  1  0.39130752  0.42275949  0.39407096  1
  Te  Te86  1  0.40839501  0.42672800  0.75358660  1
  Te  Te87  1  0.43818324  0.76855744  0.09408374  1
  Te  Te88  1  0.43181645  0.77595351  0.41814004  1
  Te  Te89  1  0.41153485  0.76025515  0.75645549  1
  Te  Te90  1  0.73838902  0.07311445  0.06601207  1
  Te  Te91  1  0.74395372  0.10166563  0.43140713  1
  Te  Te92  1  0.75612325  0.07813645  0.74649371  1
  Te  Te93  1  0.78723866  0.41702266  0.05018781  1
  Te  Te94  1  0.74819385  0.42661610  0.43261291  1
  Te  Te95  1  0.76940123  0.40439365  0.77203524  1
  Te  Te96  1  0.73304991  0.75998455  0.10111928  1
  Te  Te97  1  0.75906172  0.75459018  0.43269863  1
  Te  Te98  1  0.74732596  0.74595246  0.75162846  1
  Te  Te99  1  0.07990132  0.26421776  0.25453724  1
  Te  Te100  1  0.07179172  0.23706192  0.57174620  1
  Te  Te101  1  0.10440897  0.25293711  0.89249535  1
  Te  Te102  1  0.07365523  0.59764975  0.26231307  1
  Te  Te103  1  0.09106752  0.61526881  0.56549486  1
  Te  Te104  1  0.07968772  0.59472946  0.90868941  1
  Te  Te105  1  0.11918664  0.89306791  0.27287810  1
  Te  Te106  1  0.04928566  0.88086027  0.59377679  1
  Te  Te107  1  0.07655018  0.95319909  0.93680571  1
  Te  Te108  1  0.40989040  0.23642300  0.25620891  1
  Te  Te109  1  0.42120902  0.27357193  0.58415553  1
  Te  Te110  1  0.40549202  0.25406142  0.92243109  1
  Te  Te111  1  0.40563776  0.58986874  0.23366071  1
  Te  Te112  1  0.42445831  0.59801159  0.58716921  1
  Te  Te113  1  0.43424777  0.60726370  0.92653738  1
  Te  Te114  1  0.39360063  0.91397678  0.25894990  1
  Te  Te115  1  0.41633917  0.91414192  0.58780308  1
  Te  Te116  1  0.42321564  0.86022182  0.87636759  1
  Te  Te117  1  0.74719053  0.25956383  0.22945897  1
  Te  Te118  1  0.75284997  0.22950785  0.56242446  1
  Te  Te119  1  0.76367477  0.21880983  0.91913872  1
  Te  Te120  1  0.74041257  0.57354635  0.25334685  1
  Te  Te121  1  0.74426299  0.56739114  0.59887248  1
  Te  Te122  1  0.77030004  0.59259067  0.92419237  1
  Te  Te123  1  0.73804493  0.93933386  0.26781800  1
  Te  Te124  1  0.72873461  0.90922510  0.58489032  1
  Te  Te125  1  0.75882926  0.92857595  0.92952876  1
  Te  Te126  1  0.18051610  0.19758811  0.01552873  1
  Te  Te127  1  0.26824979  0.24295536  0.42725540  1
  Te  Te128  1  0.22468442  0.26049167  0.78637740  1
  Te  Te129  1  0.25799705  0.59525751  0.06328461  1
  Te  Te130  1  0.25316164  0.57709011  0.43008762  1
  Te  Te131  1  0.24593569  0.59513080  0.72740919  1
  Te  Te132  1  0.25646137  0.91394872  0.08275321  1
  Te  Te133  1  0.24726054  0.90000337  0.45524356  1
  Te  Te134  1  0.22647863  0.88901708  0.73217960  1
  Te  Te135  1  0.57825963  0.25398887  0.07880799  1
  Te  Te136  1  0.56174025  0.26882801  0.41255295  1
  Te  Te137  1  0.58249674  0.23754033  0.74335232  1
  Te  Te138  1  0.60294344  0.57553852  0.07369313  1
  Te  Te139  1  0.58710588  0.59036696  0.44633811  1
  Te  Te140  1  0.58502067  0.59864466  0.76852315  1
  Te  Te141  1  0.56425615  0.93448484  0.07900880  1
  Te  Te142  1  0.55935166  0.86720558  0.39979169  1
  Te  Te143  1  0.58036747  0.95170775  0.75846472  1
  Te  Te144  1  0.93329981  0.20478507  0.06511549  1
  Te  Te145  1  0.91745778  0.25389503  0.39336110  1
  Te  Te146  1  0.92398984  0.24806864  0.76129754  1
  Te  Te147  1  0.93855455  0.59202090  0.06946216  1
  Te  Te148  1  0.91671497  0.61243837  0.40334932  1
  Te  Te149  1  0.94343222  0.59452798  0.73008580  1
  Te  Te150  1  0.92229282  0.91011873  0.08834986  1
  Te  Te151  1  0.92130905  0.91518421  0.41270661  1
  Te  Te152  1  0.92757916  0.88672747  0.78116546  1
  Te  Te153  1  0.23839336  0.08675777  0.24626113  1
  Te  Te154  1  0.24409662  0.08333552  0.58099877  1
  Te  Te155  1  0.28431674  0.06231271  0.89451650  1
  Te  Te156  1  0.22005162  0.41821769  0.20942087  1
  Te  Te157  1  0.23322409  0.41277315  0.59893869  1
  Te  Te158  1  0.27005284  0.42916230  0.92343883  1
  Te  Te159  1  0.23604016  0.74696701  0.28719696  1
  Te  Te160  1  0.24130005  0.75643123  0.53846135  1
  Te  Te161  1  0.23799405  0.75167716  0.89534883  1
  Te  Te162  1  0.57470922  0.08528836  0.26911088  1
  Te  Te163  1  0.58479552  0.08436517  0.56519760  1
  Te  Te164  1  0.55578576  0.05621989  0.89324281  1
  Te  Te165  1  0.58015334  0.43749749  0.26158114  1
  Te  Te166  1  0.60764010  0.40734045  0.60715645  1
  Te  Te167  1  0.58375718  0.41628210  0.92133150  1
  Te  Te168  1  0.57238000  0.75890585  0.27040205  1
  Te  Te169  1  0.61723571  0.78527407  0.59273132  1
  Te  Te170  1  0.57503109  0.78940922  0.91708861  1
  Te  Te171  1  0.92588520  0.06048214  0.26008361  1
  Te  Te172  1  0.91527059  0.05522434  0.59081640  1
  Te  Te173  1  0.93989939  0.07335082  0.93509992  1
  Te  Te174  1  0.91660370  0.41609602  0.23532116  1
  Te  Te175  1  0.93938933  0.41363954  0.58426040  1
  Te  Te176  1  0.94162084  0.40131965  0.94397154  1
  Te  Te177  1  0.90981946  0.74097429  0.23699632  1
  Te  Te178  1  0.91951444  0.76271864  0.58518282  1
  Te  Te179  1  0.93714367  0.76893326  0.89902648  1
