# generated using pymatgen
data_In2Te3
_symmetry_space_group_name_H-M   'P 1'
_cell_length_a   18.81021397
_cell_length_b   18.81710305
_cell_length_c   18.81194315
_cell_angle_alpha   90.11974897
_cell_angle_beta   90.01192729
_cell_angle_gamma   90.04718438
_symmetry_Int_Tables_number   1
_chemical_formula_structural   In2Te3
_chemical_formula_sum   'In72 Te108'
_cell_volume   6658.54058784
_cell_formula_units_Z   36
loop_
 _symmetry_equiv_pos_site_id
 _symmetry_equiv_pos_as_xyz
  1  'x, y, z'
loop_
 _atom_site_type_symbol
 _atom_site_label
 _atom_site_symmetry_multiplicity
 _atom_site_fract_x
 _atom_site_fract_y
 _atom_site_fract_z
 _atom_site_occupancy
  In  In0  1  0.01188380  0.63176649  0.66395720  1
  In  In1  1  0.18809150  0.02623035  0.15588264  1
  In  In2  1  0.00059669  0.02580093  0.34097861  1
  In  In3  1  0.82156422  0.67670144  0.49815404  1
  In  In4  1  0.84175347  0.00164330  0.14891450  1
  In  In5  1  0.00972993  0.16641236  0.18557229  1
  In  In6  1  0.62840217  0.30889210  0.01822146  1
  In  In7  1  0.03564860  0.31881249  -0.01967005  1
  In  In8  1  0.60472724  0.48687320  0.15551719  1
  In  In9  1  0.48211439  0.17201515  0.68264179  1
  In  In10  1  0.18096364  0.64951712  0.81055612  1
  In  In11  1  0.63681540  0.04042475  -0.03197869  1
  In  In12  1  0.82155470  -0.00081204  0.82320925  1
  In  In13  1  0.18468116  0.32979708  0.15565979  1
  In  In14  1  0.33459290  0.16131782  0.16184950  1
  In  In15  1  0.48667483  0.01058744  0.17445605  1
  In  In16  1  0.64475364  0.48487024  0.82843991  1
  In  In17  1  0.31876481  0.18323023  0.47298025  1
  In  In18  1  -0.02170854  0.46459370  0.19020517  1
  In  In19  1  0.49833777  0.65593723  0.15636310  1
  In  In20  1  0.50102102  0.81919596  0.66516840  1
  In  In21  1  0.81916423  0.33523367  0.84322553  1
  In  In22  1  0.66230917  0.00904956  0.35367030  1
  In  In23  1  0.01964836  0.49605896  0.80445854  1
  In  In24  1  0.00735942  0.82268301  0.85487593  1
  In  In25  1  0.02057447  0.00514530  0.02163602  1
  In  In26  1  0.32757879  0.83604135  0.83257338  1
  In  In27  1  0.34173144  0.63557476  -0.03791683  1
  In  In28  1  0.66856773  0.83781195  0.17371155  1
  In  In29  1  0.83390343  0.84281639  0.65734167  1
  In  In30  1  0.33686170  0.62951099  0.65341618  1
  In  In31  1  0.68785139  0.65249082  0.34835477  1
  In  In32  1  0.15867335  0.85124356  0.01366407  1
  In  In33  1  0.83858662  0.17133078  0.01330403  1
  In  In34  1  0.02145839  0.49526955  0.49601118  1
  In  In35  1  0.66269087  0.48908229  0.49570194  1
  In  In36  1  0.18920126  0.63654096  0.14919065  1
  In  In37  1  0.65997837  0.66284342  0.01080114  1
  In  In38  1  0.66637718  0.16876034  0.51416803  1
  In  In39  1  0.31726631  0.65431584  0.34676309  1
  In  In40  1  0.67308330  0.34905177  0.33009131  1
  In  In41  1  0.66480835  0.83981383  0.82478604  1
  In  In42  1  0.32065913  0.03141587  -0.01577307  1
  In  In43  1  0.01501512  0.84318490  0.48433225  1
  In  In44  1  0.50433575  0.47690316  0.33650500  1
  In  In45  1  0.82857050  0.49395503  0.32473755  1
  In  In46  1  0.47783464  0.35060178  0.51629942  1
  In  In47  1  0.34749557  0.00813697  0.32858629  1
  In  In48  1  0.14225938  0.82216277  0.33152915  1
  In  In49  1  -0.01830225  0.83578591  0.17746087  1
  In  In50  1  0.17381789  0.47032158  0.34019923  1
  In  In51  1  0.01611785  0.34454608  0.65981716  1
  In  In52  1  0.50044080  0.84503904  0.35108361  1
  In  In53  1  0.67173291  0.32344683  0.66080133  1
  In  In54  1  0.84013727  0.14470580  0.66685522  1
  In  In55  1  0.49361611  0.82092720  0.00640489  1
  In  In56  1  0.43552740  0.33384245  0.81264067  1
  In  In57  1  0.15929220  0.01714188  0.48737591  1
  In  In58  1  0.02609250  0.16989865  0.83689700  1
  In  In59  1  0.34617260  0.00568814  0.69443049  1
  In  In60  1  0.19630646  0.20078307  0.67533300  1
  In  In61  1  0.82620201  0.50329637  0.00119848  1
  In  In62  1  0.01939583  0.68430727  0.32878518  1
  In  In63  1  0.63999859  0.64804495  0.66377947  1
  In  In64  1  0.19533720  0.46243162  -0.03610686  1
  In  In65  1  0.66525477  -0.01277747  0.67236252  1
  In  In66  1  0.48012532  0.18525500  0.32950345  1
  In  In67  1  0.84139835  0.66988254  0.17973265  1
  In  In68  1  0.00703291  0.01929551  0.63773817  1
  In  In69  1  -0.00516905  0.68402942  -0.02462943  1
  In  In70  1  0.32246466  0.82216927  0.51793821  1
  In  In71  1  0.83346875  0.35067680  0.19074143  1
  Te  Te72  1  0.10521786  0.12219018  0.07098217  1
  Te  Te73  1  0.07282223  0.12609628  0.42862020  1
  Te  Te74  1  0.10282055  0.08941077  0.73402410  1
  Te  Te75  1  0.08913016  0.42656543  0.07925704  1
  Te  Te76  1  0.12310835  0.38725565  0.45876816  1
  Te  Te77  1  0.11666968  0.39223680  0.76045769  1
  Te  Te78  1  0.08139129  0.74445766  0.10003588  1
  Te  Te79  1  0.10827258  0.72664067  0.44684375  1
  Te  Te80  1  0.08295292  0.74629592  0.74710563  1
  Te  Te81  1  0.44219063  0.10480635  0.06066556  1
  Te  Te82  1  0.43264884  0.08125470  0.42958356  1
  Te  Te83  1  0.40711292  0.10333997  0.79473629  1
  Te  Te84  1  0.47928171  0.42501045  0.10480315  1
  Te  Te85  1  0.39249359  0.41873026  0.41560830  1
  Te  Te86  1  0.41322854  0.43848706  0.69787653  1
  Te  Te87  1  0.39310743  0.73255250  0.07698757  1
  Te  Te88  1  0.41526635  0.74241709  0.42737053  1
  Te  Te89  1  0.40491424  0.73693942  0.74886029  1
  Te  Te90  1  0.73346802  0.08677018  0.08265173  1
  Te  Te91  1  0.75660305  0.10532729  0.41598350  1
  Te  Te92  1  0.72775483  0.09903813  0.75885428  1
  Te  Te93  1  0.73308577  0.41426060  0.08240962  1
  Te  Te94  1  0.77122717  0.40219640  0.43400940  1
  Te  Te95  1  0.75624094  0.42559589  0.74025859  1
  Te  Te96  1  0.76015662  0.75551452  0.08239073  1
  Te  Te97  1  0.73622316  0.76978164  0.42253093  1
  Te  Te98  1  0.74233564  0.74726335  0.73251221  1
  Te  Te99  1  0.09613444  0.26393144  0.25967626  1
  Te  Te100  1  0.07871470  0.23039598  0.58956034  1
  Te  Te101  1  0.14268019  0.24468278  0.90303603  1
  Te  Te102  1  0.08541004  0.57278022  0.24595424  1
  Te  Te103  1  0.11569575  0.55280857  0.59601685  1
  Te  Te104  1  0.09353591  0.57691925  0.92543712  1
  Te  Te105  1  0.08355726  0.93594106  0.23528772  1
  Te  Te106  1  0.10402982  0.91319126  0.58580765  1
  Te  Te107  1  0.09657910  0.93853050  0.90647725  1
  Te  Te108  1  0.37127241  0.26284647  0.26536557  1
  Te  Te109  1  0.38914948  0.25193451  0.59128826  1
  Te  Te110  1  0.39239757  0.26867786  0.94442168  1
  Te  Te111  1  0.41438402  0.57679298  0.25606304  1
  Te  Te112  1  0.40825256  0.54369400  0.55213622  1
  Te  Te113  1  0.44157959  0.56477620  0.88165852  1
  Te  Te114  1  0.40854777  0.89704551  0.24164393  1
  Te  Te115  1  0.41575918  0.92069234  0.58684081  1
  Te  Te116  1  0.41359089  0.92165697  0.92463141  1
  Te  Te117  1  0.74490755  0.24903720  0.24887453  1
  Te  Te118  1  0.77880569  0.25464027  0.57853225  1
  Te  Te119  1  0.73495483  0.23982240  0.92461394  1
  Te  Te120  1  0.73096308  0.56816832  0.22493902  1
  Te  Te121  1  0.75305729  0.57397963  0.58605972  1
  Te  Te122  1  0.73952292  0.58191715  0.90617103  1
  Te  Te123  1  0.75649381  0.92944467  0.25406574  1
  Te  Te124  1  0.76121877  0.93745533  0.57197833  1
  Te  Te125  1  0.73544596  0.92896233  0.92704327  1
  Te  Te126  1  0.28730671  0.26780652  0.06286116  1
  Te  Te127  1  0.23124481  0.28379886  0.41371979  1
  Te  Te128  1  0.26352614  0.29358308  0.77016706  1
  Te  Te129  1  0.27828716  0.54308619  0.06764549  1
  Te  Te130  1  0.22231315  0.57885050  0.43161331  1
  Te  Te131  1  0.27018124  0.54270022  0.75807301  1
  Te  Te132  1  0.27219950  0.92164076  0.08667520  1
  Te  Te133  1  0.24663558  0.91346828  0.40487713  1
  Te  Te134  1  0.24006704  0.92190931  0.75238065  1
  Te  Te135  1  0.54671490  0.21596601  0.09566377  1
  Te  Te136  1  0.57934463  0.26480635  0.43047899  1
  Te  Te137  1  0.57436108  0.26464706  0.75983576  1
  Te  Te138  1  0.53993729  0.56670090  0.03324276  1
  Te  Te139  1  0.57311075  0.58626678  0.42229741  1
  Te  Te140  1  0.54687748  0.58007637  0.76314277  1
  Te  Te141  1  0.58144841  0.92384354  0.08159174  1
  Te  Te142  1  0.58052258  0.92476344  0.44364673  1
  Te  Te143  1  0.55726750  0.92561626  0.76134376  1
  Te  Te144  1  0.92742840  0.26942172  0.08999540  1
  Te  Te145  1  0.97034711  0.23926265  0.36715711  1
  Te  Te146  1  0.91578441  0.24668656  0.76183537  1
  Te  Te147  1  0.92599604  0.58136188  0.08839169  1
  Te  Te148  1  0.91705945  0.59089591  0.40377299  1
  Te  Te149  1  0.91488800  0.59106478  0.76700713  1
  Te  Te150  1  0.91402075  0.90178547  0.05816245  1
  Te  Te151  1  0.91862076  0.92562386  0.41148426  1
  Te  Te152  1  0.93147903  0.92651903  0.74575882  1
  Te  Te153  1  0.24100192  0.10248894  0.27464421  1
  Te  Te154  1  0.26249448  0.08274606  0.57998273  1
  Te  Te155  1  0.21107351  0.10322267  0.91898890  1
  Te  Te156  1  0.27012513  0.41880715  0.23964591  1
  Te  Te157  1  0.30005072  0.45173484  0.60346607  1
  Te  Te158  1  0.31914183  0.39882845  0.90025052  1
  Te  Te159  1  0.24262225  0.74466434  0.24501186  1
  Te  Te160  1  0.24698185  0.74124075  0.61442510  1
  Te  Te161  1  0.23045990  0.74596187  0.92746087  1
  Te  Te162  1  0.58106623  0.09765084  0.25519531  1
  Te  Te163  1  0.57097415  0.08337105  0.59639416  1
  Te  Te164  1  0.54412364  0.10069976  0.87272529  1
  Te  Te165  1  0.55022689  0.36399919  0.23471998  1
  Te  Te166  1  0.57608170  0.42908482  0.60560296  1
  Te  Te167  1  0.56040022  0.38649739  0.90536899  1
  Te  Te168  1  0.58371079  0.74010728  0.25438296  1
  Te  Te169  1  0.59186205  0.75153964  0.57066489  1
  Te  Te170  1  0.57845096  0.74389618  0.90666710  1
  Te  Te171  1  0.89326505  0.09874154  0.25470032  1
  Te  Te172  1  0.90448305  0.07879416  0.55039650  1
  Te  Te173  1  0.92078682  0.08190258  0.91878944  1
  Te  Te174  1  0.93972417  0.37806057  0.31545528  1
  Te  Te175  1  0.92287927  0.42627384  0.58051213  1
  Te  Te176  1  0.92541124  0.41744986  0.91993102  1
  Te  Te177  1  0.89691329  0.76686773  0.28273635  1
  Te  Te178  1  0.93122006  0.74647996  0.58161945  1
  Te  Te179  1  0.88653134  0.75266774  0.90287223  1
