# generated using pymatgen
data_In2Te3
_symmetry_space_group_name_H-M   'P 1'
_cell_length_a   18.77994827
_cell_length_b   18.78589337
_cell_length_c   18.77498437
_cell_angle_alpha   90.04734633
_cell_angle_beta   90.00303116
_cell_angle_gamma   89.96492321
_symmetry_Int_Tables_number   1
_chemical_formula_structural   In2Te3
_chemical_formula_sum   'In72 Te108'
_cell_volume   6623.77541056
_cell_formula_units_Z   36
loop_
 _symmetry_equiv_pos_site_id
 _symmetry_equiv_pos_as_xyz
  1  'x, y, z'
loop_
 _atom_site_type_symbol
 _atom_site_label
 _atom_site_symmetry_multiplicity
 _atom_site_fract_x
 _atom_site_fract_y
 _atom_site_fract_z
 _atom_site_occupancy
  In  In0  1  0.46940985  0.65220580  0.51344303  1
  In  In1  1  0.50586103  0.15266570  0.66840147  1
  In  In2  1  -0.01449927  0.66933169  0.29455207  1
  In  In3  1  0.50587573  0.33107699  0.82572171  1
  In  In4  1  0.31190135  0.17972728  0.16519617  1
  In  In5  1  0.84525750  0.84855716  0.31757838  1
  In  In6  1  0.16757832  0.32716681  0.84902929  1
  In  In7  1  0.84487794  0.66035540  0.49805417  1
  In  In8  1  0.50718693  0.15589183  -0.00824795  1
  In  In9  1  0.65230876  0.16812598  0.83638428  1
  In  In10  1  0.35861239  0.83353018  0.83678486  1
  In  In11  1  -0.02563585  0.63014522  0.01943601  1
  In  In12  1  0.83283661  0.19096560  0.65738958  1
  In  In13  1  0.17470888  0.84347583  0.32148496  1
  In  In14  1  0.35253422  0.67279209  0.01222266  1
  In  In15  1  0.17822852  0.71125793  0.51683977  1
  In  In16  1  0.32650072  0.49484145  0.18683941  1
  In  In17  1  0.16792086  0.65110737  0.19207763  1
  In  In18  1  0.33124186  -0.00247652  -0.02110375  1
  In  In19  1  0.16156762  0.84344378  0.00853589  1
  In  In20  1  0.67756982  0.46005508  0.51576823  1
  In  In21  1  0.66161711  0.66059686  0.68765326  1
  In  In22  1  0.51609992  0.49539622  0.33234991  1
  In  In23  1  0.68167448  0.34039581  0.33079065  1
  In  In24  1  0.70274874  0.48328864  0.81933255  1
  In  In25  1  0.50326470  0.82750755  0.68343285  1
  In  In26  1  0.68167300  0.31194386  0.00835233  1
  In  In27  1  0.51274623  -0.02790245  0.15329176  1
  In  In28  1  -0.01160031  0.82314968  0.85095985  1
  In  In29  1  0.15245782  0.64709427  0.84230176  1
  In  In30  1  0.83905524  0.16573003  -0.00803527  1
  In  In31  1  0.51532162  0.32535392  0.51286475  1
  In  In32  1  -0.00181611  0.66361313  0.67935205  1
  In  In33  1  -0.01612270  0.48116133  0.51550881  1
  In  In34  1  0.67281065  0.81819446  0.86267720  1
  In  In35  1  0.35032507  0.51206294  0.52252691  1
  In  In36  1  0.32462665  0.68332537  0.33992607  1
  In  In37  1  -0.00615537  0.84137707  0.15926729  1
  In  In38  1  0.30150616  0.84216399  0.51010118  1
  In  In39  1  0.30998434  0.32888699  0.33390392  1
  In  In40  1  -0.02205710  0.50080186  0.84456325  1
  In  In41  1  0.51872364  0.84790526  0.32443980  1
  In  In42  1  0.51295645  0.00145404  0.49946685  1
  In  In43  1  0.16014304  0.51459856  0.31404456  1
  In  In44  1  0.16234354  0.00690117  0.83288887  1
  In  In45  1  0.49379050  0.50867721  0.00476450  1
  In  In46  1  0.67979809  0.17204680  0.17137016  1
  In  In47  1  0.31683765  0.03223768  0.64576988  1
  In  In48  1  0.83460942  0.01665100  0.16179346  1
  In  In49  1  0.67737442  0.84676851  0.50286468  1
  In  In50  1  0.15660305  0.01242596  0.17253431  1
  In  In51  1  0.81573342  0.15972508  0.35584417  1
  In  In52  1  0.00209235  0.35597209  0.01213600  1
  In  In53  1  0.65970567  0.65513482  0.31603258  1
  In  In54  1  0.00516214  0.15739288  0.47058016  1
  In  In55  1  0.51736179  0.69086329  0.15320965  1
  In  In56  1  0.31945804  0.15509684  0.82520494  1
  In  In57  1  -0.02405744  0.33302732  0.30958683  1
  In  In58  1  0.30741083  0.34042345  0.01155084  1
  In  In59  1  0.67246324  -0.02259429  0.65311285  1
  In  In60  1  0.17376609  0.50035054  0.66696116  1
  In  In61  1  0.68237118  0.48813724  0.16756810  1
  In  In62  1  -0.02203641  0.32333960  0.66309695  1
  In  In63  1  -0.00798030  0.02156304  0.67386017  1
  In  In64  1  0.83980678  0.00380322  0.84174875  1
  In  In65  1  0.49731782  0.16536552  0.33539658  1
  In  In66  1  0.15814198  0.30726341  0.48114656  1
  In  In67  1  0.00790495  0.16824469  0.17378281  1
  In  In68  1  0.35178841  0.32255264  0.66948496  1
  In  In69  1  0.82007519  0.67513453  0.84318973  1
  In  In70  1  0.18476629  0.83238444  0.63949622  1
  In  In71  1  -0.00152228  0.85056057  0.48289428  1
  Te  Te72  1  0.06525004  0.07429704  0.07435081  1
  Te  Te73  1  0.11413120  0.06242666  0.43728573  1
  Te  Te74  1  0.08983903  0.10340028  0.74842552  1
  Te  Te75  1  0.10266011  0.41737943  0.10515924  1
  Te  Te76  1  0.07787264  0.41800344  0.41046586  1
  Te  Te77  1  0.07166034  0.42081763  0.74692087  1
  Te  Te78  1  0.08332080  0.73488972  0.08430753  1
  Te  Te79  1  0.08031342  0.74031945  0.39458560  1
  Te  Te80  1  0.09237436  0.76459813  0.75007236  1
  Te  Te81  1  0.41294422  0.08185353  0.08780290  1
  Te  Te82  1  0.41482613  0.07171094  0.41528348  1
  Te  Te83  1  0.42250420  0.06488427  0.75914734  1
  Te  Te84  1  0.41572002  0.41154549  0.09435860  1
  Te  Te85  1  0.41795611  0.41271990  0.41618846  1
  Te  Te86  1  0.40107496  0.41940174  0.76899147  1
  Te  Te87  1  0.42201044  0.78191430  0.08456496  1
  Te  Te88  1  0.42238151  0.77011378  0.42022707  1
  Te  Te89  1  0.44716203  0.72912696  0.77888426  1
  Te  Te90  1  0.73327189  0.08075632  0.06209219  1
  Te  Te91  1  0.71315057  0.08368313  0.42760671  1
  Te  Te92  1  0.74819151  0.08347113  0.74446034  1
  Te  Te93  1  0.77188395  0.41432071  0.07094144  1
  Te  Te94  1  0.76930971  0.43394965  0.40397645  1
  Te  Te95  1  0.75972522  0.39221418  0.71710227  1
  Te  Te96  1  0.70304570  0.77982205  0.02070253  1
  Te  Te97  1  0.75602578  0.74755963  0.40762463  1
  Te  Te98  1  0.75663890  0.76776193  0.73939924  1
  Te  Te99  1  0.08680577  0.24107734  0.27659611  1
  Te  Te100  1  0.07563079  0.23510373  0.58622254  1
  Te  Te101  1  0.06607727  0.25290126  0.92414195  1
  Te  Te102  1  0.05671835  0.53677520  0.19571088  1
  Te  Te103  1  0.08181991  0.59121416  0.57191595  1
  Te  Te104  1  0.08388639  0.55587571  0.94224218  1
  Te  Te105  1  0.06255213  0.92756947  0.26343342  1
  Te  Te106  1  0.08134404  0.93006632  0.58321602  1
  Te  Te107  1  0.06718659  0.92997080  0.92638870  1
  Te  Te108  1  0.41539631  0.26086778  0.24673071  1
  Te  Te109  1  0.41430579  0.22547991  0.56889668  1
  Te  Te110  1  0.40817000  0.24636220  0.91319517  1
  Te  Te111  1  0.42786737  0.59716279  0.25538026  1
  Te  Te112  1  0.44349408  0.56057342  0.62878669  1
  Te  Te113  1  0.41755458  0.59070105  0.90768012  1
  Te  Te114  1  0.41552445  0.92687222  0.25538785  1
  Te  Te115  1  0.41802879  0.91960976  0.59211709  1
  Te  Te116  1  0.44225175  0.91323174  0.93016909  1
  Te  Te117  1  0.77797390  0.26142468  0.24240607  1
  Te  Te118  1  0.74290512  0.29361721  0.59503763  1
  Te  Te119  1  0.76254425  0.25674483  0.89215416  1
  Te  Te120  1  0.76654106  0.57381013  0.25578709  1
  Te  Te121  1  0.74438196  0.58382642  0.58375792  1
  Te  Te122  1  0.75628219  0.57128264  0.92605919  1
  Te  Te123  1  0.74666061  0.92215527  0.23575487  1
  Te  Te124  1  0.78372087  0.92193423  0.57222048  1
  Te  Te125  1  0.76888808  0.91187293  0.93671269  1
  Te  Te126  1  0.21438908  0.24430939  0.07331663  1
  Te  Te127  1  0.26168743  0.21871410  0.42120186  1
  Te  Te128  1  0.23741073  0.24485277  0.73475656  1
  Te  Te129  1  0.25334863  0.58021174  0.08416595  1
  Te  Te130  1  0.24839767  0.58266678  0.42497178  1
  Te  Te131  1  0.25349404  0.59177380  0.75035733  1
  Te  Te132  1  0.25662962  0.92512377  0.09183386  1
  Te  Te133  1  0.24641749  0.93856264  0.41176003  1
  Te  Te134  1  0.25898441  0.92248089  0.74703147  1
  Te  Te135  1  0.57193941  0.24984051  0.09278892  1
  Te  Te136  1  0.60312143  0.24384372  0.41881379  1
  Te  Te137  1  0.59717779  0.26083912  0.72609954  1
  Te  Te138  1  0.60192283  0.58672970  0.08034931  1
  Te  Te139  1  0.58746429  0.58604583  0.43231220  1
  Te  Te140  1  0.59468012  0.58096197  0.79154763  1
  Te  Te141  1  0.58784152  0.88254875  0.05824496  1
  Te  Te142  1  0.61828460  0.94478023  0.40007585  1
  Te  Te143  1  0.59214148  0.91755925  0.76689378  1
  Te  Te144  1  0.91217575  0.25442774  0.09179085  1
  Te  Te145  1  0.90459741  0.26478328  0.42643773  1
  Te  Te146  1  0.92127446  0.23627700  0.76864684  1
  Te  Te147  1  0.88770442  0.53743089  0.09760057  1
  Te  Te148  1  0.92974949  0.57609877  0.40266570  1
  Te  Te149  1  0.89363280  0.57737595  0.74256207  1
  Te  Te150  1  0.91310548  0.92755598  0.07103949  1
  Te  Te151  1  0.90552196  0.94284960  0.41496215  1
  Te  Te152  1  0.91637010  0.90789512  0.74764363  1
  Te  Te153  1  0.24298142  0.09277015  0.26270795  1
  Te  Te154  1  0.21924101  0.08645768  0.55106359  1
  Te  Te155  1  0.22894613  0.10174107  0.93562460  1
  Te  Te156  1  0.21808060  0.39290451  0.22844117  1
  Te  Te157  1  0.24785919  0.40292320  0.57238520  1
  Te  Te158  1  0.25714766  0.42982766  0.90545327  1
  Te  Te159  1  0.26619103  0.76515549  0.22700455  1
  Te  Te160  1  0.29477328  0.72478454  0.61450326  1
  Te  Te161  1  0.24317188  0.75550338  0.91368159  1
  Te  Te162  1  0.58337934  0.07919315  0.24197634  1
  Te  Te163  1  0.61309853  0.09591533  0.57196200  1
  Te  Te164  1  0.59035166  0.06115752  0.91613769  1
  Te  Te165  1  0.57743341  0.39886763  0.23422159  1
  Te  Te166  1  0.55736566  0.43882676  0.60069345  1
  Te  Te167  1  0.58954595  0.40812556  0.92784058  1
  Te  Te168  1  0.61856149  0.77547541  0.23227381  1
  Te  Te169  1  0.58313361  0.74973265  0.57541802  1
  Te  Te170  1  0.57120135  0.75113244  0.95500669  1
  Te  Te171  1  0.91786325  0.08584683  0.26958302  1
  Te  Te172  1  0.90535756  0.08961551  0.56740482  1
  Te  Te173  1  0.93767369  0.09541523  0.90556174  1
  Te  Te174  1  0.93102527  0.43843986  0.21238644  1
  Te  Te175  1  0.87672099  0.41642685  0.59789481  1
  Te  Te176  1  0.89190068  0.41362211  0.92596746  1
  Te  Te177  1  0.88602108  0.74150378  0.20722725  1
  Te  Te178  1  0.92504043  0.75864491  0.58343121  1
  Te  Te179  1  0.90379878  0.74730222  0.95191779  1
