# generated using pymatgen
data_In2Te3
_symmetry_space_group_name_H-M   'P 1'
_cell_length_a   18.85908948
_cell_length_b   18.87149820
_cell_length_c   18.88629512
_cell_angle_alpha   90.00906453
_cell_angle_beta   90.10052257
_cell_angle_gamma   89.98107733
_symmetry_Int_Tables_number   1
_chemical_formula_structural   In2Te3
_chemical_formula_sum   'In72 Te108'
_cell_volume   6721.60791004
_cell_formula_units_Z   36
loop_
 _symmetry_equiv_pos_site_id
 _symmetry_equiv_pos_as_xyz
  1  'x, y, z'
loop_
 _atom_site_type_symbol
 _atom_site_label
 _atom_site_symmetry_multiplicity
 _atom_site_fract_x
 _atom_site_fract_y
 _atom_site_fract_z
 _atom_site_occupancy
  In  In0  1  -0.01483920  0.30951994  0.32569724  1
  In  In1  1  0.52109746  0.66325257  0.16179468  1
  In  In2  1  0.83532590  0.66015162  0.20730458  1
  In  In3  1  0.87586945  0.84864036  0.35147860  1
  In  In4  1  0.51782191  0.29514691  0.17477668  1
  In  In5  1  0.49120299  0.19006576  0.05867832  1
  In  In6  1  0.63790290  0.65267325  0.00187166  1
  In  In7  1  0.47608278  0.63239406  0.81012685  1
  In  In8  1  0.29257998  0.51359206  0.80810173  1
  In  In9  1  0.31595248  0.69154623  0.31178071  1
  In  In10  1  0.16805058  0.17516971  0.66111762  1
  In  In11  1  -0.02486400  0.33862238  0.01515806  1
  In  In12  1  0.68857810  0.81991347  0.81045655  1
  In  In13  1  0.11779288  -0.02980379  0.50676308  1
  In  In14  1  0.03562581  0.48177951  0.80769874  1
  In  In15  1  -0.01509991  0.48814565  0.18033175  1
  In  In16  1  0.83025216  0.69934163  0.81913330  1
  In  In17  1  0.47132042  0.31582268  0.50154474  1
  In  In18  1  0.64620843  0.52571174  0.82490592  1
  In  In19  1  0.83898453  0.67700577  0.48088097  1
  In  In20  1  0.15434574  0.34497852  0.15887601  1
  In  In21  1  0.84731826  0.85325625  0.00800674  1
  In  In22  1  0.16260879  0.84550493  -0.00298838  1
  In  In23  1  0.85598293  -0.02623302  0.80400873  1
  In  In24  1  0.66349845  0.00885671  0.01643837  1
  In  In25  1  0.49506062  -0.03471370  0.83792580  1
  In  In26  1  0.50770253  0.16152404  0.33885881  1
  In  In27  1  0.31689292  0.17130354  0.81519790  1
  In  In28  1  0.48676676  0.84227934  -0.00166716  1
  In  In29  1  0.31517179  0.14188737  0.17754366  1
  In  In30  1  0.13417927  0.15599904  0.01623669  1
  In  In31  1  0.85993371  0.15150227  0.00189989  1
  In  In32  1  0.66099792  0.15911339  0.84860093  1
  In  In33  1  0.33749183  -0.01161464  0.66150147  1
  In  In34  1  0.51883371  0.16076445  0.64323601  1
  In  In35  1  0.70218097  0.13661901  0.48983716  1
  In  In36  1  0.84136229  0.49571675  0.66836748  1
  In  In37  1  0.51401921  0.85982312  0.36553463  1
  In  In38  1  0.86525505  0.32453309  0.82529563  1
  In  In39  1  0.02276732  0.68146971  0.65896565  1
  In  In40  1  0.81539972  0.46090168  0.03764869  1
  In  In41  1  0.32188467  0.35026740  -0.01446243  1
  In  In42  1  0.51425190  0.68673916  0.50266955  1
  In  In43  1  0.69047088  0.31083400  0.33023071  1
  In  In44  1  0.48185971  0.36699742  0.84670008  1
  In  In45  1  0.51907905  0.51856680  0.02452727  1
  In  In46  1  0.51486995  0.85391647  0.64233132  1
  In  In47  1  0.72459222  0.01022391  0.64372875  1
  In  In48  1  0.31322242  0.71152616  0.62826650  1
  In  In49  1  0.31319996  0.82825872  0.81686663  1
  In  In50  1  0.29506959  0.86035163  0.17656059  1
  In  In51  1  0.31277117  0.67697310  0.00785900  1
  In  In52  1  0.66740802  0.49127606  0.49815013  1
  In  In53  1  0.84348741  0.33003434  0.51018515  1
  In  In54  1  0.50111256  0.03141044  0.19019146  1
  In  In55  1  0.30867587  -0.00546401  0.35676337  1
  In  In56  1  0.33287470  0.51154666  0.14351689  1
  In  In57  1  0.48980121  0.52523202  0.70428987  1
  In  In58  1  0.65611157  0.33758723  0.65352138  1
  In  In59  1  0.00996259  0.68082856  0.33677283  1
  In  In60  1  0.67900206  0.15334894  0.18867081  1
  In  In61  1  0.31001539  0.17269345  0.48881130  1
  In  In62  1  0.01234613  0.65724557  -0.00125995  1
  In  In63  1  0.15181356  0.31387520  0.48955441  1
  In  In64  1  0.30916217  0.49838201  0.52075191  1
  In  In65  1  0.68861147  0.82084165  0.17969118  1
  In  In66  1  0.90439451  -0.00907301  0.21150853  1
  In  In67  1  0.16067476  -0.00297884  0.81706383  1
  In  In68  1  0.17200869  0.49861996  0.33244427  1
  In  In69  1  0.48928161  0.49525009  0.36472938  1
  In  In70  1  0.00918822  0.16907207  0.82681712  1
  In  In71  1  0.00454105  0.53185120  0.50934606  1
  Te  Te72  1  0.07644055  0.03899426  0.08849734  1
  Te  Te73  1  0.05917385  0.08163368  0.42767999  1
  Te  Te74  1  0.07004649  0.07526810  0.72302925  1
  Te  Te75  1  0.07804380  0.43902706  0.06976236  1
  Te  Te76  1  0.06476369  0.42302378  0.40880065  1
  Te  Te77  1  0.11629367  0.39439198  0.72322741  1
  Te  Te78  1  0.08848867  0.75091903  0.08409799  1
  Te  Te79  1  0.08710046  0.74440101  0.44815544  1
  Te  Te80  1  0.07806604  0.78779047  0.74584974  1
  Te  Te81  1  0.40332401  0.06521864  0.07915760  1
  Te  Te82  1  0.41471641  0.08023380  0.42729862  1
  Te  Te83  1  0.42763739  0.07729197  0.74954807  1
  Te  Te84  1  0.43421523  0.40306632  0.08920564  1
  Te  Te85  1  0.37901506  0.40472859  0.42077563  1
  Te  Te86  1  0.38612988  0.41406601  0.74038125  1
  Te  Te87  1  0.41047164  0.75421038  0.09847775  1
  Te  Te88  1  0.41125576  0.75746246  0.41348913  1
  Te  Te89  1  0.42567477  0.76312193  0.73845841  1
  Te  Te90  1  0.77363317  0.06795123  0.09950428  1
  Te  Te91  1  0.81054441  0.04123802  0.43851459  1
  Te  Te92  1  0.76927589  0.09538834  0.76203899  1
  Te  Te93  1  0.73631242  0.36945212  0.11582480  1
  Te  Te94  1  0.76688813  0.41694150  0.41149914  1
  Te  Te95  1  0.73843920  0.41900843  0.75346672  1
  Te  Te96  1  0.74579472  0.75028090  0.05864652  1
  Te  Te97  1  0.75998138  0.76754861  0.39579799  1
  Te  Te98  1  0.78480457  0.78098436  0.70368922  1
  Te  Te99  1  0.08261316  0.23981988  0.23414316  1
  Te  Te100  1  0.06303983  0.22120130  0.56508085  1
  Te  Te101  1  0.07629956  0.26354875  0.92737616  1
  Te  Te102  1  0.08474910  0.58512092  0.24337240  1
  Te  Te103  1  0.11575581  0.58330750  0.59471532  1
  Te  Te104  1  0.09210341  0.58696092  0.89481934  1
  Te  Te105  1  0.04853560  0.95365693  0.23918833  1
  Te  Te106  1  0.03153409  0.89565447  0.60537405  1
  Te  Te107  1  0.07268410  0.91601405  0.90264798  1
  Te  Te108  1  0.40284510  0.23811078  0.25983415  1
  Te  Te109  1  0.39199265  0.23957063  0.60465015  1
  Te  Te110  1  0.41825193  0.24674269  0.91679321  1
  Te  Te111  1  0.42276987  0.58112034  0.25412604  1
  Te  Te112  1  0.41389859  0.59684703  0.58077337  1
  Te  Te113  1  0.40789198  0.57575404  0.93373897  1
  Te  Te114  1  0.41376653  0.92106347  0.25591954  1
  Te  Te115  1  0.40766996  0.91043176  0.55919717  1
  Te  Te116  1  0.37619887  0.91824595  0.92246835  1
  Te  Te117  1  0.77791089  0.20183642  0.28616430  1
  Te  Te118  1  0.75435635  0.23842540  0.59548413  1
  Te  Te119  1  0.77287179  0.24403905  0.91450683  1
  Te  Te120  1  0.72878564  0.57342492  0.24911217  1
  Te  Te121  1  0.75862499  0.58444470  0.57728724  1
  Te  Te122  1  0.74815300  0.60026094  0.90765283  1
  Te  Te123  1  0.77253804  0.91840698  0.25273218  1
  Te  Te124  1  0.78900886  0.90823028  0.55671499  1
  Te  Te125  1  0.74475997  0.92797719  0.91387509  1
  Te  Te126  1  0.25204288  0.24832969  0.07563052  1
  Te  Te127  1  0.22965649  0.24128473  0.38712795  1
  Te  Te128  1  0.21628248  0.27076066  0.76755666  1
  Te  Te129  1  0.22657090  0.60307505  0.10161663  1
  Te  Te130  1  0.25314687  0.59583292  0.41581217  1
  Te  Te131  1  0.23678198  0.61050873  0.70961730  1
  Te  Te132  1  0.21774487  0.95290210  0.08999003  1
  Te  Te133  1  0.21641576  0.89444718  0.42020786  1
  Te  Te134  1  0.22584758  0.90014729  0.71592371  1
  Te  Te135  1  0.63572945  0.25157389  0.07634286  1
  Te  Te136  1  0.59379363  0.24744011  0.44165887  1
  Te  Te137  1  0.57676659  0.25616746  0.75608585  1
  Te  Te138  1  0.62902683  0.55582252  0.13118325  1
  Te  Te139  1  0.59540094  0.59406083  0.41125003  1
  Te  Te140  1  0.60619187  0.62613310  0.72053847  1
  Te  Te141  1  0.57968526  0.91213450  0.09973638  1
  Te  Te142  1  0.60038649  0.95563071  0.43422685  1
  Te  Te143  1  0.60942125  0.94020189  0.74210807  1
  Te  Te144  1  0.92925573  0.23144684  0.10468430  1
  Te  Te145  1  0.92936602  0.23132737  0.44053413  1
  Te  Te146  1  0.93322124  0.24504580  0.72477481  1
  Te  Te147  1  0.89628773  0.58258744  0.08469106  1
  Te  Te148  1  0.91406275  0.57610146  0.39467096  1
  Te  Te149  1  0.92813375  0.59205653  0.74847302  1
  Te  Te150  1  0.95380439  0.93476707  0.07590984  1
  Te  Te151  1  0.94838786  0.96236767  0.42310004  1
  Te  Te152  1  0.94997565  0.87774055  0.73826221  1
  Te  Te153  1  0.22326905  0.07579019  0.26965659  1
  Te  Te154  1  0.23723701  0.06482717  0.57141837  1
  Te  Te155  1  0.23362474  0.09297900  0.91263422  1
  Te  Te156  1  0.26160908  0.41670943  0.23988822  1
  Te  Te157  1  0.21654181  0.40464769  0.59178161  1
  Te  Te158  1  0.22927152  0.44512503  0.92221924  1
  Te  Te159  1  0.20719417  0.76880924  0.25012119  1
  Te  Te160  1  0.21363123  0.77486822  0.53771157  1
  Te  Te161  1  0.22717412  0.73637661  0.89803822  1
  Te  Te162  1  0.61183478  0.05842498  0.29189134  1
  Te  Te163  1  0.58635938  0.05528091  0.55581503  1
  Te  Te164  1  0.55970760  0.07745694  0.92842749  1
  Te  Te165  1  0.56919053  0.39456950  0.28303379  1
  Te  Te166  1  0.55428673  0.42528824  0.58083802  1
  Te  Te167  1  0.59540695  0.42333913  0.92813673  1
  Te  Te168  1  0.58021458  0.75919023  0.26478956  1
  Te  Te169  1  0.61068506  0.78514821  0.55446198  1
  Te  Te170  1  0.57913212  0.76156048  0.90814133  1
  Te  Te171  1  0.99636895  0.09274834  0.28171568  1
  Te  Te172  1  0.87010412  0.03085858  0.58652447  1
  Te  Te173  1  0.93340063  0.06202312  0.90405626  1
  Te  Te174  1  0.89368743  0.38865364  0.23755747  1
  Te  Te175  1  0.94227638  0.41629582  0.59019060  1
  Te  Te176  1  0.91201663  0.44025255  0.91149760  1
  Te  Te177  1  0.93728849  0.76544012  0.23201699  1
  Te  Te178  1  0.95619264  0.75772930  0.53917488  1
  Te  Te179  1  0.92740556  0.76012182  0.91820055  1
