# generated using pymatgen
data_In2Te3
_symmetry_space_group_name_H-M   'P 1'
_cell_length_a   18.78140053
_cell_length_b   18.77703026
_cell_length_c   18.77929207
_cell_angle_alpha   89.95656984
_cell_angle_beta   89.91293860
_cell_angle_gamma   90.08650028
_symmetry_Int_Tables_number   1
_chemical_formula_structural   In2Te3
_chemical_formula_sum   'In72 Te108'
_cell_volume   6622.66786984
_cell_formula_units_Z   36
loop_
 _symmetry_equiv_pos_site_id
 _symmetry_equiv_pos_as_xyz
  1  'x, y, z'
loop_
 _atom_site_type_symbol
 _atom_site_label
 _atom_site_symmetry_multiplicity
 _atom_site_fract_x
 _atom_site_fract_y
 _atom_site_fract_z
 _atom_site_occupancy
  In  In0  1  0.16068876  0.82074044  0.34977476  1
  In  In1  1  0.61897115  0.34383237  0.30555173  1
  In  In2  1  0.17961998  0.35470098  0.84192585  1
  In  In3  1  0.67308435  0.13683251  0.50048372  1
  In  In4  1  0.81065765  0.34435850  0.14260419  1
  In  In5  1  0.82038903  0.52356493  0.30101239  1
  In  In6  1  0.34881039  0.82241105  0.14131150  1
  In  In7  1  0.68021954  0.52847732  0.84782502  1
  In  In8  1  0.34465582  0.68698995  0.34709675  1
  In  In9  1  0.02567654  0.70510981  0.69474048  1
  In  In10  1  0.34504393  -0.02023498  -0.00883332  1
  In  In11  1  0.63929863  0.80699996  0.54714020  1
  In  In12  1  0.00978828  0.16227134  0.14384166  1
  In  In13  1  0.00000646  0.34367273  -0.01413191  1
  In  In14  1  0.82067190  0.84813279  0.32433731  1
  In  In15  1  0.68759931  0.52175930  0.49827899  1
  In  In16  1  0.49099393  0.84926256  0.34386840  1
  In  In17  1  -0.04443369  0.50955136  0.14630116  1
  In  In18  1  -0.02510138  0.14883539  0.83903371  1
  In  In19  1  0.16837374  0.51776319  -0.00934359  1
  In  In20  1  0.67438256  0.16672737  0.84719626  1
  In  In21  1  0.66379426  0.81130059  0.14900471  1
  In  In22  1  0.50421823  0.34427317  0.83324523  1
  In  In23  1  0.32187813  0.49370460  0.15463762  1
  In  In24  1  0.85344137  -0.03496076  0.82067523  1
  In  In25  1  0.50157764  0.65837230  0.12985140  1
  In  In26  1  0.83733958  0.66285888  0.12563998  1
  In  In27  1  0.01630010  0.68295382  0.34065958  1
  In  In28  1  0.01604881  0.14969409  0.50585368  1
  In  In29  1  0.67433500  -0.02005218  0.31530088  1
  In  In30  1  0.85018226  0.16881850  0.66923469  1
  In  In31  1  -0.02743945  0.84700153  0.13760822  1
  In  In32  1  0.32438747  0.82345775  0.53259248  1
  In  In33  1  0.50240723  0.67511368  0.85298968  1
  In  In34  1  0.48114982  -0.01199751  0.51550422  1
  In  In35  1  0.18375843  0.32312496  0.51097505  1
  In  In36  1  0.46518567  0.20985548  0.31337083  1
  In  In37  1  0.49096246  0.51418214  0.68358654  1
  In  In38  1  0.85987283  0.68964469  0.51369678  1
  In  In39  1  0.67411182  0.15156466  0.14766662  1
  In  In40  1  0.52791555  0.01521269  0.14856087  1
  In  In41  1  0.00195595  0.51042413  0.84491369  1
  In  In42  1  0.64397443  -0.03131833  0.70077644  1
  In  In43  1  0.50957773  0.48964063  0.32277686  1
  In  In44  1  0.17500910  0.16345814  0.01760709  1
  In  In45  1  0.00001402  0.54286195  0.54282952  1
  In  In46  1  0.17014739  0.66220349  0.52342713  1
  In  In47  1  0.02507181  0.32943484  0.33602999  1
  In  In48  1  0.50062687  0.16059576  -0.00351039  1
  In  In49  1  0.14357775  -0.03776217  0.85623809  1
  In  In50  1  0.15850848  0.16304701  0.67793442  1
  In  In51  1  0.17952325  -0.00549905  0.16821298  1
  In  In52  1  0.33919563  0.00743820  0.67797252  1
  In  In53  1  0.00179301  0.01187089  0.34055486  1
  In  In54  1  0.16546140  0.31920140  0.16521605  1
  In  In55  1  0.82031071  -0.02563032  0.52115287  1
  In  In56  1  0.31996676  0.53143746  0.82674749  1
  In  In57  1  0.48459337  0.32259432  0.50925734  1
  In  In58  1  0.34912824  0.49495032  0.51759106  1
  In  In59  1  0.67764148  -0.02789467  -0.00949601  1
  In  In60  1  0.82743816  0.35904776  0.50753839  1
  In  In61  1  0.34283887  0.16747857  0.82881982  1
  In  In62  1  0.67432578  0.64965148  0.33403419  1
  In  In63  1  0.15543568  0.48556802  0.33336410  1
  In  In64  1  0.86432370  0.17177145  0.30771731  1
  In  In65  1  0.30918437  -0.00607890  0.33804125  1
  In  In66  1  0.33298868  0.16894946  0.50573676  1
  In  In67  1  0.66963329  0.34407508  -0.02355408  1
  In  In68  1  0.32083089  0.81647646  0.83249086  1
  In  In69  1  0.14954415  0.67285045  0.13886821  1
  In  In70  1  0.81589057  0.51331897  0.68023175  1
  In  In71  1  0.65835727  0.35273949  0.68401396  1
  Te  Te72  1  0.08079767  0.05270888  0.06510547  1
  Te  Te73  1  0.10863792  0.07951263  0.41553212  1
  Te  Te74  1  0.07619855  0.06611382  0.76164025  1
  Te  Te75  1  0.08606750  0.42618950  0.09028373  1
  Te  Te76  1  0.06541141  0.43205297  0.44421173  1
  Te  Te77  1  0.07410174  0.41316801  0.75866606  1
  Te  Te78  1  0.05908169  0.75479267  0.05563467  1
  Te  Te79  1  0.07134192  0.76069697  0.45856853  1
  Te  Te80  1  0.09685930  0.76966437  0.81499974  1
  Te  Te81  1  0.40510183  0.08264678  0.08821582  1
  Te  Te82  1  0.42334300  0.07774972  0.40748149  1
  Te  Te83  1  0.43789977  0.07334088  0.76619487  1
  Te  Te84  1  0.43730069  0.41416404  0.10659192  1
  Te  Te85  1  0.40872295  0.40744985  0.40764130  1
  Te  Te86  1  0.39891024  0.41521723  0.74925759  1
  Te  Te87  1  0.42648720  0.74966616  0.03921048  1
  Te  Te88  1  0.43422084  0.75346687  0.44926320  1
  Te  Te89  1  0.40919345  0.72689062  0.74817368  1
  Te  Te90  1  0.76147428  0.07450896  0.05875167  1
  Te  Te91  1  0.77508560  0.07462854  0.40366522  1
  Te  Te92  1  0.75706594  0.07293808  0.74783678  1
  Te  Te93  1  0.75634038  0.44455115  0.04862018  1
  Te  Te94  1  0.73894488  0.41928555  0.39488015  1
  Te  Te95  1  0.75827985  0.41173045  0.78003389  1
  Te  Te96  1  0.75973398  0.76185046  0.04730716  1
  Te  Te97  1  0.74707636  0.75397948  0.42215092  1
  Te  Te98  1  0.77237483  0.74947288  0.78442809  1
  Te  Te99  1  0.09469917  0.21860581  0.25830721  1
  Te  Te100  1  0.07221766  0.25905403  0.59625571  1
  Te  Te101  1  0.08947547  0.24010047  0.91408882  1
  Te  Te102  1  0.07497550  0.57849165  0.24280469  1
  Te  Te103  1  0.11307620  0.57448044  0.64113846  1
  Te  Te104  1  0.11168906  0.61198723  0.88627432  1
  Te  Te105  1  0.07673636  0.89928274  0.24710440  1
  Te  Te106  1  0.03876821  0.91030676  0.60599790  1
  Te  Te107  1  0.03750113  0.87441319  0.92064710  1
  Te  Te108  1  0.42272454  0.28647679  0.19736290  1
  Te  Te109  1  0.41836854  0.23469299  0.60631872  1
  Te  Te110  1  0.41271418  0.26330137  0.92605414  1
  Te  Te111  1  0.41295677  0.59383957  0.24735580  1
  Te  Te112  1  0.41119829  0.60396560  0.59552948  1
  Te  Te113  1  0.42228059  0.57347294  0.92570589  1
  Te  Te114  1  0.41330982  0.92440507  0.23556057  1
  Te  Te115  1  0.42824073  0.89328615  0.62010656  1
  Te  Te116  1  0.42423124  0.91744301  0.88043885  1
  Te  Te117  1  0.74550811  0.25114637  0.25285437  1
  Te  Te118  1  0.74254108  0.25424768  0.58618372  1
  Te  Te119  1  0.76966078  0.24760699  0.92381465  1
  Te  Te120  1  0.71680330  0.58326674  0.20017457  1
  Te  Te121  1  0.74966830  0.62207631  0.59518811  1
  Te  Te122  1  0.76923368  0.63763275  0.90301561  1
  Te  Te123  1  0.76051411  0.92192751  0.20534649  1
  Te  Te124  1  0.74671946  0.88486032  0.62301888  1
  Te  Te125  1  0.73817419  0.88396911  0.88037675  1
  Te  Te126  1  0.26963860  0.25808273  0.07901410  1
  Te  Te127  1  0.25894872  0.25123646  0.40754180  1
  Te  Te128  1  0.25476346  0.25963326  0.74523469  1
  Te  Te129  1  0.26749286  0.60792531  0.06835604  1
  Te  Te130  1  0.24417596  0.58622824  0.41096694  1
  Te  Te131  1  0.24583326  0.61319674  0.72705373  1
  Te  Te132  1  0.23868150  0.89632310  0.06499103  1
  Te  Te133  1  0.23584008  0.91313464  0.44642929  1
  Te  Te134  1  0.23573867  0.91546128  0.74354873  1
  Te  Te135  1  0.59011844  0.25496072  0.07628561  1
  Te  Te136  1  0.58890751  0.24344243  0.42679122  1
  Te  Te137  1  0.57986842  0.23996648  0.75047033  1
  Te  Te138  1  0.62148136  0.59739757  0.07489051  1
  Te  Te139  1  0.56934892  0.58839767  0.42814393  1
  Te  Te140  1  0.60473254  0.60193785  0.73737547  1
  Te  Te141  1  0.56457595  0.89553514  0.06532074  1
  Te  Te142  1  0.60234851  0.91811246  0.43771450  1
  Te  Te143  1  0.55926744  0.87515146  0.78171106  1
  Te  Te144  1  0.90997512  0.24988033  0.06993890  1
  Te  Te145  1  0.91483270  0.24982241  0.43114531  1
  Te  Te146  1  0.91372305  0.26020984  0.76507130  1
  Te  Te147  1  0.94233021  0.60600243  0.03511890  1
  Te  Te148  1  0.90855599  0.57803402  0.41742407  1
  Te  Te149  1  0.92042034  0.60271228  0.74934803  1
  Te  Te150  1  0.91322843  0.91035987  0.01599301  1
  Te  Te151  1  0.92038748  0.91050542  0.42140192  1
  Te  Te152  1  0.96433718  0.90163559  0.73227018  1
  Te  Te153  1  0.26253473  0.09327816  0.23956374  1
  Te  Te154  1  0.23946424  0.07517814  0.58295285  1
  Te  Te155  1  0.24653139  0.07422648  0.90781086  1
  Te  Te156  1  0.25637511  0.40164186  0.25971966  1
  Te  Te157  1  0.25264381  0.41899212  0.59868421  1
  Te  Te158  1  0.27471445  0.42392968  0.93625532  1
  Te  Te159  1  0.24644688  0.74914743  0.24335625  1
  Te  Te160  1  0.23914488  0.74494603  0.62903765  1
  Te  Te161  1  0.22202109  0.72520418  0.90100283  1
  Te  Te162  1  0.58314753  0.09523859  0.26717652  1
  Te  Te163  1  0.57917599  0.07060974  0.60005591  1
  Te  Te164  1  0.58156807  0.06392103  0.91157979  1
  Te  Te165  1  0.57592664  0.43734961  0.19774629  1
  Te  Te166  1  0.58422910  0.43021584  0.57531151  1
  Te  Te167  1  0.56909690  0.44960369  0.92097019  1
  Te  Te168  1  0.57416974  0.75051129  0.26209885  1
  Te  Te169  1  0.56498160  0.72304576  0.64167000  1
  Te  Te170  1  0.60813134  0.77543246  0.88789876  1
  Te  Te171  1  0.91961752  0.06113486  0.22045284  1
  Te  Te172  1  0.92739963  0.06004705  0.59381385  1
  Te  Te173  1  0.90762375  0.05373495  0.93306202  1
  Te  Te174  1  0.91707390  0.39821852  0.25200201  1
  Te  Te175  1  0.92017722  0.42548126  0.60712861  1
  Te  Te176  1  0.90171368  0.44280843  0.93464650  1
  Te  Te177  1  0.90691484  0.73876704  0.24795955  1
  Te  Te178  1  0.92989828  0.78732330  0.60607667  1
  Te  Te179  1  0.89199186  0.72916541  0.86683999  1
