# generated using pymatgen
data_In2Te3
_symmetry_space_group_name_H-M   'P 1'
_cell_length_a   18.81156691
_cell_length_b   18.80377657
_cell_length_c   18.80771704
_cell_angle_alpha   90.05862525
_cell_angle_beta   89.88908069
_cell_angle_gamma   90.00227811
_symmetry_Int_Tables_number   1
_chemical_formula_structural   In2Te3
_chemical_formula_sum   'In72 Te108'
_cell_volume   6652.80960411
_cell_formula_units_Z   36
loop_
 _symmetry_equiv_pos_site_id
 _symmetry_equiv_pos_as_xyz
  1  'x, y, z'
loop_
 _atom_site_type_symbol
 _atom_site_label
 _atom_site_symmetry_multiplicity
 _atom_site_fract_x
 _atom_site_fract_y
 _atom_site_fract_z
 _atom_site_occupancy
  In  In0  1  0.29578584  0.33002649  -0.00720416  1
  In  In1  1  0.49161428  0.32952375  0.81097412  1
  In  In2  1  0.47672304  0.64312676  0.82371723  1
  In  In3  1  0.50137331  0.49399153  -0.00922742  1
  In  In4  1  0.84205783  0.51644241  0.00695641  1
  In  In5  1  0.70011764  0.01055268  0.04530316  1
  In  In6  1  0.17626303  0.00108268  0.86481375  1
  In  In7  1  0.16584135  0.66663231  0.85911827  1
  In  In8  1  0.32186382  0.00366523  0.64961281  1
  In  In9  1  0.48743681  0.68444519  0.45508553  1
  In  In10  1  0.16750022  0.66467706  0.15981374  1
  In  In11  1  0.51438889  -0.00906299  0.17580279  1
  In  In12  1  0.83450809  0.16218474  0.67864120  1
  In  In13  1  0.64610064  0.18098781  0.83933678  1
  In  In14  1  0.49300754  0.30774700  0.18635770  1
  In  In15  1  0.65173201  0.15951718  0.47541438  1
  In  In16  1  0.50237237  0.50671202  0.31565762  1
  In  In17  1  0.34319435  0.51237820  0.15694997  1
  In  In18  1  0.01935271  0.50235011  0.81588717  1
  In  In19  1  0.00737119  0.84890361  0.47926749  1
  In  In20  1  0.67213209  0.33478790  0.66251169  1
  In  In21  1  0.32554326  0.50292969  0.51862564  1
  In  In22  1  0.13771862  0.85807077  0.30511261  1
  In  In23  1  0.65777878  0.02240222  0.61842097  1
  In  In24  1  0.82266916  0.49283708  0.65183458  1
  In  In25  1  0.65685951  0.82708244  0.82994638  1
  In  In26  1  0.16736126  0.32910941  0.16387279  1
  In  In27  1  0.02544019  0.84854487  0.83295003  1
  In  In28  1  0.32288256  0.82387270  0.15773923  1
  In  In29  1  0.81755735  0.67909508  0.86243643  1
  In  In30  1  -0.01498599  0.66142498  0.02590679  1
  In  In31  1  0.48779291  0.85515616  0.01377303  1
  In  In32  1  0.83941663  0.85590773  0.04643625  1
  In  In33  1  0.02861981  0.16352757  0.49221542  1
  In  In34  1  0.34846989  0.31336539  0.33051918  1
  In  In35  1  0.32499241  0.15462263  0.83149574  1
  In  In36  1  0.18066091  0.16050724  0.66978282  1
  In  In37  1  0.18911151  0.66996508  0.50868455  1
  In  In38  1  0.17053111  0.46055634  0.66564197  1
  In  In39  1  0.64514128  0.86339177  0.45750177  1
  In  In40  1  0.64910015  0.65447432  0.66089152  1
  In  In41  1  0.47697256  0.47668108  0.67335368  1
  In  In42  1  0.17995856  0.03618205  0.49240841  1
  In  In43  1  0.16475418  0.50714628  0.34945896  1
  In  In44  1  0.84052602  0.35818968  0.49121607  1
  In  In45  1  -0.00996118  0.50320986  0.46894038  1
  In  In46  1  0.00038790  0.16878177  0.86819063  1
  In  In47  1  0.82745157  -0.02877366  0.46713588  1
  In  In48  1  -0.01460917  0.00541846  0.66340753  1
  In  In49  1  0.65261972  0.31199840  0.01769043  1
  In  In50  1  0.48521980  0.29885700  0.49992220  1
  In  In51  1  0.69635908  0.51457524  0.18539119  1
  In  In52  1  0.48773474  0.84638739  0.64661493  1
  In  In53  1  0.00477925  0.15482195  0.16874251  1
  In  In54  1  0.48673871  -0.01227714  0.84526712  1
  In  In55  1  0.86148175  0.68643593  0.45964734  1
  In  In56  1  -0.02188449  0.65453334  0.63812948  1
  In  In57  1  0.33688893  0.00418608  0.33906683  1
  In  In58  1  0.17876485  0.81869606  0.66055323  1
  In  In59  1  0.83286929  0.31281821  0.84441827  1
  In  In60  1  0.52608090  0.70333487  0.18844509  1
  In  In61  1  0.49091207  0.14726147  0.01452032  1
  In  In62  1  0.32837474  0.67084149  0.67315376  1
  In  In63  1  0.84302150  0.16800034  0.33270976  1
  In  In64  1  -0.01290710  0.68917502  0.29960539  1
  In  In65  1  0.02887195  0.33415070  0.00451267  1
  In  In66  1  0.66472350  0.68784598  0.02174142  1
  In  In67  1  0.17098158  0.15870176  0.31924374  1
  In  In68  1  0.16015013  0.83965320  0.00710602  1
  In  In69  1  0.67892398  0.49661025  0.47046277  1
  In  In70  1  0.84614797  0.00728025  0.84718901  1
  In  In71  1  0.85637784  0.33351929  0.19118259  1
  Te  Te72  1  0.10082670  0.06416135  0.10241280  1
  Te  Te73  1  0.06909504  0.06145689  0.38979511  1
  Te  Te74  1  0.07953882  0.07379575  0.76145741  1
  Te  Te75  1  0.08707341  0.43300292  0.09598192  1
  Te  Te76  1  0.09290216  0.40617111  0.42794515  1
  Te  Te77  1  0.10268896  0.38807194  0.77547386  1
  Te  Te78  1  0.06618118  0.76392169  0.10240089  1
  Te  Te79  1  0.08180441  0.73163752  0.41434558  1
  Te  Te80  1  0.07399585  0.73581323  0.73763661  1
  Te  Te81  1  0.41056034  0.04679665  0.08565175  1
  Te  Te82  1  0.44481248  0.07393864  0.41729132  1
  Te  Te83  1  0.42146930  0.07824864  0.74197942  1
  Te  Te84  1  0.42240274  0.39716304  0.08403391  1
  Te  Te85  1  0.42568702  0.42722159  0.42106709  1
  Te  Te86  1  0.37675197  0.41484072  0.76540115  1
  Te  Te87  1  0.42071019  0.73532993  0.07842718  1
  Te  Te88  1  0.42473600  0.79467926  0.38577968  1
  Te  Te89  1  0.41425112  0.76588665  0.75590742  1
  Te  Te90  1  0.75782873  0.09611780  0.14989993  1
  Te  Te91  1  0.73747722  0.06607070  0.38793637  1
  Te  Te92  1  0.73504495  0.07780350  0.75729348  1
  Te  Te93  1  0.75361840  0.40966729  0.08018335  1
  Te  Te94  1  0.73811344  0.38881338  0.38902682  1
  Te  Te95  1  0.75159622  0.41572039  0.76356182  1
  Te  Te96  1  0.77816176  0.73301829  0.10541534  1
  Te  Te97  1  0.74864836  0.76626073  0.39524605  1
  Te  Te98  1  0.74745957  0.74270303  0.74059132  1
  Te  Te99  1  0.07191560  0.25893474  0.25896824  1
  Te  Te100  1  0.08650011  0.24734038  0.59628490  1
  Te  Te101  1  0.11493651  0.23716619  0.93267482  1
  Te  Te102  1  0.07663432  0.57556558  0.24548670  1
  Te  Te103  1  0.09354980  0.57271442  0.57790449  1
  Te  Te104  1  0.07681503  0.57341317  0.94000240  1
  Te  Te105  1  0.07773029  0.94350098  0.19545287  1
  Te  Te106  1  0.09494728  0.92893185  0.58523228  1
  Te  Te107  1  0.05935234  0.94273384  0.94529654  1
  Te  Te108  1  0.41518750  0.20433535  0.25624531  1
  Te  Te109  1  0.37932733  0.25690660  0.59126714  1
  Te  Te110  1  0.42335283  0.24903526  0.92436939  1
  Te  Te111  1  0.41571787  0.61178588  0.24863690  1
  Te  Te112  1  0.43618127  0.59762250  0.58424301  1
  Te  Te113  1  0.38887055  0.56346904  0.91653637  1
  Te  Te114  1  0.41965540  0.88844034  0.26035311  1
  Te  Te115  1  0.40916486  0.92991247  0.55447918  1
  Te  Te116  1  0.38683822  0.91391104  0.92388516  1
  Te  Te117  1  0.74857345  0.24222189  0.24268891  1
  Te  Te118  1  0.75676787  0.24354377  0.57403782  1
  Te  Te119  1  0.75313396  0.22423941  0.93968506  1
  Te  Te120  1  0.77174831  0.60751405  0.26967332  1
  Te  Te121  1  0.76031823  0.59881941  0.56248064  1
  Te  Te122  1  0.72529895  0.57926705  0.92901763  1
  Te  Te123  1  0.74964968  0.86459303  0.26292440  1
  Te  Te124  1  0.74444751  0.90613098  0.57713072  1
  Te  Te125  1  0.74783120  0.90542002  0.92423405  1
  Te  Te126  1  0.26038453  0.23506181  0.09867460  1
  Te  Te127  1  0.24338750  0.24906075  0.41202040  1
  Te  Te128  1  0.24529461  0.25700303  0.76172106  1
  Te  Te129  1  0.25045559  0.58428467  0.06837589  1
  Te  Te130  1  0.27595339  0.59582173  0.40793252  1
  Te  Te131  1  0.22721908  0.58516173  0.74394526  1
  Te  Te132  1  0.24044023  0.93039264  0.09567161  1
  Te  Te133  1  0.23112727  0.91579186  0.41130203  1
  Te  Te134  1  0.24684370  0.91889040  0.75255034  1
  Te  Te135  1  0.58815665  0.21218153  0.11194593  1
  Te  Te136  1  0.57915007  0.25958268  0.39407243  1
  Te  Te137  1  0.57079521  0.23509849  0.71831574  1
  Te  Te138  1  0.57717899  0.57988501  0.09791430  1
  Te  Te139  1  0.59860719  0.60023949  0.39105399  1
  Te  Te140  1  0.58388503  0.55730211  0.75762562  1
  Te  Te141  1  0.60781134  0.89754762  0.09586304  1
  Te  Te142  1  0.55716874  0.97222437  0.39419049  1
  Te  Te143  1  0.58643872  0.92606709  0.73645685  1
  Te  Te144  1  0.92467266  0.25260828  0.08158387  1
  Te  Te145  1  0.93135924  0.25705342  0.41913775  1
  Te  Te146  1  0.93445527  0.24972398  0.74947918  1
  Te  Te147  1  0.89831737  0.58911050  0.12416068  1
  Te  Te148  1  0.87612417  0.55173307  0.37220726  1
  Te  Te149  1  0.90368330  0.58931747  0.76028688  1
  Te  Te150  1  0.93052796  0.94303965  0.12490136  1
  Te  Te151  1  0.92801235  0.91524217  0.37050638  1
  Te  Te152  1  0.90751456  0.90659287  0.74953238  1
  Te  Te153  1  0.25685351  0.07228043  0.23467739  1
  Te  Te154  1  0.28894113  0.12798890  0.55628695  1
  Te  Te155  1  0.25104326  0.09785860  0.94693883  1
  Te  Te156  1  0.26331909  0.42448494  0.25567072  1
  Te  Te157  1  0.26619695  0.38095551  0.58024019  1
  Te  Te158  1  0.28194217  0.44409081  0.90280411  1
  Te  Te159  1  0.23795264  0.75134228  0.26383674  1
  Te  Te160  1  0.28720945  0.77174376  0.56361115  1
  Te  Te161  1  0.25438949  0.76857990  0.91512982  1
  Te  Te162  1  0.59986995  0.06057992  0.27521369  1
  Te  Te163  1  0.54207094  0.09317432  0.55711681  1
  Te  Te164  1  0.59211512  0.06353028  0.92869036  1
  Te  Te165  1  0.59357761  0.41371485  0.23850164  1
  Te  Te166  1  0.58745254  0.42511444  0.57346714  1
  Te  Te167  1  0.58927898  0.39844146  0.90878958  1
  Te  Te168  1  0.62106011  0.78511969  0.27804524  1
  Te  Te169  1  0.58586981  0.75764609  0.56612314  1
  Te  Te170  1  0.56377867  0.73877871  0.91314911  1
  Te  Te171  1  0.89305767  0.06332565  0.23005108  1
  Te  Te172  1  0.89982531  0.07961061  0.56174176  1
  Te  Te173  1  0.90712650  0.08963798  0.95182216  1
  Te  Te174  1  0.91621415  0.42385722  0.28932195  1
  Te  Te175  1  0.93835814  0.41772539  0.59309713  1
  Te  Te176  1  0.92002003  0.41862084  0.91501466  1
  Te  Te177  1  0.89433836  0.80027773  0.26104822  1
  Te  Te178  1  0.91316569  0.77642491  0.57658957  1
  Te  Te179  1  0.92668251  0.76487016  0.92558672  1
