# generated using pymatgen
data_In2Te3
_symmetry_space_group_name_H-M   'P 1'
_cell_length_a   18.76276334
_cell_length_b   18.76340743
_cell_length_c   18.76625582
_cell_angle_alpha   90.01054453
_cell_angle_beta   90.04181702
_cell_angle_gamma   89.94822701
_symmetry_Int_Tables_number   1
_chemical_formula_structural   In2Te3
_chemical_formula_sum   'In72 Te108'
_cell_volume   6606.71909330
_cell_formula_units_Z   36
loop_
 _symmetry_equiv_pos_site_id
 _symmetry_equiv_pos_as_xyz
  1  'x, y, z'
loop_
 _atom_site_type_symbol
 _atom_site_label
 _atom_site_symmetry_multiplicity
 _atom_site_fract_x
 _atom_site_fract_y
 _atom_site_fract_z
 _atom_site_occupancy
  In  In0  1  0.49316284  0.67473213  0.48888813  1
  In  In1  1  0.82976885  0.16207683  0.33383272  1
  In  In2  1  0.19284701  0.17332115  -0.00498969  1
  In  In3  1  0.82345220  0.15313026  0.65902919  1
  In  In4  1  0.65566498  -0.01586805  0.32394003  1
  In  In5  1  0.66852685  0.32274394  0.68989365  1
  In  In6  1  0.17844352  0.34310488  0.17707254  1
  In  In7  1  -0.00849600  0.65147928  0.00927729  1
  In  In8  1  0.66072477  -0.00081188  0.00142172  1
  In  In9  1  0.19685007  0.84136317  -0.00397286  1
  In  In10  1  0.36082696  0.82018154  0.13862104  1
  In  In11  1  0.68719012  0.66181273  0.31069514  1
  In  In12  1  0.81679422  0.51577644  0.00232715  1
  In  In13  1  0.64678780  0.65617955  -0.00056319  1
  In  In14  1  0.84363123  0.50049547  0.66566055  1
  In  In15  1  -0.03298874  0.65633541  0.35054077  1
  In  In16  1  -0.00574041  0.37056424  0.33017939  1
  In  In17  1  0.81232351  0.36252442  0.15311593  1
  In  In18  1  0.18878067  0.16012924  0.35950583  1
  In  In19  1  0.81324894  0.36944248  0.50236952  1
  In  In20  1  0.61497830  0.13663407  0.53046350  1
  In  In21  1  0.01942859  0.85694802  0.51922258  1
  In  In22  1  0.66403548  0.83144423  0.17388652  1
  In  In23  1  0.48146300  0.31078593  0.51550493  1
  In  In24  1  0.00349767  0.16719808  0.16590368  1
  In  In25  1  0.00183253  0.00072441  -0.00477409  1
  In  In26  1  0.49926723  0.85513796  0.67288634  1
  In  In27  1  0.34031483  0.65296638  0.33365129  1
  In  In28  1  -0.00436347  0.33834666  0.66147250  1
  In  In29  1  0.19545893  0.01316801  0.80416119  1
  In  In30  1  0.82764662  0.81609472  0.01095176  1
  In  In31  1  0.19018412  0.13967118  0.65022184  1
  In  In32  1  0.17203926  0.50091056  0.32996151  1
  In  In33  1  0.49223354  0.50986406  0.30196542  1
  In  In34  1  0.18443995  0.49635395  -0.00184550  1
  In  In35  1  0.65250471  0.17264410  0.82310342  1
  In  In36  1  0.66381151  0.35669302  0.36042613  1
  In  In37  1  0.49096881  0.49684836  0.68977848  1
  In  In38  1  0.64635260  0.17612605  0.15607160  1
  In  In39  1  0.49593881  -0.01360591  0.83803907  1
  In  In40  1  0.34283846  0.16353891  0.16665911  1
  In  In41  1  0.31535761  0.48482984  0.49444284  1
  In  In42  1  0.15695110  0.83748574  0.33842226  1
  In  In43  1  0.83284571  -0.00186655  0.83330886  1
  In  In44  1  -0.00706317  0.81916280  0.18823132  1
  In  In45  1  0.81517253  0.82314588  0.65877165  1
  In  In46  1  0.50614903  0.00280736  0.16007198  1
  In  In47  1  0.00783041  0.00084546  0.34036781  1
  In  In48  1  0.82422125  0.34280024  0.85004133  1
  In  In49  1  0.34098771  0.83265208  0.51736767  1
  In  In50  1  0.35298300  0.01040327  0.34819973  1
  In  In51  1  0.00155054  0.17123846  0.50278751  1
  In  In52  1  0.48393258  0.65896962  0.87140276  1
  In  In53  1  0.50392118  0.35844249  0.85277889  1
  In  In54  1  0.17149344  0.66057326  0.15558663  1
  In  In55  1  0.66822703  0.65464007  0.68374726  1
  In  In56  1  0.66740846  0.82979670  0.47357411  1
  In  In57  1  0.48687348  0.34811283  0.16129449  1
  In  In58  1  0.68298942  0.49637143  0.50664827  1
  In  In59  1  0.31823101  0.33130560  0.32129559  1
  In  In60  1  0.00767871  0.66170536  0.66158915  1
  In  In61  1  0.35836956  0.16950982  0.83702269  1
  In  In62  1  0.82519197  -0.02585978  0.48403645  1
  In  In63  1  -0.00136825  0.82461848  0.83116417  1
  In  In64  1  -0.00911126  0.35699567  0.01514182  1
  In  In65  1  0.33053299  0.84572897  0.82273141  1
  In  In66  1  0.17566122  0.50558275  0.66544984  1
  In  In67  1  0.31142355  0.67030279  0.66616380  1
  In  In68  1  0.79291009  0.15391180  0.00075398  1
  In  In69  1  0.17157809  0.67464747  0.83090723  1
  In  In70  1  0.16932314  0.34936270  0.83051160  1
  In  In71  1  0.03673321  0.16081017  0.81163181  1
  Te  Te72  1  0.09884223  0.08386727  0.08047166  1
  Te  Te73  1  0.09829322  0.06859392  0.44234186  1
  Te  Te74  1  0.07160445  0.05080382  0.70729916  1
  Te  Te75  1  0.08523755  0.43859272  0.10221917  1
  Te  Te76  1  0.10476245  0.40519855  0.42088256  1
  Te  Te77  1  0.06907959  0.43421469  0.75403927  1
  Te  Te78  1  0.08216411  0.76516946  0.06748963  1
  Te  Te79  1  0.07165169  0.74604510  0.42272264  1
  Te  Te80  1  0.09936071  0.76511150  0.73327846  1
  Te  Te81  1  0.42367904  0.08643702  0.06998953  1
  Te  Te82  1  0.39656260  0.12260257  0.44040381  1
  Te  Te83  1  0.41611714  0.06972802  0.73808001  1
  Te  Te84  1  0.43364115  0.45195190  0.06786088  1
  Te  Te85  1  0.42933903  0.41841156  0.41119025  1
  Te  Te86  1  0.40317444  0.39309049  0.74489576  1
  Te  Te87  1  0.44461897  0.70939658  0.08400284  1
  Te  Te88  1  0.41766461  0.76838094  0.39850474  1
  Te  Te89  1  0.42498874  0.73854215  0.74320389  1
  Te  Te90  1  0.74366892  0.06376708  0.11292683  1
  Te  Te91  1  0.73695983  0.08789307  0.42895379  1
  Te  Te92  1  0.72935214  0.06746304  0.74242120  1
  Te  Te93  1  0.71011003  0.42281723  0.05981419  1
  Te  Te94  1  0.78286425  0.46408152  0.37231741  1
  Te  Te95  1  0.74059689  0.43537052  0.76038786  1
  Te  Te96  1  0.74525282  0.72443729  0.09850435  1
  Te  Te97  1  0.76206792  0.73187380  0.41739600  1
  Te  Te98  1  0.74904591  0.74688570  0.76707448  1
  Te  Te99  1  0.08706412  0.24976817  0.26360426  1
  Te  Te100  1  0.09736277  0.25194781  0.58973043  1
  Te  Te101  1  0.07691666  0.25807069  0.93268591  1
  Te  Te102  1  0.07876081  0.59602129  0.25570435  1
  Te  Te103  1  0.09563259  0.58495693  0.56974338  1
  Te  Te104  1  0.08554445  0.57937195  0.91284110  1
  Te  Te105  1  0.09120452  0.92807380  0.23392215  1
  Te  Te106  1  0.11162619  0.93447312  0.60489213  1
  Te  Te107  1  0.09563292  0.92582262  0.89881995  1
  Te  Te108  1  0.42829998  0.24567120  0.26326994  1
  Te  Te109  1  0.39270173  0.20625119  0.57630163  1
  Te  Te110  1  0.43184393  0.25472069  0.93543994  1
  Te  Te111  1  0.43507410  0.62307283  0.21825324  1
  Te  Te112  1  0.41452860  0.57959967  0.57992543  1
  Te  Te113  1  0.42691303  0.53862650  0.93591793  1
  Te  Te114  1  0.42128438  0.91381813  0.24978894  1
  Te  Te115  1  0.44410378  0.93675682  0.55818657  1
  Te  Te116  1  0.41574117  0.90091680  0.92952657  1
  Te  Te117  1  0.74535023  0.26126224  0.25194857  1
  Te  Te118  1  0.74067097  0.24919237  0.57397131  1
  Te  Te119  1  0.71583831  0.26741702  0.92874527  1
  Te  Te120  1  0.74426353  0.54250385  0.24434639  1
  Te  Te121  1  0.76614834  0.60151236  0.57775485  1
  Te  Te122  1  0.74517013  0.59866219  0.90281896  1
  Te  Te123  1  0.76112760  0.90888950  0.25621600  1
  Te  Te124  1  0.72380464  0.92186175  0.58468155  1
  Te  Te125  1  0.74550685  0.90455275  0.91595236  1
  Te  Te126  1  0.27308222  0.27220065  0.08051988  1
  Te  Te127  1  0.24696598  0.27230836  0.43629788  1
  Te  Te128  1  0.24279471  0.23533849  0.75819404  1
  Te  Te129  1  0.27082036  0.59564383  0.06889192  1
  Te  Te130  1  0.23717001  0.59990962  0.43149432  1
  Te  Te131  1  0.26772213  0.57039324  0.77184610  1
  Te  Te132  1  0.26974126  0.92635501  0.09091201  1
  Te  Te133  1  0.25198034  0.92045982  0.42321684  1
  Te  Te134  1  0.25748041  0.91457892  0.71150939  1
  Te  Te135  1  0.54936592  0.24637500  0.06842047  1
  Te  Te136  1  0.58145377  0.24358470  0.42051617  1
  Te  Te137  1  0.54923382  0.24838623  0.74146021  1
  Te  Te138  1  0.53807378  0.57213188  0.06501714  1
  Te  Te139  1  0.58281404  0.57393726  0.41707678  1
  Te  Te140  1  0.58262394  0.57439881  0.78104833  1
  Te  Te141  1  0.57168452  0.89662822  0.07049520  1
  Te  Te142  1  0.56386394  0.92617147  0.42509519  1
  Te  Te143  1  0.59992016  0.90544392  0.76806136  1
  Te  Te144  1  0.90200023  0.24688099  0.08075931  1
  Te  Te145  1  0.90989682  0.26353738  0.41827390  1
  Te  Te146  1  0.90479337  0.24913022  0.74761630  1
  Te  Te147  1  0.90517050  0.58006626  0.10555231  1
  Te  Te148  1  0.90958185  0.54482760  0.42846673  1
  Te  Te149  1  0.91926741  0.58951751  0.75552195  1
  Te  Te150  1  0.91692377  0.91463223  0.08653492  1
  Te  Te151  1  0.92025253  0.89209763  0.40028292  1
  Te  Te152  1  0.91513895  0.91314344  0.73808814  1
  Te  Te153  1  0.24946450  0.07511672  0.24959328  1
  Te  Te154  1  0.28831426  0.08698739  0.55075174  1
  Te  Te155  1  0.27458244  0.06757440  0.92151816  1
  Te  Te156  1  0.27768891  0.44813352  0.23203790  1
  Te  Te157  1  0.26655259  0.40276475  0.60614694  1
  Te  Te158  1  0.27120323  0.40212048  0.92216133  1
  Te  Te159  1  0.25176160  0.75620123  0.24691610  1
  Te  Te160  1  0.23175011  0.74781071  0.56991747  1
  Te  Te161  1  0.27732538  0.73575896  0.92210547  1
  Te  Te162  1  0.57114477  0.09625071  0.26343183  1
  Te  Te163  1  0.53195473  0.06354931  0.62881532  1
  Te  Te164  1  0.57008413  0.09265863  0.92378932  1
  Te  Te165  1  0.60096551  0.42476802  0.23631850  1
  Te  Te166  1  0.58247885  0.41260102  0.58661296  1
  Te  Te167  1  0.61792533  0.41083636  0.93121010  1
  Te  Te168  1  0.57704492  0.74602096  0.25961326  1
  Te  Te169  1  0.58509218  0.74566042  0.58776153  1
  Te  Te170  1  0.57178350  0.76452057  0.92622604  1
  Te  Te171  1  0.91179271  0.07165328  0.24267356  1
  Te  Te172  1  0.91281677  0.06647509  0.57208836  1
  Te  Te173  1  0.91517126  0.10124048  0.91157773  1
  Te  Te174  1  0.92371849  0.43925359  0.21864694  1
  Te  Te175  1  0.94190331  0.43832193  0.55923838  1
  Te  Te176  1  0.92306733  0.44115261  0.90910618  1
  Te  Te177  1  0.89063351  0.73188062  0.24767556  1
  Te  Te178  1  0.91974684  0.75289443  0.57300447  1
  Te  Te179  1  0.90640983  0.73228787  0.90956283  1
