# generated using pymatgen
data_In2Te3
_symmetry_space_group_name_H-M   'P 1'
_cell_length_a   18.95958918
_cell_length_b   18.97346076
_cell_length_c   18.98589295
_cell_angle_alpha   90.06871827
_cell_angle_beta   89.89407143
_cell_angle_gamma   90.06468958
_symmetry_Int_Tables_number   1
_chemical_formula_structural   In2Te3
_chemical_formula_sum   'In72 Te108'
_cell_volume   6829.75577296
_cell_formula_units_Z   36
loop_
 _symmetry_equiv_pos_site_id
 _symmetry_equiv_pos_as_xyz
  1  'x, y, z'
loop_
 _atom_site_type_symbol
 _atom_site_label
 _atom_site_symmetry_multiplicity
 _atom_site_fract_x
 _atom_site_fract_y
 _atom_site_fract_z
 _atom_site_occupancy
  In  In0  1  0.50206295  0.47858195  0.65265479  1
  In  In1  1  0.17586309  0.68393607  0.17229002  1
  In  In2  1  0.14488341  0.13686262  0.03520286  1
  In  In3  1  0.00071046  0.15221429  0.81093275  1
  In  In4  1  0.51077868  0.63419272  0.49514153  1
  In  In5  1  0.01466112  0.43160220  0.18243141  1
  In  In6  1  0.82321407  0.52116907  -0.01833945  1
  In  In7  1  0.53616606  -0.00833689  0.82716857  1
  In  In8  1  0.17061970  0.30768249  0.52313170  1
  In  In9  1  0.01817689  0.67189024  0.31306855  1
  In  In10  1  0.83512768  -0.00310500  0.18446207  1
  In  In11  1  0.85954673  0.49471553  0.31518499  1
  In  In12  1  0.84235442  0.30632525  0.48868692  1
  In  In13  1  -0.00538330  -0.00313429  0.33095899  1
  In  In14  1  0.34539689  -0.00079058  0.68661000  1
  In  In15  1  0.85356119  0.65883352  0.12361447  1
  In  In16  1  -0.00332816  0.84354846  0.17481276  1
  In  In17  1  0.66005711  0.16707587  0.84401987  1
  In  In18  1  0.49298827  0.33787906  0.85160563  1
  In  In19  1  0.00007463  0.31474804  0.65622503  1
  In  In20  1  0.82678388  -0.01536106  0.83492212  1
  In  In21  1  0.84053353  0.13662103  0.34928752  1
  In  In22  1  0.33515225  0.65253110  0.32602187  1
  In  In23  1  0.83623281  0.49286186  0.68159367  1
  In  In24  1  0.16682764  0.86366632  0.64503081  1
  In  In25  1  0.33459748  0.64461156  0.68956478  1
  In  In26  1  0.00097189  0.34361288  -0.01980540  1
  In  In27  1  0.66289876  0.50059566  0.49365986  1
  In  In28  1  0.82792421  0.31609475  0.16877631  1
  In  In29  1  0.33755287  0.16232439  0.49421670  1
  In  In30  1  0.15961076  0.67522980  0.48900873  1
  In  In31  1  0.49491947  0.17680554  0.03647653  1
  In  In32  1  0.49952025  0.34554182  0.18472637  1
  In  In33  1  0.18329676  0.84866581  0.02222641  1
  In  In34  1  0.15628395  0.00091684  0.84446280  1
  In  In35  1  0.34045625  0.69060169  0.00452940  1
  In  In36  1  0.83189452  0.69505222  0.51504154  1
  In  In37  1  0.82145104  0.15313668  -0.01475540  1
  In  In38  1  0.67138939  0.47154180  0.19137476  1
  In  In39  1  0.63273122  0.33239943  -0.01668232  1
  In  In40  1  0.16597799  0.45511300  0.32660381  1
  In  In41  1  0.82441435  0.83871356  -0.01296726  1
  In  In42  1  0.30819896  0.30486349  0.01932799  1
  In  In43  1  0.64850637  0.01496978  0.31556791  1
  In  In44  1  0.01729216  0.51770853  0.80956155  1
  In  In45  1  0.17926750  0.33037533  0.83074434  1
  In  In46  1  0.35616503  0.00567014  -0.00481096  1
  In  In47  1  0.66539664  0.28819635  0.36670276  1
  In  In48  1  0.83619640  0.16439387  0.64843673  1
  In  In49  1  0.47890279  0.68367668  0.17163069  1
  In  In50  1  0.68433442  0.70142241  0.67954214  1
  In  In51  1  0.31835574  0.03698358  0.32173467  1
  In  In52  1  0.34340460  0.85487469  0.50996182  1
  In  In53  1  0.00493560  0.84409667  0.83398079  1
  In  In54  1  0.16167618  0.02024539  0.48469170  1
  In  In55  1  0.32400173  0.32974410  0.66894719  1
  In  In56  1  0.81562225  -0.01891479  0.49703972  1
  In  In57  1  0.63488947  -0.01610992  0.07058936  1
  In  In58  1  0.63902289  0.69005515  0.00487031  1
  In  In59  1  0.68498551  0.51173535  0.82090126  1
  In  In60  1  0.51215288  0.68902424  0.82668325  1
  In  In61  1  0.33284565  0.50611330  0.16829796  1
  In  In62  1  0.48043230  0.17327016  0.66705618  1
  In  In63  1  0.00754520  0.64262844  -0.02491698  1
  In  In64  1  0.48518365  0.01450125  0.50189722  1
  In  In65  1  0.15340466  0.49164523  -0.02582164  1
  In  In66  1  0.47703544  0.54271067  0.01716327  1
  In  In67  1  0.02063107  0.50863823  0.49307310  1
  In  In68  1  0.35892197  0.33336128  0.35111036  1
  In  In69  1  0.47310358  0.84671551  0.32444449  1
  In  In70  1  0.00187943  0.68697050  0.64916642  1
  In  In71  1  0.67133383  0.82894778  0.50612817  1
  Te  Te72  1  0.08207687  0.06182592  0.14549492  1
  Te  Te73  1  0.07901006  0.10197421  0.39377632  1
  Te  Te74  1  0.06968094  0.04673835  0.73255587  1
  Te  Te75  1  0.11504358  0.38324070  0.07423350  1
  Te  Te76  1  0.07499644  0.38691982  0.42573364  1
  Te  Te77  1  0.09129410  0.40964725  0.73550103  1
  Te  Te78  1  0.06824711  0.73794523  0.08062474  1
  Te  Te79  1  0.08106979  0.76658227  0.40471546  1
  Te  Te80  1  0.09414597  0.76730335  0.73877559  1
  Te  Te81  1  0.42478455  0.07056547  0.11450142  1
  Te  Te82  1  0.44590067  0.10991289  0.38955572  1
  Te  Te83  1  0.42585013  0.08709473  0.77904880  1
  Te  Te84  1  0.41944890  0.41183603  0.06916490  1
  Te  Te85  1  0.41828059  0.46153138  0.38621006  1
  Te  Te86  1  0.40940493  0.42127692  0.75804284  1
  Te  Te87  1  0.41283711  0.78964170  0.09085533  1
  Te  Te88  1  0.41323553  0.74086799  0.42774610  1
  Te  Te89  1  0.41948811  0.75504805  0.73531056  1
  Te  Te90  1  0.74778049  0.08686033  0.09734077  1
  Te  Te91  1  0.72391868  0.08187215  0.42900649  1
  Te  Te92  1  0.75174790  0.08860745  0.75382959  1
  Te  Te93  1  0.75733927  0.41790177  0.07635966  1
  Te  Te94  1  0.76669035  0.41827444  0.40825086  1
  Te  Te95  1  0.73859188  0.40227292  0.74147955  1
  Te  Te96  1  0.74545965  0.75975061  0.08969970  1
  Te  Te97  1  0.73471409  0.73231741  0.41295936  1
  Te  Te98  1  0.72511431  0.80017164  0.77863504  1
  Te  Te99  1  0.05692753  0.29732446  0.22228761  1
  Te  Te100  1  0.09509953  0.21558306  0.60865831  1
  Te  Te101  1  0.08517040  0.23630027  0.91114780  1
  Te  Te102  1  0.09030283  0.56142437  0.23832850  1
  Te  Te103  1  0.10081866  0.58337283  0.59559958  1
  Te  Te104  1  0.12435950  0.61269662  0.87824194  1
  Te  Te105  1  0.09737398  0.93435697  0.23577568  1
  Te  Te106  1  0.08057272  0.90718512  0.53572860  1
  Te  Te107  1  0.07451344  0.92158892  0.94447252  1
  Te  Te108  1  0.40878707  0.24665165  0.24233706  1
  Te  Te109  1  0.41914167  0.26781427  0.56603724  1
  Te  Te110  1  0.40886197  0.23696330  0.92778947  1
  Te  Te111  1  0.44116656  0.55532180  0.26591170  1
  Te  Te112  1  0.40322742  0.56455836  0.57657437  1
  Te  Te113  1  0.40670674  0.60081562  0.89984592  1
  Te  Te114  1  0.40539381  0.94733605  0.24050067  1
  Te  Te115  1  0.44197656  0.91305248  0.60876370  1
  Te  Te116  1  0.43291340  0.91684953  0.90315586  1
  Te  Te117  1  0.74833611  0.22308934  0.26037247  1
  Te  Te118  1  0.74164871  0.25249248  0.57846808  1
  Te  Te119  1  0.75009959  0.26904687  0.91416909  1
  Te  Te120  1  0.76971479  0.58068874  0.22984987  1
  Te  Te121  1  0.75265290  0.58710762  0.59237148  1
  Te  Te122  1  0.73910672  0.62327337  0.90872350  1
  Te  Te123  1  0.74922129  0.91427765  0.27215819  1
  Te  Te124  1  0.73405504  0.91896401  0.60734392  1
  Te  Te125  1  0.72776501  0.94256585  0.94228231  1
  Te  Te126  1  0.25499167  0.20248368  0.11682712  1
  Te  Te127  1  0.24588242  0.24325921  0.40724574  1
  Te  Te128  1  0.25270862  0.23212820  0.75188193  1
  Te  Te129  1  0.24121087  0.58074075  0.07202835  1
  Te  Te130  1  0.23061536  0.57300078  0.40080557  1
  Te  Te131  1  0.22914696  0.58187872  0.76536390  1
  Te  Te132  1  0.25686274  0.95241523  0.09264702  1
  Te  Te133  1  0.25846459  0.92613699  0.41031070  1
  Te  Te134  1  0.25061566  0.91166712  0.76441458  1
  Te  Te135  1  0.60155674  0.25836767  0.10891766  1
  Te  Te136  1  0.54418679  0.22760872  0.41696837  1
  Te  Te137  1  0.57781298  0.25871004  0.75620193  1
  Te  Te138  1  0.59375998  0.58052169  0.10609804  1
  Te  Te139  1  0.61527958  0.60031877  0.39607367  1
  Te  Te140  1  0.58466548  0.58544109  0.73182305  1
  Te  Te141  1  0.55314398  0.85960113  0.07999523  1
  Te  Te142  1  0.57513930  0.91755593  0.41954396  1
  Te  Te143  1  0.63144898  0.91031762  0.74062279  1
  Te  Te144  1  0.91399010  0.24910778  0.06210576  1
  Te  Te145  1  0.93716720  0.19886655  0.44675605  1
  Te  Te146  1  0.90492260  0.25471194  0.75660145  1
  Te  Te147  1  0.94591797  0.54497337  0.07775546  1
  Te  Te148  1  0.92144347  0.59315213  0.41584851  1
  Te  Te149  1  0.91221568  0.60668525  0.74601975  1
  Te  Te150  1  0.91389179  0.92327232  0.07727028  1
  Te  Te151  1  0.88082271  0.91348108  0.38065550  1
  Te  Te152  1  0.93647374  0.93997334  0.74355233  1
  Te  Te153  1  0.22749746  0.12670088  0.24996816  1
  Te  Te154  1  0.25890198  0.07722939  0.59088421  1
  Te  Te155  1  0.24330614  0.08991779  0.92952828  1
  Te  Te156  1  0.26519391  0.39045466  0.23469875  1
  Te  Te157  1  0.25557904  0.41533182  0.57148690  1
  Te  Te158  1  0.27078474  0.41391974  0.91885101  1
  Te  Te159  1  0.26584493  0.76129464  0.25534543  1
  Te  Te160  1  0.25688651  0.75084629  0.58025548  1
  Te  Te161  1  0.25273888  0.77040573  0.92028118  1
  Te  Te162  1  0.57170060  0.05101812  0.19383767  1
  Te  Te163  1  0.57156760  0.08379690  0.59690011  1
  Te  Te164  1  0.58175571  0.08768974  0.94646839  1
  Te  Te165  1  0.58862960  0.40058657  0.29439624  1
  Te  Te166  1  0.57963579  0.39942336  0.55739163  1
  Te  Te167  1  0.57835318  0.45758455  0.91895983  1
  Te  Te168  1  0.57110961  0.76403776  0.25111833  1
  Te  Te169  1  0.57437441  0.74085107  0.58456418  1
  Te  Te170  1  0.55846204  0.78995284  0.92865789  1
  Te  Te171  1  0.93351506  0.10331012  0.23108535  1
  Te  Te172  1  0.91372008  0.07475834  0.55948966  1
  Te  Te173  1  0.92717246  0.07169120  0.91688299  1
  Te  Te174  1  0.92485782  0.35312687  0.28455526  1
  Te  Te175  1  0.91789777  0.42283876  0.57341367  1
  Te  Te176  1  0.91848541  0.43788321  0.89458451  1
  Te  Te177  1  0.90541727  0.74229713  0.24144955  1
  Te  Te178  1  0.91211259  0.78803746  0.59186762  1
  Te  Te179  1  0.91685181  0.74427462  0.90889417  1
