# generated using pymatgen
data_In2Te3
_symmetry_space_group_name_H-M   'P 1'
_cell_length_a   18.96435912
_cell_length_b   18.95865244
_cell_length_c   18.95625874
_cell_angle_alpha   90.20486353
_cell_angle_beta   90.04746074
_cell_angle_gamma   90.18486574
_symmetry_Int_Tables_number   1
_chemical_formula_structural   In2Te3
_chemical_formula_sum   'In72 Te108'
_cell_volume   6815.42705008
_cell_formula_units_Z   36
loop_
 _symmetry_equiv_pos_site_id
 _symmetry_equiv_pos_as_xyz
  1  'x, y, z'
loop_
 _atom_site_type_symbol
 _atom_site_label
 _atom_site_symmetry_multiplicity
 _atom_site_fract_x
 _atom_site_fract_y
 _atom_site_fract_z
 _atom_site_occupancy
  In  In0  1  0.52020744  -0.02006788  0.79692285  1
  In  In1  1  0.80180709  0.33610852  0.49752610  1
  In  In2  1  0.17337142  0.31417237  0.84401744  1
  In  In3  1  0.67758602  0.34981689  -0.00637170  1
  In  In4  1  0.50521895  0.01260319  0.15180700  1
  In  In5  1  0.82169908  0.49927725  -0.01553822  1
  In  In6  1  0.70396500  0.00694503  0.36443886  1
  In  In7  1  0.36036189  0.48441458  0.50977844  1
  In  In8  1  0.82230029  0.01024306  0.18286887  1
  In  In9  1  0.16466989  0.81460083  0.67468653  1
  In  In10  1  0.51810087  0.83890917  0.34044247  1
  In  In11  1  0.63450212  0.63880681  0.38952886  1
  In  In12  1  0.83908731  0.00693229  0.82434428  1
  In  In13  1  -0.03472504  0.84002655  0.48120806  1
  In  In14  1  0.66959255  0.18885633  0.19952884  1
  In  In15  1  0.68689630  0.86470983  0.15988807  1
  In  In16  1  0.14070421  0.52744838  0.34026449  1
  In  In17  1  0.32730913  0.82899808  0.85033296  1
  In  In18  1  0.67351052  0.66406558  -0.02654855  1
  In  In19  1  0.51260054  0.79717869  -0.01130268  1
  In  In20  1  0.33790998  0.49262280  0.18040350  1
  In  In21  1  -0.00111884  0.16302493  0.49507357  1
  In  In22  1  0.31708392  0.65257449  0.01928192  1
  In  In23  1  0.62498911  0.48826804  0.19696566  1
  In  In24  1  0.33670775  0.50592173  0.82889635  1
  In  In25  1  0.83930451  0.35214127  0.82486995  1
  In  In26  1  -0.02950013  0.81249476  0.16818667  1
  In  In27  1  0.17535945  0.17514375  0.01301399  1
  In  In28  1  0.67878507  0.02482778  0.65833896  1
  In  In29  1  0.52673449  0.41754234  0.65793190  1
  In  In30  1  0.18826776  0.34599004  0.49492185  1
  In  In31  1  0.32835561  -0.02276865  0.66793184  1
  In  In32  1  0.82834813  0.17896100  0.33293333  1
  In  In33  1  0.51892212  0.17665463  0.35576658  1
  In  In34  1  0.48708099  0.66516884  0.17817411  1
  In  In35  1  0.34870566  0.16488198  0.84402724  1
  In  In36  1  0.00626083  0.68010947  -0.00545084  1
  In  In37  1  0.79026939  0.81682920  0.64493180  1
  In  In38  1  0.16069998  0.65334854  0.51967190  1
  In  In39  1  0.16523241  0.00189051  0.51893082  1
  In  In40  1  0.17936211  0.17147263  0.36062047  1
  In  In41  1  0.83330599  0.64482947  0.47757764  1
  In  In42  1  0.32774408  0.01547374  -0.02019602  1
  In  In43  1  0.53207936  0.01362564  0.50281664  1
  In  In44  1  -0.01118231  0.34968293  0.65120711  1
  In  In45  1  0.15386674  0.80343087  0.32560710  1
  In  In46  1  0.16009177  0.50556063  0.66663002  1
  In  In47  1  0.16669063  0.16159168  0.68579955  1
  In  In48  1  0.36609838  0.81800083  0.48795460  1
  In  In49  1  0.82241924  0.65722439  0.18464543  1
  In  In50  1  0.13008677  0.49545855  0.00673396  1
  In  In51  1  0.14895009  0.84149929  0.00764737  1
  In  In52  1  -0.03629766  0.01126231  0.63946733  1
  In  In53  1  0.68871685  0.01414348  -0.03258150  1
  In  In54  1  0.64085094  0.50996174  0.78083275  1
  In  In55  1  -0.00174854  0.36848616  0.31915522  1
  In  In56  1  0.83129449  0.19591041  -0.00439661  1
  In  In57  1  0.33019741  -0.01095756  0.34848969  1
  In  In58  1  0.48801479  0.49778867  -0.00456711  1
  In  In59  1  0.34469176  0.32259533  0.00490909  1
  In  In60  1  0.15185746  0.35662378  0.16911003  1
  In  In61  1  0.54094865  0.67670451  0.73575839  1
  In  In62  1  0.15288009  -0.00985051  0.19090947  1
  In  In63  1  0.52398977  0.15710087  -0.00022042  1
  In  In64  1  -0.05034775  0.63192706  0.69404539  1
  In  In65  1  0.29288895  0.82867746  0.20253300  1
  In  In66  1  0.36086423  0.32387197  0.32577659  1
  In  In67  1  0.83707035  0.85369040  -0.01841303  1
  In  In68  1  0.00272840  0.83234790  0.82770618  1
  In  In69  1  0.00386104  0.17061051  0.84278870  1
  In  In70  1  -0.01203253  0.17689120  0.15992074  1
  In  In71  1  0.36759840  0.63552999  0.66310694  1
  Te  Te72  1  0.08383977  0.08112461  0.09040069  1
  Te  Te73  1  0.08067915  0.06588285  0.41182538  1
  Te  Te74  1  0.06102990  0.06926997  0.74259508  1
  Te  Te75  1  0.04400544  0.43259887  0.10745435  1
  Te  Te76  1  0.07693442  0.42873932  0.43707806  1
  Te  Te77  1  0.08966758  0.40316450  0.75408444  1
  Te  Te78  1  0.09025551  0.74345892  0.10628110  1
  Te  Te79  1  0.06986052  0.73775599  0.43232986  1
  Te  Te80  1  0.06827315  0.72338198  0.74531046  1
  Te  Te81  1  0.40590598  0.10090029  0.07856463  1
  Te  Te82  1  0.41935351  0.08240225  0.42679893  1
  Te  Te83  1  0.41879407  0.07773039  0.74041549  1
  Te  Te84  1  0.43236630  0.40399695  0.10033995  1
  Te  Te85  1  0.44719824  0.40121409  0.42130186  1
  Te  Te86  1  0.42086308  0.40534737  0.76879822  1
  Te  Te87  1  0.39940311  0.76064990  0.09140986  1
  Te  Te88  1  0.42048227  0.73588370  0.38021451  1
  Te  Te89  1  0.40936824  0.76024599  0.74651949  1
  Te  Te90  1  0.74091343  0.09563741  0.08614113  1
  Te  Te91  1  0.73063930  0.13407995  0.43579194  1
  Te  Te92  1  0.76301225  0.10556739  0.75013715  1
  Te  Te93  1  0.73384862  0.44467272  0.09779918  1
  Te  Te94  1  0.73730774  0.38133699  0.37021558  1
  Te  Te95  1  0.73649657  0.40320608  0.72945472  1
  Te  Te96  1  0.75292403  0.75618980  0.07298239  1
  Te  Te97  1  0.72444701  0.73901491  0.44794364  1
  Te  Te98  1  0.76296972  0.70475156  0.73432091  1
  Te  Te99  1  0.08584363  0.24693081  0.26601781  1
  Te  Te100  1  0.09684919  0.24997665  0.58250226  1
  Te  Te101  1  0.07228510  0.26252139  0.94442558  1
  Te  Te102  1  0.02694321  0.58855439  0.26824299  1
  Te  Te103  1  0.05143366  0.57458677  0.58902908  1
  Te  Te104  1  0.08549082  0.59184662  0.90857160  1
  Te  Te105  1  0.05655480  0.90261285  0.26487226  1
  Te  Te106  1  0.07398194  0.90321738  0.58903040  1
  Te  Te107  1  0.06492456  0.92427841  0.92331391  1
  Te  Te108  1  0.43722371  0.22755766  0.24601921  1
  Te  Te109  1  0.46794780  0.29956515  0.58502867  1
  Te  Te110  1  0.44679063  0.25739791  0.91406683  1
  Te  Te111  1  0.44099588  0.55685726  0.26467622  1
  Te  Te112  1  0.45280602  0.60278731  0.54115173  1
  Te  Te113  1  0.41627194  0.60412505  0.91537166  1
  Te  Te114  1  0.42167657  0.92249200  0.24446251  1
  Te  Te115  1  0.43389607  0.91794388  0.57731847  1
  Te  Te116  1  0.42966639  0.92275618  0.91685157  1
  Te  Te117  1  0.79092132  0.27108189  0.22257204  1
  Te  Te118  1  0.71589304  0.29529310  0.61391748  1
  Te  Te119  1  0.73762073  0.25298346  0.89386975  1
  Te  Te120  1  0.71451473  0.58669194  0.27028874  1
  Te  Te121  1  0.78432577  0.54562515  0.57739761  1
  Te  Te122  1  0.74698881  0.57484922  0.87669275  1
  Te  Te123  1  0.77561456  0.90090265  0.27660512  1
  Te  Te124  1  0.77066145  0.94281983  0.56654417  1
  Te  Te125  1  0.73662166  0.90155065  0.87988868  1
  Te  Te126  1  0.25441660  0.26020474  0.11043882  1
  Te  Te127  1  0.28596124  0.24680032  0.43793736  1
  Te  Te128  1  0.27212386  0.25393793  0.74681430  1
  Te  Te129  1  0.22932087  0.56502898  0.10463061  1
  Te  Te130  1  0.25333418  0.56989834  0.43525525  1
  Te  Te131  1  0.24689813  0.59854574  0.75052888  1
  Te  Te132  1  0.25623412  0.93060324  0.08379461  1
  Te  Te133  1  0.23861372  0.89787692  0.42807314  1
  Te  Te134  1  0.23235245  0.91443521  0.76764587  1
  Te  Te135  1  0.59582202  0.25945396  0.08618139  1
  Te  Te136  1  0.63000866  0.26511989  0.40383638  1
  Te  Te137  1  0.56294802  0.27018900  0.69314185  1
  Te  Te138  1  0.58024125  0.59427171  0.07298613  1
  Te  Te139  1  0.57568238  0.51697285  0.45119201  1
  Te  Te140  1  0.66183987  0.62253980  0.65053228  1
  Te  Te141  1  0.58999540  0.92781001  0.05734749  1
  Te  Te142  1  0.61291183  0.90396800  0.43729026  1
  Te  Te143  1  0.60707606  0.90428030  0.70832595  1
  Te  Te144  1  0.90556546  0.27986087  0.09277867  1
  Te  Te145  1  0.92730946  0.27387145  0.41670702  1
  Te  Te146  1  0.92106709  0.25123300  0.74463397  1
  Te  Te147  1  0.90223716  0.59696576  0.07031571  1
  Te  Te148  1  0.91796224  0.56717839  0.38163861  1
  Te  Te149  1  0.91659110  0.51698490  0.77926274  1
  Te  Te150  1  0.91224623  0.92852247  0.08927634  1
  Te  Te151  1  0.87413960  0.94858604  0.45162924  1
  Te  Te152  1  0.90203151  0.89990742  0.73201471  1
  Te  Te153  1  0.25267599  0.08329135  0.25895508  1
  Te  Te154  1  0.26286886  0.09130242  0.58932436  1
  Te  Te155  1  0.22628445  0.09088574  0.89722081  1
  Te  Te156  1  0.23925733  0.41715861  0.27908846  1
  Te  Te157  1  0.26550757  0.41461222  0.60607885  1
  Te  Te158  1  0.25269950  0.41856039  0.93179623  1
  Te  Te159  1  0.24438522  0.70555160  0.26321772  1
  Te  Te160  1  0.26682474  0.74508337  0.58553804  1
  Te  Te161  1  0.23239149  0.74130702  0.92827263  1
  Te  Te162  1  0.59923977  0.06150876  0.26133557  1
  Te  Te163  1  0.58163010  0.11802465  0.59392334  1
  Te  Te164  1  0.59016229  0.08917349  0.88113461  1
  Te  Te165  1  0.60348133  0.37427809  0.28872055  1
  Te  Te166  1  0.64339088  0.42741235  0.55814270  1
  Te  Te167  1  0.58667830  0.43055689  0.90313486  1
  Te  Te168  1  0.59254995  0.76709937  0.22869178  1
  Te  Te169  1  0.54473097  0.71923127  0.59141550  1
  Te  Te170  1  0.58895206  0.73808169  0.87273907  1
  Te  Te171  1  0.92664461  0.08457437  0.26371791  1
  Te  Te172  1  0.89017599  0.12477008  0.58515796  1
  Te  Te173  1  0.91455960  0.08640300  0.93229531  1
  Te  Te174  1  0.91656669  0.47430068  0.25449665  1
  Te  Te175  1  0.89293154  0.43211824  0.57227244  1
  Te  Te176  1  0.93362414  0.43110345  0.90978444  1
  Te  Te177  1  0.90079224  0.74145373  0.27692007  1
  Te  Te178  1  0.91259115  0.73996956  0.58427453  1
  Te  Te179  1  0.90318620  0.74362405  0.90223741  1
