# generated using pymatgen
data_In2Te3
_symmetry_space_group_name_H-M   'P 1'
_cell_length_a   18.85620950
_cell_length_b   18.86620141
_cell_length_c   18.85232720
_cell_angle_alpha   89.90824394
_cell_angle_beta   89.89666621
_cell_angle_gamma   89.91083972
_symmetry_Int_Tables_number   1
_chemical_formula_structural   In2Te3
_chemical_formula_sum   'In72 Te108'
_cell_volume   6706.59441217
_cell_formula_units_Z   36
loop_
 _symmetry_equiv_pos_site_id
 _symmetry_equiv_pos_as_xyz
  1  'x, y, z'
loop_
 _atom_site_type_symbol
 _atom_site_label
 _atom_site_symmetry_multiplicity
 _atom_site_fract_x
 _atom_site_fract_y
 _atom_site_fract_z
 _atom_site_occupancy
  In  In0  1  -0.00308962  0.64366229  0.31224283  1
  In  In1  1  0.68110324  0.00307243  0.31405528  1
  In  In2  1  -0.03564052  0.66085379  0.68117191  1
  In  In3  1  0.68364492  0.49461506  0.48992722  1
  In  In4  1  0.33329878  0.14922416  0.14494013  1
  In  In5  1  0.35808499  0.33589884  -0.01186770  1
  In  In6  1  0.51171119  0.29860183  0.49645799  1
  In  In7  1  0.14065770  0.52133542  0.33565151  1
  In  In8  1  0.51818548  0.16691039  0.32944019  1
  In  In9  1  0.69274414  0.18987416  0.15103634  1
  In  In10  1  -0.01626201  0.15828422  0.48726488  1
  In  In11  1  0.15672286  -0.00218775  0.84385206  1
  In  In12  1  0.15127885  -0.00577589  0.49624758  1
  In  In13  1  0.33566995  0.51177940  0.83268292  1
  In  In14  1  -0.01507181  0.83630663  0.14443521  1
  In  In15  1  0.66587132  0.83900789  0.50309053  1
  In  In16  1  -0.01607885  0.84054082  0.86546863  1
  In  In17  1  0.52943777  0.67255378  0.14803153  1
  In  In18  1  0.15003970  0.16106204  0.03057616  1
  In  In19  1  -0.00479984  0.33319745  0.67672254  1
  In  In20  1  0.82434781  0.85495517  0.33576583  1
  In  In21  1  -0.02107709  0.67086623  0.00126191  1
  In  In22  1  0.84271673  0.49916274  0.67388496  1
  In  In23  1  0.52331144  0.84126737  0.01250319  1
  In  In24  1  0.14236841  0.85053892  0.31274083  1
  In  In25  1  -0.00439371  0.48074290  0.50938788  1
  In  In26  1  0.83278761  0.85074262  0.70304185  1
  In  In27  1  0.31546278  0.64884120  0.36091357  1
  In  In28  1  0.12902497  0.63365015  0.51274994  1
  In  In29  1  0.52115544  0.33801987  0.84520865  1
  In  In30  1  0.51418857  0.64749964  0.50916335  1
  In  In31  1  0.33707809  0.17928380  0.48840307  1
  In  In32  1  0.51504337  0.02440081  0.50827170  1
  In  In33  1  0.85152455  0.00104214  0.15083066  1
  In  In34  1  0.31259117  0.51468573  0.15833596  1
  In  In35  1  0.33801047  0.00629007  -0.00074025  1
  In  In36  1  0.16515319  0.83547385  0.67172610  1
  In  In37  1  0.04066954  0.84308254  0.52370876  1
  In  In38  1  0.83535609  0.30905377  0.87988810  1
  In  In39  1  0.50349848  0.49253539  0.31901364  1
  In  In40  1  0.85641398  0.46552625  0.29684091  1
  In  In41  1  -0.04470335  0.03042738  0.29370280  1
  In  In42  1  0.53619620  -0.00263597  0.85812918  1
  In  In43  1  0.32660796  0.84927772  0.14570016  1
  In  In44  1  0.33725877  0.68115203  0.68362263  1
  In  In45  1  0.51716677  0.32240238  0.16523775  1
  In  In46  1  0.13277749  0.31773302  0.84991828  1
  In  In47  1  0.85485104  -0.00185337  0.49934251  1
  In  In48  1  0.70003118  0.51425938  0.85986587  1
  In  In49  1  0.14745844  0.49835618  0.01335602  1
  In  In50  1  0.12029359  0.31848535  0.17237396  1
  In  In51  1  0.16661075  0.67172155  0.16887131  1
  In  In52  1  0.48894637  0.82417300  0.69723354  1
  In  In53  1  0.17103616  0.67157644  0.85038570  1
  In  In54  1  0.67609497  0.32772413  0.65713836  1
  In  In55  1  0.69296397  0.48329835  0.15806431  1
  In  In56  1  0.50280856  0.82706766  0.29408851  1
  In  In57  1  0.32070817  0.34033322  0.34290302  1
  In  In58  1  0.32287215  -0.00098871  0.28827225  1
  In  In59  1  0.33201194  0.19489726  0.82084670  1
  In  In60  1  0.34190236  0.83011462  0.50621139  1
  In  In61  1  0.18604252  0.33079614  0.50490616  1
  In  In62  1  0.50873257  0.49943127  -0.02878394  1
  In  In63  1  0.81905813  0.65983027  0.51662362  1
  In  In64  1  0.51841432  0.50193637  0.70722485  1
  In  In65  1  0.30708460  -0.01102414  0.69379858  1
  In  In66  1  0.67708540  0.85444487  0.84684684  1
  In  In67  1  0.83464238  0.15525884  0.30272991  1
  In  In68  1  0.50350303  0.16017936  0.66670581  1
  In  In69  1  0.15839987  0.15614635  0.69078980  1
  In  In70  1  0.79937561  0.68524644  0.13546714  1
  In  In71  1  0.80518822  0.15774354  0.70031131  1
  Te  Te72  1  0.03841134  0.07069174  0.06840403  1
  Te  Te73  1  0.06900570  0.07050783  0.39586301  1
  Te  Te74  1  0.06495778  0.10426435  0.79306768  1
  Te  Te75  1  0.05978524  0.38806602  0.05766965  1
  Te  Te76  1  0.08243487  0.40396475  0.41313841  1
  Te  Te77  1  0.05517870  0.42016866  0.77853498  1
  Te  Te78  1  0.08910310  0.75513635  0.06866708  1
  Te  Te79  1  0.08802997  0.73648574  0.40155797  1
  Te  Te80  1  0.06570944  0.75137243  0.75201406  1
  Te  Te81  1  0.44162178  0.08321001  0.07203515  1
  Te  Te82  1  0.41070627  0.07348644  0.40491901  1
  Te  Te83  1  0.41405286  0.07469364  0.76222148  1
  Te  Te84  1  0.42426979  0.43227119  0.09461630  1
  Te  Te85  1  0.42777298  0.41071424  0.42311177  1
  Te  Te86  1  0.41368207  0.40323877  0.75823821  1
  Te  Te87  1  0.41786525  0.74773599  0.07725662  1
  Te  Te88  1  0.43259553  0.74798901  0.41507432  1
  Te  Te89  1  0.42574128  0.72982976  0.79162454  1
  Te  Te90  1  0.77480886  0.09558669  0.06510614  1
  Te  Te91  1  0.75705627  0.08085784  0.41694233  1
  Te  Te92  1  0.74810378  0.05435850  0.79812081  1
  Te  Te93  1  0.78986010  0.40802861  0.07110452  1
  Te  Te94  1  0.77328900  0.41233285  0.40748397  1
  Te  Te95  1  0.75696458  0.40387218  0.76005685  1
  Te  Te96  1  0.70680992  0.77041620  0.05015766  1
  Te  Te97  1  0.74659689  0.74694947  0.41233524  1
  Te  Te98  1  0.73709695  0.75381774  0.75336196  1
  Te  Te99  1  0.03280056  0.24973501  0.27253135  1
  Te  Te100  1  0.08254911  0.23665086  0.58335569  1
  Te  Te101  1  0.05511408  0.21777149  0.92806298  1
  Te  Te102  1  0.06844912  0.56134888  0.20562907  1
  Te  Te103  1  0.06200644  0.55579571  0.62379363  1
  Te  Te104  1  0.06661653  0.58050410  0.91361946  1
  Te  Te105  1  0.06324833  0.94041206  0.22305921  1
  Te  Te106  1  0.07780230  0.95299312  0.62306939  1
  Te  Te107  1  0.07570959  0.92726968  0.94575502  1
  Te  Te108  1  0.41096247  0.25242498  0.25263273  1
  Te  Te109  1  0.40448376  0.25646444  0.59897859  1
  Te  Te110  1  0.44171791  0.22926476  0.92171289  1
  Te  Te111  1  0.41303007  0.59287052  0.24692215  1
  Te  Te112  1  0.42355234  0.57943518  0.60821965  1
  Te  Te113  1  0.41404515  0.60015272  0.92096645  1
  Te  Te114  1  0.43775676  0.93444857  0.20985173  1
  Te  Te115  1  0.42101912  0.92756908  0.59013265  1
  Te  Te116  1  0.42683987  0.91323383  0.91696882  1
  Te  Te117  1  0.78212380  0.27422545  0.23216413  1
  Te  Te118  1  0.75888944  0.23249715  0.58035197  1
  Te  Te119  1  0.72944736  0.21132471  0.92403775  1
  Te  Te120  1  0.76704856  0.58136755  0.24794519  1
  Te  Te121  1  0.72932840  0.58030916  0.60849229  1
  Te  Te122  1  0.79584532  0.60672443  0.92804792  1
  Te  Te123  1  0.74441145  0.90616691  0.21665132  1
  Te  Te124  1  0.75574265  0.92501419  0.58901084  1
  Te  Te125  1  0.78736384  0.94090036  0.91000705  1
  Te  Te126  1  0.25750050  0.26853028  0.08205694  1
  Te  Te127  1  0.23002102  0.22862322  0.39337135  1
  Te  Te128  1  0.23481572  0.27767905  0.73884155  1
  Te  Te129  1  0.24904183  0.60604478  0.05604787  1
  Te  Te130  1  0.24751476  0.54523994  0.45440530  1
  Te  Te131  1  0.23561647  0.58360404  0.74288602  1
  Te  Te132  1  0.23263279  0.93750701  0.07694479  1
  Te  Te133  1  0.25356701  0.91179065  0.41154409  1
  Te  Te134  1  0.25530662  0.87644425  0.79124156  1
  Te  Te135  1  0.59798597  0.26103747  0.06005374  1
  Te  Te136  1  0.61381098  0.24696172  0.40506833  1
  Te  Te137  1  0.59668201  0.24142338  0.75575491  1
  Te  Te138  1  0.60641214  0.57086072  0.06704810  1
  Te  Te139  1  0.59661926  0.58345420  0.39890904  1
  Te  Te140  1  0.59591004  0.59449878  0.78883049  1
  Te  Te141  1  0.64190956  0.90956021  0.06507900  1
  Te  Te142  1  0.57859905  0.92117488  0.40468045  1
  Te  Te143  1  0.59108509  0.92777516  0.73499202  1
  Te  Te144  1  0.88186184  0.29033748  0.02745223  1
  Te  Te145  1  0.90388858  0.24669879  0.40067625  1
  Te  Te146  1  0.91381583  0.24184917  0.76579205  1
  Te  Te147  1  0.90183562  0.58603669  0.09635316  1
  Te  Te148  1  0.91244033  0.57902634  0.42435063  1
  Te  Te149  1  0.89137942  0.58481174  0.78683969  1
  Te  Te150  1  0.88917985  0.89802899  0.04854264  1
  Te  Te151  1  0.94492954  0.90752421  0.41334314  1
  Te  Te152  1  0.94131790  0.93166661  0.75744588  1
  Te  Te153  1  0.22720010  0.09414695  0.23222101  1
  Te  Te154  1  0.25400783  0.08219907  0.57742727  1
  Te  Te155  1  0.24802282  0.10806339  0.91415754  1
  Te  Te156  1  0.23116033  0.42146850  0.24699121  1
  Te  Te157  1  0.24015538  0.44481404  0.57449188  1
  Te  Te158  1  0.24735319  0.41574325  0.91906085  1
  Te  Te159  1  0.26016444  0.75598392  0.25791164  1
  Te  Te160  1  0.23655262  0.73886851  0.56851862  1
  Te  Te161  1  0.24674973  0.78007946  0.90872943  1
  Te  Te162  1  0.59398007  0.08823424  0.22530281  1
  Te  Te163  1  0.61275169  0.09826329  0.58725394  1
  Te  Te164  1  0.62661517  0.09440197  0.91667304  1
  Te  Te165  1  0.60849642  0.40178944  0.25652798  1
  Te  Te166  1  0.57667311  0.41764043  0.58187825  1
  Te  Te167  1  0.62307365  0.40546966  0.93618659  1
  Te  Te168  1  0.61280562  0.74448254  0.24472227  1
  Te  Te169  1  0.58291637  0.75064038  0.59556046  1
  Te  Te170  1  0.60554380  0.74595798  0.92735367  1
  Te  Te171  1  0.96313061  0.14180035  0.17962369  1
  Te  Te172  1  0.91370911  0.09028989  0.60386468  1
  Te  Te173  1  0.84464948  0.08794840  0.91095861  1
  Te  Te174  1  0.96487332  0.38404741  0.23201100  1
  Te  Te175  1  0.89381808  0.39142366  0.57807392  1
  Te  Te176  1  0.89205255  0.42897422  0.95078939  1
  Te  Te177  1  0.90865127  0.75268127  0.24939556  1
  Te  Te178  1  0.91680098  0.76216000  0.57394563  1
  Te  Te179  1  0.87883760  0.73999371  0.91095145  1
