# generated using pymatgen
data_In2Te3
_symmetry_space_group_name_H-M   'P 1'
_cell_length_a   18.86441717
_cell_length_b   18.86070261
_cell_length_c   18.86261329
_cell_angle_alpha   90.00303319
_cell_angle_beta   90.07646172
_cell_angle_gamma   90.12722972
_symmetry_Int_Tables_number   1
_chemical_formula_structural   In2Te3
_chemical_formula_sum   'In72 Te108'
_cell_volume   6711.22288807
_cell_formula_units_Z   36
loop_
 _symmetry_equiv_pos_site_id
 _symmetry_equiv_pos_as_xyz
  1  'x, y, z'
loop_
 _atom_site_type_symbol
 _atom_site_label
 _atom_site_symmetry_multiplicity
 _atom_site_fract_x
 _atom_site_fract_y
 _atom_site_fract_z
 _atom_site_occupancy
  In  In0  1  0.31439678  -0.01556548  -0.00625711  1
  In  In1  1  0.33225710  0.81308311  0.84733070  1
  In  In2  1  0.17729117  0.81497254  -0.01048477  1
  In  In3  1  0.33839765  0.82281339  0.16089357  1
  In  In4  1  0.02758578  0.34253714  0.65945102  1
  In  In5  1  0.32635371  0.19024141  0.19757210  1
  In  In6  1  0.00856826  0.83476924  0.80747464  1
  In  In7  1  0.31567059  0.00804468  0.33580517  1
  In  In8  1  0.01678794  0.68639600  0.65954069  1
  In  In9  1  -0.03627135  0.01926530  0.01068108  1
  In  In10  1  0.82296415  0.68926305  0.16600238  1
  In  In11  1  -0.00655214  0.00934126  0.32770591  1
  In  In12  1  0.66232924  0.81183258  0.18483148  1
  In  In13  1  0.82026564  0.34283805  0.16318733  1
  In  In14  1  0.65801707  -0.00532488  0.64494292  1
  In  In15  1  0.80057701  0.48778225  -0.00205536  1
  In  In16  1  0.03211084  0.00622904  0.66100686  1
  In  In17  1  0.02757786  0.66049125  0.32186634  1
  In  In18  1  0.35242147  0.03959737  0.69689253  1
  In  In19  1  0.85196926  0.17923050  0.33598584  1
  In  In20  1  0.66681025  0.34211429  0.32790019  1
  In  In21  1  0.33335486  0.83214912  0.49245628  1
  In  In22  1  0.01205341  0.33474338  0.00435646  1
  In  In23  1  0.03480097  0.46120236  0.81302380  1
  In  In24  1  0.51836402  0.80538530  0.33240054  1
  In  In25  1  0.00215829  0.19554980  0.49973187  1
  In  In26  1  0.84542975  0.01805361  0.84970134  1
  In  In27  1  0.16969786  0.84332623  0.66074360  1
  In  In28  1  0.20467628  0.36412493  0.50645405  1
  In  In29  1  0.00290125  0.52511658  0.17269733  1
  In  In30  1  0.82233318  0.64559238  0.82746119  1
  In  In31  1  0.33061414  0.17353411  0.53623055  1
  In  In32  1  0.01531945  0.49513634  0.48167632  1
  In  In33  1  0.63625530  0.47317699  0.82812094  1
  In  In34  1  0.15438677  0.01327230  0.83620880  1
  In  In35  1  0.18667023  0.64920257  0.50608611  1
  In  In36  1  0.01629775  0.17364492  0.16856427  1
  In  In37  1  0.51151959  -0.00090328  0.50287428  1
  In  In38  1  0.49766113  0.17645854  0.00193897  1
  In  In39  1  0.48914400  0.00697234  0.16257612  1
  In  In40  1  0.83212483  0.84525142  -0.00033117  1
  In  In41  1  0.49242035  0.48815127  0.66814414  1
  In  In42  1  0.83629452  0.52688842  0.64475892  1
  In  In43  1  0.18311484  0.50476057  0.00157670  1
  In  In44  1  0.47550400  0.20313324  0.32992546  1
  In  In45  1  0.66678070  0.85229011  0.84554716  1
  In  In46  1  0.65814311  0.34448412  0.65540001  1
  In  In47  1  0.66278597  0.15986904  0.51383680  1
  In  In48  1  0.84527460  0.81018854  0.65311133  1
  In  In49  1  0.48995644  0.82472573  0.69145224  1
  In  In50  1  0.81347301  0.32473429  0.85036274  1
  In  In51  1  0.64916604  0.16081098  0.85065479  1
  In  In52  1  0.01227529  0.65553435  -0.01287103  1
  In  In53  1  0.66048917  -0.01132755  0.31153673  1
  In  In54  1  0.48955938  0.50208191  -0.01587516  1
  In  In55  1  0.35841922  0.61360554  0.31224144  1
  In  In56  1  0.82758427  0.19032373  0.67818696  1
  In  In57  1  0.18067791  0.18568556  -0.00987961  1
  In  In58  1  0.64560127  0.49688415  0.16202119  1
  In  In59  1  0.83866597  -0.00809574  0.50300382  1
  In  In60  1  0.16045141  0.84639993  0.32860779  1
  In  In61  1  0.49757300  0.82244025  0.00221800  1
  In  In62  1  0.68889220  0.16692177  0.07507487  1
  In  In63  1  0.35259928  0.32543439  0.00937100  1
  In  In64  1  0.15940189  0.18031098  0.34834441  1
  In  In65  1  0.50579440  0.62830216  0.50188687  1
  In  In66  1  0.46165236  0.35769740  0.50205643  1
  In  In67  1  0.82560341  0.49246354  0.32653440  1
  In  In68  1  0.81174121  0.80416729  0.34974415  1
  In  In69  1  0.17446422  0.65934146  0.16414105  1
  In  In70  1  0.34772069  0.47949478  0.82294695  1
  In  In71  1  0.65316060  0.64755223  0.65108255  1
  Te  Te72  1  0.09220933  0.08870800  0.06732605  1
  Te  Te73  1  0.07824480  0.08195954  0.43206955  1
  Te  Te74  1  0.08000585  0.10872632  0.75173988  1
  Te  Te75  1  0.09148630  0.42600887  0.09545966  1
  Te  Te76  1  0.09697992  0.39585580  0.40918944  1
  Te  Te77  1  0.15335268  0.40423995  0.72871358  1
  Te  Te78  1  0.07676972  0.74753594  0.08828538  1
  Te  Te79  1  0.09750939  0.74539944  0.42611658  1
  Te  Te80  1  0.11753913  0.74044793  0.76450623  1
  Te  Te81  1  0.38421353  0.08876941  0.08912132  1
  Te  Te82  1  0.41508626  0.08733116  0.42164552  1
  Te  Te83  1  0.41957073  0.13096081  0.78687567  1
  Te  Te84  1  0.39832986  0.44379405  0.09320454  1
  Te  Te85  1  0.39591839  0.45418824  0.40447644  1
  Te  Te86  1  0.43155690  0.37943430  0.75020548  1
  Te  Te87  1  0.42827000  0.72725985  0.09499887  1
  Te  Te88  1  0.41217881  0.72870415  0.41389141  1
  Te  Te89  1  0.39759806  0.72617817  0.74808690  1
  Te  Te90  1  0.76394336  0.04390626  0.07248494  1
  Te  Te91  1  0.74649905  0.07929589  0.41462243  1
  Te  Te92  1  0.74366327  0.08050343  0.74204564  1
  Te  Te93  1  0.70961375  0.39212825  0.06988864  1
  Te  Te94  1  0.74517789  0.41852241  0.42539038  1
  Te  Te95  1  0.76251980  0.42924171  0.74472691  1
  Te  Te96  1  0.73219826  0.74879267  0.05963462  1
  Te  Te97  1  0.70712920  0.71766016  0.40739970  1
  Te  Te98  1  0.74056157  0.75021460  0.74855879  1
  Te  Te99  1  0.08411123  0.26923174  0.25866244  1
  Te  Te100  1  0.11985562  0.25366611  0.57653353  1
  Te  Te101  1  0.08974172  0.26387015  0.89624141  1
  Te  Te102  1  0.12054462  0.55500742  0.26498635  1
  Te  Te103  1  0.08898869  0.57069131  0.59263663  1
  Te  Te104  1  0.10118361  0.57735354  0.89496785  1
  Te  Te105  1  0.08003008  0.92915526  0.23894108  1
  Te  Te106  1  0.05908903  0.89167765  0.57599413  1
  Te  Te107  1  0.07514706  0.91267326  0.92048428  1
  Te  Te108  1  0.42212876  0.30361043  0.23147680  1
  Te  Te109  1  0.40303832  0.27764746  0.61438052  1
  Te  Te110  1  0.41078147  0.24193060  0.89728584  1
  Te  Te111  1  0.44537815  0.53200184  0.22476325  1
  Te  Te112  1  0.39583691  0.57243476  0.58763870  1
  Te  Te113  1  0.39226761  0.59093177  0.91153955  1
  Te  Te114  1  0.41659247  0.91284034  0.27030161  1
  Te  Te115  1  0.41050062  0.92322671  0.58946387  1
  Te  Te116  1  0.42160665  0.92006871  0.91041510  1
  Te  Te117  1  0.74321492  0.23845568  0.24614940  1
  Te  Te118  1  0.75733356  0.26666594  0.56771273  1
  Te  Te119  1  0.75147251  0.22560441  0.94419532  1
  Te  Te120  1  0.74131144  0.58793609  0.24346628  1
  Te  Te121  1  0.75636179  0.61017401  0.55155926  1
  Te  Te122  1  0.71695660  0.58085299  0.91330385  1
  Te  Te123  1  0.76666090  0.90747126  0.24348609  1
  Te  Te124  1  0.74434235  0.89329847  0.57124644  1
  Te  Te125  1  0.73692469  0.95968801  0.94108080  1
  Te  Te126  1  0.24072225  0.27260770  0.10052769  1
  Te  Te127  1  0.27921913  0.25214865  0.41343647  1
  Te  Te128  1  0.21487686  0.28582926  0.80061944  1
  Te  Te129  1  0.27305315  0.56616407  0.10378929  1
  Te  Te130  1  0.25861061  0.55909989  0.40951053  1
  Te  Te131  1  0.25464218  0.54302554  0.72431527  1
  Te  Te132  1  0.23189977  0.91088689  0.09786907  1
  Te  Te133  1  0.23216229  0.93072638  0.43660617  1
  Te  Te134  1  0.25450125  0.92191797  0.76144199  1
  Te  Te135  1  0.56989730  0.24343858  0.11144613  1
  Te  Te136  1  0.57118471  0.25816514  0.43635960  1
  Te  Te137  1  0.59151444  0.25484753  0.75157832  1
  Te  Te138  1  0.58632426  0.58581016  0.06133483  1
  Te  Te139  1  0.59787876  0.61014496  0.39015119  1
  Te  Te140  1  0.56456587  0.58775154  0.75934308  1
  Te  Te141  1  0.58230156  0.91134678  0.09576890  1
  Te  Te142  1  0.59716071  0.90383023  0.42088950  1
  Te  Te143  1  0.57346212  0.93518616  0.75663285  1
  Te  Te144  1  0.91282788  0.25163110  0.08329848  1
  Te  Te145  1  0.91634823  0.28157922  0.41756750  1
  Te  Te146  1  0.92330023  0.27646680  0.75700518  1
  Te  Te147  1  0.89936725  0.58484183  0.07257689  1
  Te  Te148  1  0.92178348  0.58592041  0.40235790  1
  Te  Te149  1  0.93589322  0.57958585  0.75079928  1
  Te  Te150  1  0.93200359  0.90102740  0.09092182  1
  Te  Te151  1  0.91692678  0.90426610  0.40971266  1
  Te  Te152  1  0.90404724  0.92627671  0.74176077  1
  Te  Te153  1  0.22421311  0.08599692  0.24517319  1
  Te  Te154  1  0.24447306  0.07610830  0.60453944  1
  Te  Te155  1  0.26550670  0.09547026  0.90137853  1
  Te  Te156  1  0.30606264  0.37174360  0.31472791  1
  Te  Te157  1  0.28272342  0.46073682  0.59502433  1
  Te  Te158  1  0.24778854  0.39434878  0.91751773  1
  Te  Te159  1  0.25886789  0.74402613  0.26650025  1
  Te  Te160  1  0.26636431  0.74369833  0.59684954  1
  Te  Te161  1  0.27632099  0.71492203  0.94583504  1
  Te  Te162  1  0.56574460  0.09536230  0.26071568  1
  Te  Te163  1  0.55608698  0.10325904  0.60568866  1
  Te  Te164  1  0.56700754  0.06798687  0.93111379  1
  Te  Te165  1  0.56382033  0.43887600  0.27646563  1
  Te  Te166  1  0.58587447  0.43738744  0.55985390  1
  Te  Te167  1  0.56573753  0.38899638  0.92381180  1
  Te  Te168  1  0.55184762  0.71718947  0.21813109  1
  Te  Te169  1  0.56429298  0.75036419  0.58253470  1
  Te  Te170  1  0.57333352  0.75208505  0.89674225  1
  Te  Te171  1  0.90533026  0.08585481  0.22994224  1
  Te  Te172  1  0.91201635  0.09602271  0.58817752  1
  Te  Te173  1  0.93467775  0.11879393  0.90735390  1
  Te  Te174  1  0.92719736  0.41357641  0.24543411  1
  Te  Te175  1  0.92243466  0.41988690  0.57868198  1
  Te  Te176  1  0.91613647  0.42819874  0.91870858  1
  Te  Te177  1  0.92662564  0.75339336  0.25493950  1
  Te  Te178  1  0.91810529  0.72720510  0.55723822  1
  Te  Te179  1  0.91487554  0.74719097  0.90133379  1
