# generated using pymatgen
data_In2Te3
_symmetry_space_group_name_H-M   'P 1'
_cell_length_a   18.96809620
_cell_length_b   18.97094485
_cell_length_c   18.96382448
_cell_angle_alpha   89.85586321
_cell_angle_beta   90.07805405
_cell_angle_gamma   89.76799283
_symmetry_Int_Tables_number   1
_chemical_formula_structural   In2Te3
_chemical_formula_sum   'In72 Te108'
_cell_volume   6823.90996678
_cell_formula_units_Z   36
loop_
 _symmetry_equiv_pos_site_id
 _symmetry_equiv_pos_as_xyz
  1  'x, y, z'
loop_
 _atom_site_type_symbol
 _atom_site_label
 _atom_site_symmetry_multiplicity
 _atom_site_fract_x
 _atom_site_fract_y
 _atom_site_fract_z
 _atom_site_occupancy
  In  In0  1  0.37958353  0.18217992  0.48389658  1
  In  In1  1  0.86353219  0.07648245  0.36255182  1
  In  In2  1  0.52623173  0.68362461  0.50218153  1
  In  In3  1  0.18314847  0.14808481  0.31854452  1
  In  In4  1  0.67375024  0.49121177  0.51278282  1
  In  In5  1  0.50058764  0.15528544  0.31604646  1
  In  In6  1  0.64586649  0.50332699  0.17993529  1
  In  In7  1  0.82379554  0.67472129  0.48553593  1
  In  In8  1  0.84060758  0.52428277  0.33706722  1
  In  In9  1  0.64688951  0.31871434  0.67419584  1
  In  In10  1  0.32850133  0.31758364  0.32488153  1
  In  In11  1  0.01139577  0.66484280  0.67930156  1
  In  In12  1  0.83269822  0.35392759  0.85605754  1
  In  In13  1  0.35694686  -0.01358736  0.67597891  1
  In  In14  1  0.33178240  0.48562376  0.82655039  1
  In  In15  1  -0.00318560  0.01039607  0.03310071  1
  In  In16  1  0.66585193  0.32318306  0.00609635  1
  In  In17  1  0.47992105  0.47255388  0.00747462  1
  In  In18  1  0.84225524  0.17449380  0.02875570  1
  In  In19  1  0.81500617  0.81834932  -0.03558962  1
  In  In20  1  0.66224792  -0.00758323  0.65701889  1
  In  In21  1  0.19626912  0.17568883  0.67207270  1
  In  In22  1  0.16211627  -0.01253410  0.49476508  1
  In  In23  1  0.83316173  0.17120688  0.68879237  1
  In  In24  1  0.35013909  0.32517306  0.64219242  1
  In  In25  1  0.00077605  0.17919496  0.51762542  1
  In  In26  1  0.64603290  0.13094738  0.48458506  1
  In  In27  1  0.83277808  0.52791417  0.00395249  1
  In  In28  1  0.16893764  0.35508358  0.48222996  1
  In  In29  1  0.83789321  0.00540494  0.84959149  1
  In  In30  1  0.30489892  0.65194145  0.02043792  1
  In  In31  1  0.02733126  0.64188550  0.01514798  1
  In  In32  1  0.27129799  0.35090846  0.02791725  1
  In  In33  1  0.18540290  0.01112317  0.82208941  1
  In  In34  1  0.51639303  0.66298611  0.83145416  1
  In  In35  1  0.15794125  0.51062986  0.33109166  1
  In  In36  1  0.81366347  0.80143610  0.71192484  1
  In  In37  1  0.31946839  0.83681818  0.84506951  1
  In  In38  1  0.15514449  0.83844308  -0.01156748  1
  In  In39  1  0.51872476  0.82331046  0.66822032  1
  In  In40  1  0.14138059  0.35470125  0.84774550  1
  In  In41  1  0.00615560  0.82503156  0.82273916  1
  In  In42  1  -0.01760832  0.81677642  0.19538897  1
  In  In43  1  0.84375092  -0.00875327  0.18078271  1
  In  In44  1  0.62028335  0.02764757  -0.02259736  1
  In  In45  1  0.36711949  0.01136078  -0.01123908  1
  In  In46  1  0.66195815  0.51820427  0.80351096  1
  In  In47  1  0.04426202  0.36792318  0.04389416  1
  In  In48  1  0.16374530  0.48178735  0.67280127  1
  In  In49  1  -0.02710408  0.35586805  0.66024855  1
  In  In50  1  0.34760375  0.65534413  0.63939786  1
  In  In51  1  0.83523219  0.53959634  0.67731101  1
  In  In52  1  0.64889187  0.32744178  0.30682083  1
  In  In53  1  0.16829518  0.65270321  0.49078571  1
  In  In54  1  0.01255755  0.32833446  0.31453226  1
  In  In55  1  -0.02178516  0.83329789  0.48292903  1
  In  In56  1  0.17192523  0.83059869  0.30656545  1
  In  In57  1  0.49325729  0.00761024  0.16119560  1
  In  In58  1  0.83265685  0.32886944  0.18620677  1
  In  In59  1  0.48971079  0.32796445  0.83764168  1
  In  In60  1  0.17009544  -0.01345807  0.16506892  1
  In  In61  1  0.67562996  0.67946584  0.33501912  1
  In  In62  1  0.34477412  0.82237858  0.48346951  1
  In  In63  1  0.53270759  0.84761171  0.34377711  1
  In  In64  1  0.01688252  0.01414935  0.66285813  1
  In  In65  1  0.49235407  0.65073042  0.15195715  1
  In  In66  1  0.34158479  0.81725119  0.16333057  1
  In  In67  1  0.47477502  0.49510677  0.33253076  1
  In  In68  1  0.35710686  0.17951048  0.82978190  1
  In  In69  1  0.82280741  0.33804621  0.50913873  1
  In  In70  1  0.65443484  0.16246351  0.15183138  1
  In  In71  1  0.68035158  0.84453434  0.14352152  1
  Te  Te72  1  0.10936473  0.09153381  0.07873741  1
  Te  Te73  1  0.08076711  0.09337350  0.42163742  1
  Te  Te74  1  0.08745515  0.11007803  0.75571869  1
  Te  Te75  1  0.11523141  0.46412719  0.13733606  1
  Te  Te76  1  0.05598510  0.42936968  0.41907577  1
  Te  Te77  1  0.04811548  0.44011481  0.76262786  1
  Te  Te78  1  0.08657196  0.76264459  0.09725756  1
  Te  Te79  1  0.09071555  0.75841202  0.41273758  1
  Te  Te80  1  0.10739477  0.75067632  0.74930900  1
  Te  Te81  1  0.41211234  0.10831268  0.08920165  1
  Te  Te82  1  0.42608282  0.06794843  0.40912553  1
  Te  Te83  1  0.43385287  0.05778592  0.78474452  1
  Te  Te84  1  0.37029098  0.43741780  0.09963740  1
  Te  Te85  1  0.41296058  0.39267470  0.41719003  1
  Te  Te86  1  0.42972679  0.41927702  0.73143351  1
  Te  Te87  1  0.42029920  0.74514774  0.05531194  1
  Te  Te88  1  0.43570562  0.73920451  0.39506499  1
  Te  Te89  1  0.40541213  0.74697789  0.74922216  1
  Te  Te90  1  0.74592443  0.06535708  0.07466848  1
  Te  Te91  1  0.73360726  0.02566335  0.42466697  1
  Te  Te92  1  0.73951421  0.08066424  0.76272312  1
  Te  Te93  1  0.74723269  0.41561974  0.09399772  1
  Te  Te94  1  0.74774429  0.41084121  0.39211773  1
  Te  Te95  1  0.75881512  0.41078619  0.73432286  1
  Te  Te96  1  0.73590404  0.73763524  0.05892596  1
  Te  Te97  1  0.76813725  0.77905991  0.39400696  1
  Te  Te98  1  0.71810267  0.72381309  0.79420453  1
  Te  Te99  1  0.12040059  0.25716344  0.23308052  1
  Te  Te100  1  0.09000184  0.27199528  0.60057109  1
  Te  Te101  1  0.08438340  0.26289405  0.94624217  1
  Te  Te102  1  0.09310798  0.59454118  0.22528224  1
  Te  Te103  1  0.07918176  0.57076040  0.58203070  1
  Te  Te104  1  0.09636880  0.56247858  0.91534500  1
  Te  Te105  1  0.06479237  0.92887340  0.25735030  1
  Te  Te106  1  0.07631447  0.90123247  0.58375053  1
  Te  Te107  1  0.07567519  0.94088107  0.90784154  1
  Te  Te108  1  0.39762385  0.22553214  0.23457729  1
  Te  Te109  1  0.43736285  0.20739696  0.61707352  1
  Te  Te110  1  0.37878315  0.28974923  0.93122376  1
  Te  Te111  1  0.39923134  0.55813291  0.22015485  1
  Te  Te112  1  0.44496794  0.57846905  0.56245310  1
  Te  Te113  1  0.41058359  0.57984322  0.91745270  1
  Te  Te114  1  0.42360249  0.90828395  0.25164988  1
  Te  Te115  1  0.43299454  0.90863509  0.57090627  1
  Te  Te116  1  0.43144860  0.90901206  0.90520805  1
  Te  Te117  1  0.74845945  0.22476023  0.25655365  1
  Te  Te118  1  0.74220728  0.23066542  0.57836985  1
  Te  Te119  1  0.75562770  0.23877353  0.91938555  1
  Te  Te120  1  0.75375431  0.59516533  0.23394729  1
  Te  Te121  1  0.73345604  0.60753558  0.58774339  1
  Te  Te122  1  0.76277843  0.59317144  0.88604029  1
  Te  Te123  1  0.76159662  0.89509986  0.25504538  1
  Te  Te124  1  0.74863430  0.88080198  0.60333807  1
  Te  Te125  1  0.72480167  0.93022057  0.91478135  1
  Te  Te126  1  0.20145189  0.24315569  0.10006039  1
  Te  Te127  1  0.24022965  0.22688976  0.44175708  1
  Te  Te128  1  0.25209692  0.28620861  0.76025247  1
  Te  Te129  1  0.20486306  0.59030181  0.11376885  1
  Te  Te130  1  0.26182655  0.57493345  0.41112980  1
  Te  Te131  1  0.25417225  0.58216645  0.73866498  1
  Te  Te132  1  0.26581107  0.91229245  0.06121453  1
  Te  Te133  1  0.25619024  0.91570336  0.40161330  1
  Te  Te134  1  0.24160964  0.90465308  0.73232844  1
  Te  Te135  1  0.56294998  0.24848491  0.07662890  1
  Te  Te136  1  0.57806215  0.24765547  0.41336749  1
  Te  Te137  1  0.58869237  0.23257996  0.78048846  1
  Te  Te138  1  0.58367696  0.57178137  0.05890607  1
  Te  Te139  1  0.59632315  0.56692598  0.39853101  1
  Te  Te140  1  0.56664713  0.58765815  0.71552334  1
  Te  Te141  1  0.56834173  0.91626826  0.06666656  1
  Te  Te142  1  0.59839567  0.94777772  0.42553839  1
  Te  Te143  1  0.58519652  0.91708146  0.75747200  1
  Te  Te144  1  0.93931018  0.26528932  0.09967757  1
  Te  Te145  1  0.91710278  0.26176805  0.41884315  1
  Te  Te146  1  0.92270003  0.26126620  0.76883205  1
  Te  Te147  1  0.91472403  0.60003213  0.10003483  1
  Te  Te148  1  0.93661350  0.61957698  0.40060009  1
  Te  Te149  1  0.91988398  0.60239239  0.77768220  1
  Te  Te150  1  0.90709329  0.89606999  0.07298515  1
  Te  Te151  1  0.92026487  0.94834233  0.40911670  1
  Te  Te152  1  0.91506503  0.92431354  0.74402625  1
  Te  Te153  1  0.27037423  0.05773746  0.24495761  1
  Te  Te154  1  0.25523670  0.06399736  0.58991282  1
  Te  Te155  1  0.26006383  0.10046782  0.91529605  1
  Te  Te156  1  0.22355360  0.39875058  0.25404375  1
  Te  Te157  1  0.26496671  0.43043074  0.57065935  1
  Te  Te158  1  0.21670233  0.46691430  0.92994298  1
  Te  Te159  1  0.26601859  0.73139227  0.25399455  1
  Te  Te160  1  0.24870385  0.75104403  0.57521554  1
  Te  Te161  1  0.23110613  0.73149902  0.91249785  1
  Te  Te162  1  0.60281354  0.06189878  0.25069999  1
  Te  Te163  1  0.56583271  0.09329974  0.60168980  1
  Te  Te164  1  0.53854051  0.11467263  0.89021335  1
  Te  Te165  1  0.54605067  0.40130539  0.22743467  1
  Te  Te166  1  0.58052597  0.39358277  0.56740347  1
  Te  Te167  1  0.59494273  0.42320234  0.90577290  1
  Te  Te168  1  0.58236840  0.74559198  0.22970067  1
  Te  Te169  1  0.61744868  0.78118075  0.56396024  1
  Te  Te170  1  0.61575912  0.73496701  0.90955965  1
  Te  Te171  1  0.92585844  0.10022151  0.23293364  1
  Te  Te172  1  0.90487153  0.08336269  0.58618419  1
  Te  Te173  1  0.92727594  0.09775333  0.92773427  1
  Te  Te174  1  0.92353270  0.43422341  0.24631418  1
  Te  Te175  1  0.90158839  0.45268697  0.56769711  1
  Te  Te176  1  0.92610499  0.42049533  0.95270672  1
  Te  Te177  1  0.91827045  0.74171086  0.30389441  1
  Te  Te178  1  0.91079335  0.74757287  0.59535403  1
  Te  Te179  1  0.93865669  0.73985955  0.92387814  1
