# generated using pymatgen
data_In2Te3
_symmetry_space_group_name_H-M   'P 1'
_cell_length_a   18.78372579
_cell_length_b   18.77924608
_cell_length_c   18.77810011
_cell_angle_alpha   89.96567597
_cell_angle_beta   89.93659471
_cell_angle_gamma   90.00553797
_symmetry_Int_Tables_number   1
_chemical_formula_structural   In2Te3
_chemical_formula_sum   'In72 Te108'
_cell_volume   6623.86079119
_cell_formula_units_Z   36
loop_
 _symmetry_equiv_pos_site_id
 _symmetry_equiv_pos_as_xyz
  1  'x, y, z'
loop_
 _atom_site_type_symbol
 _atom_site_label
 _atom_site_symmetry_multiplicity
 _atom_site_fract_x
 _atom_site_fract_y
 _atom_site_fract_z
 _atom_site_occupancy
  In  In0  1  0.52306017  0.79427988  -0.02561501  1
  In  In1  1  0.34752472  0.82177053  0.15838587  1
  In  In2  1  0.31435351  0.82662593  0.49235084  1
  In  In3  1  0.82988078  0.35280636  0.84111060  1
  In  In4  1  0.34316379  0.35596249  0.67104443  1
  In  In5  1  0.82726669  0.49962263  0.68030067  1
  In  In6  1  0.14711947  0.18072169  0.30889629  1
  In  In7  1  0.15370727  0.81685927  0.64074177  1
  In  In8  1  0.66569120  0.03052720  0.33823283  1
  In  In9  1  0.50514783  0.16927416  0.32069380  1
  In  In10  1  -0.00985638  0.02695103  0.01928063  1
  In  In11  1  0.68563675  0.47159051  0.49068096  1
  In  In12  1  0.81372322  0.66225523  0.83910150  1
  In  In13  1  0.66399885  0.81945679  0.14938326  1
  In  In14  1  0.00110952  0.01265029  0.34037581  1
  In  In15  1  -0.02337060  0.86429313  0.83285790  1
  In  In16  1  0.50554877  -0.00549152  0.82560604  1
  In  In17  1  -0.01937515  0.67604828  0.67822607  1
  In  In18  1  0.49584101  0.53237005  -0.02787490  1
  In  In19  1  0.66679758  0.65607752  0.66911949  1
  In  In20  1  0.33160490  0.82497060  0.82262943  1
  In  In21  1  0.48198690  0.50500016  0.32913077  1
  In  In22  1  0.70272999  0.86119187  0.51882065  1
  In  In23  1  0.18618139  0.66386555  0.49106238  1
  In  In24  1  0.18286811  0.66009742  0.84055775  1
  In  In25  1  0.50072124  0.32805762  0.15841913  1
  In  In26  1  0.84033767  0.32479771  0.48243378  1
  In  In27  1  0.32909351  0.16850966  0.49101745  1
  In  In28  1  0.49243427  0.17399037  -0.00073745  1
  In  In29  1  0.50914884  0.01876270  0.50978882  1
  In  In30  1  0.35641672  0.00676458  0.66346883  1
  In  In31  1  0.32264509  0.01618269  -0.00332733  1
  In  In32  1  0.67723895  0.31364007  0.34129972  1
  In  In33  1  -0.00559941  0.00679322  0.66211673  1
  In  In34  1  0.50541533  0.51693279  0.68920020  1
  In  In35  1  0.15652816  0.82320906  -0.01299619  1
  In  In36  1  0.00164647  0.64214774  0.02214140  1
  In  In37  1  0.16572500  0.65106861  0.16994484  1
  In  In38  1  0.65979593  0.35148644  -0.00515767  1
  In  In39  1  0.83674600  0.16005514  0.67327565  1
  In  In40  1  0.17583820  0.49704341  0.68870334  1
  In  In41  1  0.83864503  0.17293874  0.32299198  1
  In  In42  1  0.67881697  0.66138539  0.31393820  1
  In  In43  1  0.18681710  0.02942015  0.83338688  1
  In  In44  1  0.66986421  0.50741135  0.15417655  1
  In  In45  1  0.83609449  -0.00350390  0.18439688  1
  In  In46  1  0.51178368  0.15721365  0.67889956  1
  In  In47  1  0.01553759  0.32684343  0.66316733  1
  In  In48  1  0.32314782  0.49944320  0.18155716  1
  In  In49  1  -0.02112906  0.83766590  0.50321125  1
  In  In50  1  0.66936534  -0.00964189  0.00393533  1
  In  In51  1  0.00753008  0.51770454  0.48671684  1
  In  In52  1  0.49330389  0.83775320  0.32469452  1
  In  In53  1  0.16443511  0.17569249  0.66508410  1
  In  In54  1  0.15353545  0.32605302  0.50791365  1
  In  In55  1  0.67622389  0.32660136  0.69329159  1
  In  In56  1  0.50773560  0.82040779  0.69577744  1
  In  In57  1  0.17980151  0.84625089  0.32305279  1
  In  In58  1  0.32576745  0.17948180  0.16495649  1
  In  In59  1  0.82098931  0.82886487  0.00048834  1
  In  In60  1  0.81982731  -0.00053895  0.83355948  1
  In  In61  1  0.85075403  0.82246234  0.33106088  1
  In  In62  1  0.84803884  0.19243950  0.00782348  1
  In  In63  1  0.15153386  0.32213191  0.85958060  1
  In  In64  1  0.49081206  0.65811639  0.50950148  1
  In  In65  1  0.84034012  0.49488122  -0.00006008  1
  In  In66  1  0.50051983  0.34509850  0.47757449  1
  In  In67  1  0.15446103  0.46689832  0.02264920  1
  In  In68  1  0.14205710  0.01374722  0.16852239  1
  In  In69  1  -0.00449917  0.66580796  0.32064299  1
  In  In70  1  0.33169941  0.32498087  0.00155363  1
  In  In71  1  0.16417231  0.47909386  0.33297687  1
  Te  Te72  1  0.09723454  0.12003862  0.06978553  1
  Te  Te73  1  0.10005288  0.09074841  0.41645619  1
  Te  Te74  1  0.07171240  0.09743982  0.75848172  1
  Te  Te75  1  0.03388028  0.40596314  0.09066446  1
  Te  Te76  1  0.05832516  0.39706223  0.40976634  1
  Te  Te77  1  0.07320643  0.42015782  0.76907094  1
  Te  Te78  1  0.07800373  0.75341418  0.09679965  1
  Te  Te79  1  0.08478535  0.75342134  0.41898497  1
  Te  Te80  1  0.08414999  0.76120265  0.76569535  1
  Te  Te81  1  0.41976752  0.08015477  0.09601310  1
  Te  Te82  1  0.41496438  0.07567267  0.40492403  1
  Te  Te83  1  0.40182359  0.09625031  0.77452104  1
  Te  Te84  1  0.42313708  0.43010087  0.07657965  1
  Te  Te85  1  0.39284017  0.42098327  0.41278779  1
  Te  Te86  1  0.43887947  0.41036881  0.77125286  1
  Te  Te87  1  0.42859746  0.73263018  0.07151013  1
  Te  Te88  1  0.40918469  0.73957652  0.40970597  1
  Te  Te89  1  0.42792019  0.71828407  0.77150350  1
  Te  Te90  1  0.76343271  0.08168572  0.08032421  1
  Te  Te91  1  0.76322649  0.09332572  0.42606874  1
  Te  Te92  1  0.73397901  0.09150983  0.75643287  1
  Te  Te93  1  0.76176645  0.40000149  0.09577154  1
  Te  Te94  1  0.77997094  0.42198061  0.38074803  1
  Te  Te95  1  0.72435964  0.44497181  0.77739319  1
  Te  Te96  1  0.75278733  0.72446015  0.07961734  1
  Te  Te97  1  0.74681044  0.75123065  0.41713503  1
  Te  Te98  1  0.75575617  0.75254332  0.73853349  1
  Te  Te99  1  0.06204659  0.27761705  0.22958445  1
  Te  Te100  1  0.05863466  0.21944171  0.56353165  1
  Te  Te101  1  0.09436992  0.21439917  0.94160540  1
  Te  Te102  1  0.06973546  0.55768648  0.24130287  1
  Te  Te103  1  0.08563818  0.59362817  0.59730844  1
  Te  Te104  1  0.09009014  0.57030936  0.92191363  1
  Te  Te105  1  0.06384593  0.90817219  0.24593400  1
  Te  Te106  1  0.08643182  0.92848029  0.56492515  1
  Te  Te107  1  0.08382161  0.93991645  0.91890962  1
  Te  Te108  1  0.40609410  0.26885418  0.26195116  1
  Te  Te109  1  0.42146779  0.24816556  0.58353532  1
  Te  Te110  1  0.42180235  0.26057901  0.90340856  1
  Te  Te111  1  0.41937613  0.59802439  0.23438159  1
  Te  Te112  1  0.41047988  0.56160386  0.58561537  1
  Te  Te113  1  0.40398257  0.60395327  0.87900740  1
  Te  Te114  1  0.40379876  0.92486032  0.24740817  1
  Te  Te115  1  0.42559162  0.89974362  0.58063914  1
  Te  Te116  1  0.41242925  0.91370927  0.92017478  1
  Te  Te117  1  0.74561355  0.24406304  0.23177152  1
  Te  Te118  1  0.74849523  0.25358108  0.58107360  1
  Te  Te119  1  0.74310436  0.25016952  0.91332871  1
  Te  Te120  1  0.77319741  0.57442412  0.23973160  1
  Te  Te121  1  0.75852886  0.58004974  0.57082661  1
  Te  Te122  1  0.73508488  0.59129027  0.94420845  1
  Te  Te123  1  0.73453625  0.90655773  0.25598563  1
  Te  Te124  1  0.77608451  0.94965025  0.60987686  1
  Te  Te125  1  0.72855432  0.89490937  0.89979231  1
  Te  Te126  1  0.23140759  0.27883836  0.10354741  1
  Te  Te127  1  0.24445066  0.25993592  0.40530544  1
  Te  Te128  1  0.24999573  0.26453904  0.75212886  1
  Te  Te129  1  0.25112115  0.57621386  0.06933273  1
  Te  Te130  1  0.25815728  0.57304542  0.40073906  1
  Te  Te131  1  0.27937369  0.57353023  0.76466897  1
  Te  Te132  1  0.23665134  0.91869323  0.08144606  1
  Te  Te133  1  0.24622938  0.93467892  0.41969414  1
  Te  Te134  1  0.24062668  0.91705093  0.73977938  1
  Te  Te135  1  0.60014403  0.24072792  0.08597078  1
  Te  Te136  1  0.58941968  0.22924512  0.43430162  1
  Te  Te137  1  0.57529009  0.25326220  0.77182879  1
  Te  Te138  1  0.57625079  0.59472403  0.08040289  1
  Te  Te139  1  0.59401607  0.57507963  0.41998452  1
  Te  Te140  1  0.58640308  0.60165720  0.78599145  1
  Te  Te141  1  0.56495283  0.90949446  0.07790524  1
  Te  Te142  1  0.58742122  0.91530441  0.42175087  1
  Te  Te143  1  0.60347658  0.92111834  0.74224580  1
  Te  Te144  1  0.93560727  0.27265468  0.10004048  1
  Te  Te145  1  0.93857681  0.25235499  0.40082306  1
  Te  Te146  1  0.91974100  0.25693666  0.75849984  1
  Te  Te147  1  0.90266141  0.57631839  0.11026015  1
  Te  Te148  1  0.90522040  0.59392690  0.41469970  1
  Te  Te149  1  0.92242091  0.57285405  0.77430331  1
  Te  Te150  1  0.91750150  0.91033085  0.08675023  1
  Te  Te151  1  0.89560152  0.93676938  0.42114998  1
  Te  Te152  1  0.88694932  0.90607044  0.71314641  1
  Te  Te153  1  0.25079205  0.07815431  0.25226324  1
  Te  Te154  1  0.24763345  0.07660311  0.58237599  1
  Te  Te155  1  0.24262130  0.12662956  0.93258276  1
  Te  Te156  1  0.23109152  0.39187023  0.22870480  1
  Te  Te157  1  0.24716885  0.42722615  0.57329577  1
  Te  Te158  1  0.25396767  0.42277101  0.91213525  1
  Te  Te159  1  0.25924155  0.73664822  0.25477616  1
  Te  Te160  1  0.27074542  0.72808596  0.60378382  1
  Te  Te161  1  0.27201275  0.73925893  0.93767944  1
  Te  Te162  1  0.58508221  0.08562271  0.22923407  1
  Te  Te163  1  0.60796952  0.07048508  0.60554132  1
  Te  Te164  1  0.58807468  0.08527572  0.91671607  1
  Te  Te165  1  0.58575667  0.41317461  0.25749156  1
  Te  Te166  1  0.58456087  0.41133999  0.58933508  1
  Te  Te167  1  0.56292305  0.41682955  0.90312548  1
  Te  Te168  1  0.56999905  0.73655777  0.23852440  1
  Te  Te169  1  0.58930798  0.75592686  0.57348454  1
  Te  Te170  1  0.61774598  0.70921943  0.89640078  1
  Te  Te171  1  0.93921474  0.09770682  0.22973409  1
  Te  Te172  1  0.91034281  0.08527974  0.56744396  1
  Te  Te173  1  0.91456755  0.09482795  0.90652606  1
  Te  Te174  1  0.94546473  0.37297274  0.22132619  1
  Te  Te175  1  0.92023587  0.42058236  0.58568861  1
  Te  Te176  1  0.93672305  0.40444314  0.93012004  1
  Te  Te177  1  0.91121072  0.74221522  0.22439221  1
  Te  Te178  1  0.89502183  0.74108387  0.57779438  1
  Te  Te179  1  0.92967772  0.74584429  0.92018707  1
