# generated using pymatgen
data_In2Te3
_symmetry_space_group_name_H-M   'P 1'
_cell_length_a   18.93931898
_cell_length_b   18.92160665
_cell_length_c   18.92528841
_cell_angle_alpha   89.96096103
_cell_angle_beta   89.98415190
_cell_angle_gamma   89.89608560
_symmetry_Int_Tables_number   1
_chemical_formula_structural   In2Te3
_chemical_formula_sum   'In72 Te108'
_cell_volume   6782.09773057
_cell_formula_units_Z   36
loop_
 _symmetry_equiv_pos_site_id
 _symmetry_equiv_pos_as_xyz
  1  'x, y, z'
loop_
 _atom_site_type_symbol
 _atom_site_label
 _atom_site_symmetry_multiplicity
 _atom_site_fract_x
 _atom_site_fract_y
 _atom_site_fract_z
 _atom_site_occupancy
  In  In0  1  0.33672762  0.67079109  0.01912288  1
  In  In1  1  0.85754249  0.49200805  0.31236964  1
  In  In2  1  0.83889729  0.33554757  0.82875201  1
  In  In3  1  -0.00633650  0.17358634  0.52217549  1
  In  In4  1  0.34195290  0.82157266  0.49434386  1
  In  In5  1  0.51479023  0.02285848  0.15568179  1
  In  In6  1  0.32231779  -0.00147277  0.67449945  1
  In  In7  1  0.00798336  0.67716296  0.72958741  1
  In  In8  1  0.81298032  0.33713955  0.14909813  1
  In  In9  1  0.53761394  0.64300647  0.51258899  1
  In  In10  1  0.34683216  0.33837325  0.70481900  1
  In  In11  1  0.50731910  0.00195383  0.47697611  1
  In  In12  1  0.35508569  0.13763201  0.15517489  1
  In  In13  1  0.13628588  0.49791359  0.35154762  1
  In  In14  1  0.00507600  0.02011080  0.33324696  1
  In  In15  1  0.36073402  0.65873274  0.36523642  1
  In  In16  1  0.15565116  0.34614542  0.16091666  1
  In  In17  1  0.66849725  0.34596584  0.68598943  1
  In  In18  1  0.52907955  0.17363065  0.65107198  1
  In  In19  1  -0.01821629  0.17481312  0.15717252  1
  In  In20  1  0.83008056  0.50604920  -0.02042560  1
  In  In21  1  0.15856663  0.83128292  0.37730304  1
  In  In22  1  0.67185702  0.32685121  0.33854744  1
  In  In23  1  0.51436589  0.32291301  0.13583157  1
  In  In24  1  0.50920896  0.34990363  0.53559203  1
  In  In25  1  0.84041115  -0.00254660  0.50118979  1
  In  In26  1  0.71582636  0.17206774  0.82271708  1
  In  In27  1  0.84854544  0.32331776  0.49921110  1
  In  In28  1  0.50559516  0.66398058  0.85201510  1
  In  In29  1  0.17414241  0.20457997  -0.01506881  1
  In  In30  1  0.16308572  -0.00622022  0.15075351  1
  In  In31  1  0.14978756  0.35227884  0.53988919  1
  In  In32  1  0.67564753  0.82101188  0.15776729  1
  In  In33  1  0.13077517  0.35955087  0.80595070  1
  In  In34  1  0.69945769  0.84056885  0.83475264  1
  In  In35  1  0.53865149  0.16798134  0.29826018  1
  In  In36  1  0.82995416  0.68097739  0.14581427  1
  In  In37  1  0.68830736  0.16464107  0.49702916  1
  In  In38  1  0.50832495  0.47792055  0.66187419  1
  In  In39  1  0.14103104  0.15974436  0.36286054  1
  In  In40  1  0.31414984  0.35729520  -0.03412383  1
  In  In41  1  -0.00570841  0.49667117  0.14362401  1
  In  In42  1  0.00561658  0.32052977  0.00660665  1
  In  In43  1  0.51316305  -0.01283582  0.83054624  1
  In  In44  1  0.70100177  0.00972148  -0.01920214  1
  In  In45  1  0.83013967  0.82678117  0.33237446  1
  In  In46  1  0.65238356  0.49077456  0.83643147  1
  In  In47  1  -0.01347381  0.48998543  0.49530538  1
  In  In48  1  0.49798345  0.49770628  0.31293583  1
  In  In49  1  -0.00405085  -0.02472940  0.66130072  1
  In  In50  1  0.33469874  0.16945047  0.84187901  1
  In  In51  1  0.14035026  -0.00447920  0.84369015  1
  In  In52  1  0.66956056  0.83538395  0.48241400  1
  In  In53  1  0.32814410  0.13412079  0.51061589  1
  In  In54  1  0.14500884  0.67046780  0.54891363  1
  In  In55  1  -0.01168032  0.85051221  0.14368338  1
  In  In56  1  0.17271327  0.67704344  0.18199047  1
  In  In57  1  0.50089504  0.83534851  0.69396390  1
  In  In58  1  0.31794156  0.80816328  0.86017056  1
  In  In59  1  0.51300343  0.49623699  0.01058962  1
  In  In60  1  -0.01867826  0.80431277  0.53342937  1
  In  In61  1  0.32306091  0.02197480  0.06163618  1
  In  In62  1  0.32657138  0.49115818  0.50659670  1
  In  In63  1  0.12554234  0.79469173  -0.05247701  1
  In  In64  1  0.47284242  0.84521620  0.01493882  1
  In  In65  1  0.32877454  -0.01641686  0.32053430  1
  In  In66  1  0.65337427  0.67998144  0.01694987  1
  In  In67  1  0.69311832  0.67121556  0.31688103  1
  In  In68  1  0.31224930  0.32282960  0.33090665  1
  In  In69  1  0.84484504  0.80076387  0.68003333  1
  In  In70  1  0.33483460  0.82954084  0.16238717  1
  In  In71  1  -0.03700739  0.04763335  -0.01965804  1
  Te  Te72  1  0.08704799  0.09790468  0.06866396  1
  Te  Te73  1  0.07990585  0.06186907  0.45948879  1
  Te  Te74  1  0.08090727  0.07198061  0.73491298  1
  Te  Te75  1  0.09973005  0.43483882  0.05214353  1
  Te  Te76  1  0.06482733  0.38289197  0.41726387  1
  Te  Te77  1  0.03517111  0.41688198  0.70537290  1
  Te  Te78  1  0.07525080  0.74157869  0.07947612  1
  Te  Te79  1  0.06718648  0.72457562  0.42871323  1
  Te  Te80  1  0.08999638  0.80995870  0.74297197  1
  Te  Te81  1  0.45435555  0.10389475  0.04338902  1
  Te  Te82  1  0.41613299  0.09342133  0.39116984  1
  Te  Te83  1  0.42849407  0.08861718  0.74192982  1
  Te  Te84  1  0.40536896  0.41293901  0.08074464  1
  Te  Te85  1  0.41706553  0.40791032  0.41657927  1
  Te  Te86  1  0.44172367  0.42047447  0.77906211  1
  Te  Te87  1  0.44132627  0.73302491  0.11024994  1
  Te  Te88  1  0.45584419  0.75753212  0.42297656  1
  Te  Te89  1  0.40648725  0.73614739  0.75915881  1
  Te  Te90  1  0.72494145  0.11057845  0.08530742  1
  Te  Te91  1  0.77128544  0.08584963  0.40575961  1
  Te  Te92  1  0.76480329  0.10951705  0.69977881  1
  Te  Te93  1  0.73617727  0.43332168  0.06830167  1
  Te  Te94  1  0.76762291  0.41890328  0.41198517  1
  Te  Te95  1  0.76619179  0.44475400  0.74617971  1
  Te  Te96  1  0.77005785  0.77608063  0.04395638  1
  Te  Te97  1  0.76953537  0.73045039  0.43355355  1
  Te  Te98  1  0.74591117  0.72438788  0.75952887  1
  Te  Te99  1  0.08370732  0.24303925  0.24682303  1
  Te  Te100  1  0.06067558  0.26468505  0.61946938  1
  Te  Te101  1  0.06485407  0.24064280  0.88872844  1
  Te  Te102  1  0.06897917  0.58302481  0.24522406  1
  Te  Te103  1  0.09164005  0.53745749  0.59233327  1
  Te  Te104  1  0.03795612  0.59326419  0.85931354  1
  Te  Te105  1  0.09140067  0.90769854  0.25534234  1
  Te  Te106  1  0.09370431  0.87933765  0.59727608  1
  Te  Te107  1  0.04362961  0.92128147  0.93393288  1
  Te  Te108  1  0.41907353  0.25580882  0.24583680  1
  Te  Te109  1  0.40175218  0.24704437  0.58667033  1
  Te  Te110  1  0.41394925  0.25690997  0.92865514  1
  Te  Te111  1  0.39718389  0.58104924  0.24742475  1
  Te  Te112  1  0.41938405  0.57762556  0.58863487  1
  Te  Te113  1  0.41177485  0.57443175  0.92615530  1
  Te  Te114  1  0.43524252  0.91821172  0.23676400  1
  Te  Te115  1  0.42698134  0.92408042  0.58871668  1
  Te  Te116  1  0.39957579  0.92940843  0.91250246  1
  Te  Te117  1  0.75854326  0.24555222  0.25206552  1
  Te  Te118  1  0.75653170  0.25115966  0.60249853  1
  Te  Te119  1  0.72858236  0.28597530  0.91699741  1
  Te  Te120  1  0.76151957  0.57110114  0.22462209  1
  Te  Te121  1  0.65437371  0.58391661  0.59239799  1
  Te  Te122  1  0.72793188  0.60012144  0.91291899  1
  Te  Te123  1  0.75937626  0.91130471  0.23661928  1
  Te  Te124  1  0.76668580  0.89538480  0.58291534  1
  Te  Te125  1  0.79494469  0.94745237  0.87952793  1
  Te  Te126  1  0.25919031  0.25115681  0.10031511  1
  Te  Te127  1  0.23684938  0.25398876  0.44335489  1
  Te  Te128  1  0.23741453  0.25174928  0.76173772  1
  Te  Te129  1  0.24948403  0.58405933  0.09922502  1
  Te  Te130  1  0.23910785  0.58664336  0.42551864  1
  Te  Te131  1  0.16720151  0.68605332  0.71874107  1
  Te  Te132  1  0.23566393  0.88947623  0.06436008  1
  Te  Te133  1  0.25211705  0.93304982  0.44197502  1
  Te  Te134  1  0.24522401  0.90840031  0.76852675  1
  Te  Te135  1  0.62096406  0.22079736  0.12133194  1
  Te  Te136  1  0.57144736  0.24566157  0.43203412  1
  Te  Te137  1  0.57676390  0.25704034  0.76250810  1
  Te  Te138  1  0.58344783  0.58573884  0.10338125  1
  Te  Te139  1  0.60123409  0.57268458  0.39199947  1
  Te  Te140  1  0.58220677  0.59347579  0.74234364  1
  Te  Te141  1  0.59271901  0.92536095  0.06081869  1
  Te  Te142  1  0.60225421  0.93012925  0.39295755  1
  Te  Te143  1  0.61561972  0.92603769  0.73808685  1
  Te  Te144  1  0.88916547  0.23855912  0.05578969  1
  Te  Te145  1  0.90919126  0.22101995  0.41177068  1
  Te  Te146  1  0.91832458  0.21643770  0.78755017  1
  Te  Te147  1  0.92292955  0.59892954  0.05744632  1
  Te  Te148  1  0.91946038  0.58545624  0.40583108  1
  Te  Te149  1  0.90079171  0.58490600  0.79482483  1
  Te  Te150  1  0.90522395  0.96016764  0.08737739  1
  Te  Te151  1  0.93552262  0.90514477  0.41813343  1
  Te  Te152  1  0.91043409  0.90711541  0.76241495  1
  Te  Te153  1  0.23249845  0.08576109  0.26026186  1
  Te  Te154  1  0.22843168  0.09094542  0.60844065  1
  Te  Te155  1  0.24700434  0.07940546  0.93104361  1
  Te  Te156  1  0.23816681  0.43100706  0.25684037  1
  Te  Te157  1  0.25368826  0.42903434  0.62353939  1
  Te  Te158  1  0.22872168  0.44053486  0.88041390  1
  Te  Te159  1  0.26026333  0.76533193  0.28019889  1
  Te  Te160  1  0.27129445  0.73754882  0.59299691  1
  Te  Te161  1  0.22959951  0.69319112  0.90833301  1
  Te  Te162  1  0.63341955  0.07520164  0.23035577  1
  Te  Te163  1  0.60315283  0.06503925  0.57724088  1
  Te  Te164  1  0.60379246  0.08879517  0.89325729  1
  Te  Te165  1  0.59269741  0.40819735  0.23644421  1
  Te  Te166  1  0.63417338  0.43469183  0.56104013  1
  Te  Te167  1  0.60432175  0.39730843  0.94296393  1
  Te  Te168  1  0.58805094  0.74689850  0.24843911  1
  Te  Te169  1  0.58924249  0.76518884  0.59323317  1
  Te  Te170  1  0.57522270  0.78267153  0.91378235  1
  Te  Te171  1  0.91131664  0.06654057  0.23034731  1
  Te  Te172  1  0.89312435  0.08898375  0.61183649  1
  Te  Te173  1  0.86722513  0.10744526  0.87820114  1
  Te  Te174  1  0.93321710  0.38967068  0.23099596  1
  Te  Te175  1  0.91509873  0.41070366  0.60319443  1
  Te  Te176  1  0.93572807  0.41804484  0.91331937  1
  Te  Te177  1  0.92556537  0.75101786  0.24031502  1
  Te  Te178  1  0.91326726  0.68994406  0.60140711  1
  Te  Te179  1  0.94598968  0.71636005  0.86744820  1
