# generated using pymatgen
data_In2Te3
_symmetry_space_group_name_H-M   'P 1'
_cell_length_a   18.87760754
_cell_length_b   18.86513507
_cell_length_c   18.86010457
_cell_angle_alpha   90.03791413
_cell_angle_beta   89.95138532
_cell_angle_gamma   89.93122913
_symmetry_Int_Tables_number   1
_chemical_formula_structural   In2Te3
_chemical_formula_sum   'In72 Te108'
_cell_volume   6716.61420742
_cell_formula_units_Z   36
loop_
 _symmetry_equiv_pos_site_id
 _symmetry_equiv_pos_as_xyz
  1  'x, y, z'
loop_
 _atom_site_type_symbol
 _atom_site_label
 _atom_site_symmetry_multiplicity
 _atom_site_fract_x
 _atom_site_fract_y
 _atom_site_fract_z
 _atom_site_occupancy
  In  In0  1  0.48551124  -0.02579318  0.79379311  1
  In  In1  1  0.15667887  0.68204867  0.49695246  1
  In  In2  1  0.66841376  0.85173660  0.78964928  1
  In  In3  1  0.36457810  -0.01254463  0.39099803  1
  In  In4  1  0.68008728  0.67049572  0.00289328  1
  In  In5  1  -0.00200678  0.81079292  0.15020051  1
  In  In6  1  0.50987427  0.81071499  0.00382387  1
  In  In7  1  0.16268263  0.33871434  0.13932923  1
  In  In8  1  -0.02363881  0.33115241  0.34584828  1
  In  In9  1  0.51695688  0.16652719  -0.02116294  1
  In  In10  1  0.51600744  0.50887443  0.35509118  1
  In  In11  1  0.66461304  0.51636615  0.51069498  1
  In  In12  1  -0.00037205  -0.00811090  0.34018140  1
  In  In13  1  0.48372089  0.16081362  0.35059907  1
  In  In14  1  0.15978294  -0.00215106  0.82628656  1
  In  In15  1  0.34006722  0.01284160  -0.01126288  1
  In  In16  1  0.50329249  0.01174231  0.19247247  1
  In  In17  1  0.80555574  0.32371033  0.48205015  1
  In  In18  1  0.35161467  0.48829777  0.12216819  1
  In  In19  1  0.49748680  0.49869861  0.66183741  1
  In  In20  1  0.14621546  0.83205758  0.33888578  1
  In  In21  1  -0.01492545  0.68271933  0.64255407  1
  In  In22  1  -0.00833500  0.50180197  0.47201582  1
  In  In23  1  0.30494936  0.74932882  0.81681998  1
  In  In24  1  0.00688833  0.16192375  0.82849084  1
  In  In25  1  0.66213682  -0.02805127  0.47275255  1
  In  In26  1  0.18826748  0.01994695  0.15961542  1
  In  In27  1  0.16783664  0.16083743  0.68646822  1
  In  In28  1  0.82974136  0.67176395  0.82390972  1
  In  In29  1  0.66669985  0.49557496  0.16366180  1
  In  In30  1  0.00320769  0.30447904  -0.00696105  1
  In  In31  1  0.83844385  0.49733075  0.00813661  1
  In  In32  1  0.00675291  0.34920947  0.65886875  1
  In  In33  1  0.33670254  0.50819833  0.84006067  1
  In  In34  1  0.18382063  0.83916185  0.65678794  1
  In  In35  1  0.01129909  0.00997585  0.00356831  1
  In  In36  1  0.62127699  0.49389967  0.83063067  1
  In  In37  1  0.65784929  0.32370490  0.31478665  1
  In  In38  1  0.02006578  0.64817396  0.00166297  1
  In  In39  1  0.15200439  -0.00293738  0.50122108  1
  In  In40  1  0.63537813  0.17656345  0.78450293  1
  In  In41  1  0.33144198  0.84376222  0.16841993  1
  In  In42  1  0.84118276  0.85040273  0.34973030  1
  In  In43  1  0.31123892  0.18465230  0.17138907  1
  In  In44  1  0.18565169  0.18449694  0.32724673  1
  In  In45  1  0.67588808  0.16271351  0.17608670  1
  In  In46  1  0.81077199  0.32585021  0.83426055  1
  In  In47  1  0.80841744  0.50823589  0.67000176  1
  In  In48  1  0.00860279  0.52200412  0.18647261  1
  In  In49  1  0.84216024  0.53009217  0.32849764  1
  In  In50  1  0.35375392  -0.02631429  0.64491090  1
  In  In51  1  0.49216682  0.65164387  0.81993947  1
  In  In52  1  0.34504720  0.51597311  0.51232790  1
  In  In53  1  0.03179169  0.50603291  0.84298686  1
  In  In54  1  0.67721984  0.81486843  0.17969627  1
  In  In55  1  0.84082928  -0.01248294  0.18088862  1
  In  In56  1  0.64043653  0.17674877  0.53709313  1
  In  In57  1  0.34429203  0.15009507  0.81572099  1
  In  In58  1  0.34114368  0.68166426  0.35103119  1
  In  In59  1  0.65774456  0.66995181  0.35044220  1
  In  In60  1  -0.01715740  0.83168611  0.81144017  1
  In  In61  1  0.14414969  0.50892499  0.30646422  1
  In  In62  1  -0.01471110  0.15438034  0.16092050  1
  In  In63  1  0.65042629  0.33385948  -0.02366352  1
  In  In64  1  0.19162446  0.50807186  0.67326402  1
  In  In65  1  0.18514878  0.50970501  -0.00236954  1
  In  In66  1  0.83965701  0.00201173  0.82250430  1
  In  In67  1  0.33002357  0.33507958  0.34618445  1
  In  In68  1  0.84037355  0.14630735  0.63685348  1
  In  In69  1  0.67313502  -0.01192968  -0.01052121  1
  In  In70  1  0.49887983  0.65362798  0.16973817  1
  In  In71  1  0.17948133  0.31492507  0.51857958  1
  Te  Te72  1  0.10234945  0.11070528  0.07322610  1
  Te  Te73  1  0.08730963  0.09823173  0.40745923  1
  Te  Te74  1  0.06057807  0.05910409  0.73028370  1
  Te  Te75  1  0.06293021  0.43136457  0.06983152  1
  Te  Te76  1  0.10156038  0.40046500  0.41840076  1
  Te  Te77  1  0.10944839  0.40822078  0.75492737  1
  Te  Te78  1  0.10724587  0.74557833  0.07350829  1
  Te  Te79  1  0.05557522  0.78080545  0.44725913  1
  Te  Te80  1  0.08435465  0.74771528  0.73554987  1
  Te  Te81  1  0.42001119  0.09185433  0.09316507  1
  Te  Te82  1  0.44543320  0.08201308  0.47264548  1
  Te  Te83  1  0.43309344  0.08960878  0.70841210  1
  Te  Te84  1  0.44826896  0.40067605  0.06217223  1
  Te  Te85  1  0.42667270  0.41272234  0.43428444  1
  Te  Te86  1  0.42101545  0.41360129  0.75713507  1
  Te  Te87  1  0.40334234  0.73770706  0.08408284  1
  Te  Te88  1  0.41700195  0.76991424  0.44073561  1
  Te  Te89  1  0.43680015  0.77445478  0.75832527  1
  Te  Te90  1  0.75771743  0.07263810  0.08281611  1
  Te  Te91  1  0.73531031  0.09791387  0.45025410  1
  Te  Te92  1  0.74258019  0.07841425  0.73257802  1
  Te  Te93  1  0.74783564  0.39833716  0.07865665  1
  Te  Te94  1  0.73756247  0.43829359  0.39653924  1
  Te  Te95  1  0.72011516  0.41059211  0.74655979  1
  Te  Te96  1  0.76647172  0.76257551  0.07654315  1
  Te  Te97  1  0.74559726  0.76315908  0.42695689  1
  Te  Te98  1  0.75675340  0.75033097  0.72092561  1
  Te  Te99  1  0.08068845  0.25945074  0.24366435  1
  Te  Te100  1  0.07220098  0.23243741  0.58627968  1
  Te  Te101  1  0.09887154  0.25502181  0.89489624  1
  Te  Te102  1  0.06097337  0.62647748  0.27671703  1
  Te  Te103  1  0.08241861  0.56602385  0.58384042  1
  Te  Te104  1  0.12694281  0.61607591  0.89024715  1
  Te  Te105  1  0.08545833  0.92936006  0.22781409  1
  Te  Te106  1  0.07338631  0.89014591  0.56946280  1
  Te  Te107  1  0.07528680  0.90656380  0.91207263  1
  Te  Te108  1  0.41926864  0.25678598  0.24946898  1
  Te  Te109  1  0.52964653  0.26370883  0.61765423  1
  Te  Te110  1  0.41197162  0.24218788  0.91148117  1
  Te  Te111  1  0.40887000  0.57073788  0.26207785  1
  Te  Te112  1  0.41786999  0.60804430  0.59979149  1
  Te  Te113  1  0.41057675  0.60026492  0.93018098  1
  Te  Te114  1  0.42302037  0.90964587  0.27042879  1
  Te  Te115  1  0.41961914  0.86877283  0.56305793  1
  Te  Te116  1  0.42588221  0.90832259  0.91976537  1
  Te  Te117  1  0.76730846  0.24618090  0.25674562  1
  Te  Te118  1  0.74698104  0.26379610  0.60727837  1
  Te  Te119  1  0.72660717  0.22222175  0.90457759  1
  Te  Te120  1  0.74210847  0.60354817  0.23925424  1
  Te  Te121  1  0.77030247  0.60464433  0.56506107  1
  Te  Te122  1  0.74620404  0.56327376  0.90386110  1
  Te  Te123  1  0.73239780  0.92490678  0.26695645  1
  Te  Te124  1  0.74522788  0.87778381  0.55661604  1
  Te  Te125  1  0.76156266  0.89874703  0.90374062  1
  Te  Te126  1  0.26456417  0.26775618  0.06022802  1
  Te  Te127  1  0.27871819  0.22754040  0.44180286  1
  Te  Te128  1  0.27505266  0.25004359  0.72935016  1
  Te  Te129  1  0.24040974  0.58224871  0.11298095  1
  Te  Te130  1  0.24019957  0.57333032  0.41480302  1
  Te  Te131  1  0.27267021  0.61061628  0.74493758  1
  Te  Te132  1  0.24737927  0.91697501  0.06405301  1
  Te  Te133  1  0.24739221  0.89967695  0.43103963  1
  Te  Te134  1  0.26759408  0.91185598  0.76352362  1
  Te  Te135  1  0.58460388  0.24754498  0.08898721  1
  Te  Te136  1  0.57357748  0.26116718  0.42191312  1
  Te  Te137  1  0.53661816  0.28727735  0.76554672  1
  Te  Te138  1  0.58007596  0.57652983  0.06701444  1
  Te  Te139  1  0.56059553  0.61465267  0.45511539  1
  Te  Te140  1  0.59903036  0.60093072  0.72488376  1
  Te  Te141  1  0.57796876  0.91913230  0.09091650  1
  Te  Te142  1  0.54496068  0.87565702  0.44514599  1
  Te  Te143  1  0.59144812  0.93761109  0.69018608  1
  Te  Te144  1  0.90241043  0.24435086  0.07921961  1
  Te  Te145  1  0.91763903  0.23749355  0.44128273  1
  Te  Te146  1  0.91259873  0.25488815  0.74317651  1
  Te  Te147  1  0.90914718  0.59775573  0.09448120  1
  Te  Te148  1  0.90367401  0.61303107  0.43482646  1
  Te  Te149  1  0.93158471  0.57369611  0.74739163  1
  Te  Te150  1  0.91557245  0.91266462  0.07141368  1
  Te  Te151  1  0.90509890  0.94801961  0.44831191  1
  Te  Te152  1  0.90349795  0.91678713  0.71537048  1
  Te  Te153  1  0.27626811  0.06561292  0.27566714  1
  Te  Te154  1  0.24918127  0.07137258  0.59060014  1
  Te  Te155  1  0.23714407  0.09435411  0.91325706  1
  Te  Te156  1  0.25119707  0.41393326  0.24219166  1
  Te  Te157  1  0.27360783  0.40635802  0.59489329  1
  Te  Te158  1  0.25447319  0.41025032  0.91656571  1
  Te  Te159  1  0.24544797  0.75077052  0.25487311  1
  Te  Te160  1  0.25989071  0.73210381  0.58814377  1
  Te  Te161  1  0.21670389  0.73827973  0.93211787  1
  Te  Te162  1  0.59786393  0.08417752  0.28370747  1
  Te  Te163  1  0.57179898  0.04605691  0.57582242  1
  Te  Te164  1  0.58092738  0.05835666  0.88941320  1
  Te  Te165  1  0.56252596  0.41724108  0.24148249  1
  Te  Te166  1  0.58495001  0.40890345  0.57670794  1
  Te  Te167  1  0.53638482  0.42324522  0.93394857  1
  Te  Te168  1  0.56443894  0.75449268  0.26146979  1
  Te  Te169  1  0.60944576  0.81617415  0.56986634  1
  Te  Te170  1  0.60417377  0.75330636  0.89841353  1
  Te  Te171  1  0.90388489  0.09135871  0.27271338  1
  Te  Te172  1  0.91890346  0.03944601  0.57523380  1
  Te  Te173  1  0.91046463  0.09206075  0.92311371  1
  Te  Te174  1  0.90839171  0.42007366  0.24467861  1
  Te  Te175  1  0.90117220  0.41988800  0.57300884  1
  Te  Te176  1  0.91514850  0.41732764  0.90053514  1
  Te  Te177  1  0.91492588  0.75882249  0.25889473  1
  Te  Te178  1  0.88276278  0.78461401  0.61590292  1
  Te  Te179  1  0.92459072  0.73909284  0.91856170  1
