# generated using pymatgen
data_In2Te3
_symmetry_space_group_name_H-M   'P 1'
_cell_length_a   18.94922649
_cell_length_b   18.96996118
_cell_length_c   18.96953484
_cell_angle_alpha   89.86576965
_cell_angle_beta   90.16129578
_cell_angle_gamma   90.02253267
_symmetry_Int_Tables_number   1
_chemical_formula_structural   In2Te3
_chemical_formula_sum   'In72 Te108'
_cell_volume   6818.85829516
_cell_formula_units_Z   36
loop_
 _symmetry_equiv_pos_site_id
 _symmetry_equiv_pos_as_xyz
  1  'x, y, z'
loop_
 _atom_site_type_symbol
 _atom_site_label
 _atom_site_symmetry_multiplicity
 _atom_site_fract_x
 _atom_site_fract_y
 _atom_site_fract_z
 _atom_site_occupancy
  In  In0  1  -0.02656111  0.82037138  0.81269115  1
  In  In1  1  0.51127774  0.35064363  0.49852643  1
  In  In2  1  0.84175422  0.83417715  0.65267672  1
  In  In3  1  0.51747785  0.15025784  -0.00614174  1
  In  In4  1  0.17965868  0.50763850  0.36537863  1
  In  In5  1  0.84250600  0.34764760  0.48769577  1
  In  In6  1  0.34243649  0.66485910  0.68931979  1
  In  In7  1  0.15744734  0.17352281  -0.00044712  1
  In  In8  1  0.17582765  0.00569883  0.83181852  1
  In  In9  1  0.33159824  0.18975906  0.48586094  1
  In  In10  1  0.00772223  0.32224139  0.67995239  1
  In  In11  1  0.67660553  0.34147557  0.68371101  1
  In  In12  1  -0.03143162  0.67709973  -0.00754401  1
  In  In13  1  -0.00238937  0.50034707  0.82010107  1
  In  In14  1  0.36505828  0.81206003  0.17272670  1
  In  In15  1  0.30838808  0.33169979  -0.00854794  1
  In  In16  1  0.68516957  -0.01681575  0.66100107  1
  In  In17  1  -0.05453782  0.08460867  0.49810067  1
  In  In18  1  0.85880162  0.48607723  -0.00752371  1
  In  In19  1  0.35359487  0.68539141  0.31312885  1
  In  In20  1  0.67376014  0.65420088  0.65843866  1
  In  In21  1  0.48224953  0.31778894  0.16729442  1
  In  In22  1  0.84827685  0.85083653  0.33577500  1
  In  In23  1  0.00498810  0.15367491  0.83236042  1
  In  In24  1  0.16435812  0.33150225  0.51071047  1
  In  In25  1  0.82259779  0.66616955  0.82633201  1
  In  In26  1  0.33569410  0.82545899  0.49449580  1
  In  In27  1  0.82611392  0.17197694  -0.00527256  1
  In  In28  1  -0.00389565  0.68676312  0.36296973  1
  In  In29  1  0.16152399  -0.00270124  0.18517568  1
  In  In30  1  -0.02714855  -0.03118906  0.00895468  1
  In  In31  1  0.63881123  0.52722798  0.12314306  1
  In  In32  1  0.69858813  0.33861075  -0.01696646  1
  In  In33  1  0.49996436  0.83589265  0.68102460  1
  In  In34  1  0.51861270  0.49294247  0.35346066  1
  In  In35  1  0.34717621  0.86036162  0.86478739  1
  In  In36  1  0.00424933  0.48953461  0.17053909  1
  In  In37  1  0.17604395  0.50295966  0.02343886  1
  In  In38  1  -0.00070107  0.51901267  0.51355985  1
  In  In39  1  0.67509282  0.33029321  0.32729409  1
  In  In40  1  0.67495495  -0.00622779  0.01770375  1
  In  In41  1  -0.01317425  0.31452499  0.32369073  1
  In  In42  1  0.50194897  0.31552666  0.82569301  1
  In  In43  1  0.66790833  0.50481929  0.82546961  1
  In  In44  1  0.15934221  0.68457343  0.83297077  1
  In  In45  1  0.16817461  0.82981422  -0.00447950  1
  In  In46  1  0.65911586  0.14647449  0.15796473  1
  In  In47  1  0.49207377  0.65505356  0.48991004  1
  In  In48  1  0.85660577  0.31791410  0.15442777  1
  In  In49  1  0.31699916  0.01836839  0.34689204  1
  In  In50  1  0.30550158  0.33862562  0.67181339  1
  In  In51  1  0.13344260  -0.01898774  0.54466801  1
  In  In52  1  0.35241019  0.49956188  0.19095772  1
  In  In53  1  0.52542225  -0.02782830  0.47913518  1
  In  In54  1  0.51159189  -0.01620425  0.16079141  1
  In  In55  1  0.33584700  0.33514002  0.32440604  1
  In  In56  1  -0.00264764  0.85376459  0.18624738  1
  In  In57  1  0.32446902  0.01029537  0.67960238  1
  In  In58  1  0.15129572  0.18679681  0.67157170  1
  In  In59  1  0.66571544  0.83843869  0.47429055  1
  In  In60  1  0.48323855  0.14035062  0.66306709  1
  In  In61  1  0.78404636  0.70371910  0.15392173  1
  In  In62  1  0.82911150  0.67570778  0.50861072  1
  In  In63  1  0.17164784  0.68255052  0.18814344  1
  In  In64  1  0.16502503  0.67221822  0.49985041  1
  In  In65  1  0.68071745  0.17460964  0.47936867  1
  In  In66  1  0.50554410  0.48685859  0.67784503  1
  In  In67  1  0.39997257  0.66470292  0.01717435  1
  In  In68  1  0.64790569  0.84759346  0.85617431  1
  In  In69  1  0.85134054  0.11219901  0.31174685  1
  In  In70  1  0.13540194  0.32112231  0.16812364  1
  In  In71  1  0.34516818  -0.00981401  0.01221239  1
  Te  Te72  1  0.08893185  0.05214962  0.06246490  1
  Te  Te73  1  0.08155831  0.07343895  0.44328001  1
  Te  Te74  1  0.08284731  0.06411049  0.72994988  1
  Te  Te75  1  0.06477061  0.40395040  0.06154561  1
  Te  Te76  1  0.06716206  0.41403276  0.41041870  1
  Te  Te77  1  0.09540976  0.41032852  0.75794915  1
  Te  Te78  1  0.07656781  0.74931934  0.08758175  1
  Te  Te79  1  0.09197518  0.77651722  0.42427133  1
  Te  Te80  1  0.08437385  0.76519963  0.73356349  1
  Te  Te81  1  0.42153342  0.09102553  0.09489674  1
  Te  Te82  1  0.42421195  0.08259226  0.43510942  1
  Te  Te83  1  0.41684574  0.07321421  0.77435729  1
  Te  Te84  1  0.40618563  0.41496212  0.07913327  1
  Te  Te85  1  0.40079188  0.42619981  0.42510174  1
  Te  Te86  1  0.40519415  0.41383614  0.76268876  1
  Te  Te87  1  0.45837206  0.80297410  0.04660035  1
  Te  Te88  1  0.44253790  0.76974037  0.40391835  1
  Te  Te89  1  0.42427359  0.75566155  0.78185817  1
  Te  Te90  1  0.77718236  0.07483167  0.10022502  1
  Te  Te91  1  0.73804940  0.07088556  0.39371980  1
  Te  Te92  1  0.77261102  0.08599081  0.71742155  1
  Te  Te93  1  0.75294628  0.42620659  0.09800009  1
  Te  Te94  1  0.74498906  0.42696765  0.41113637  1
  Te  Te95  1  0.77215637  0.41715382  0.76777348  1
  Te  Te96  1  0.69183392  0.75664316  0.05204085  1
  Te  Te97  1  0.75293706  0.74295368  0.39763707  1
  Te  Te98  1  0.73269981  0.76741417  0.74210824  1
  Te  Te99  1  0.04893825  0.21558884  0.23040019  1
  Te  Te100  1  0.05806708  0.23925427  0.56164294  1
  Te  Te101  1  0.10702900  0.24800699  0.88358758  1
  Te  Te102  1  0.08455940  0.58289901  0.26343412  1
  Te  Te103  1  0.10659981  0.57577574  0.59411833  1
  Te  Te104  1  0.07988027  0.59338827  0.93611046  1
  Te  Te105  1  0.05908189  0.94803459  0.28310118  1
  Te  Te106  1  0.04531479  0.87443434  0.59479185  1
  Te  Te107  1  0.07817423  0.90692494  0.90283061  1
  Te  Te108  1  0.41212305  0.22968371  0.25970449  1
  Te  Te109  1  0.42402950  0.26404718  0.59033099  1
  Te  Te110  1  0.41705827  0.24187239  0.92659158  1
  Te  Te111  1  0.45722349  0.59199143  0.24908796  1
  Te  Te112  1  0.41510182  0.57301269  0.59063546  1
  Te  Te113  1  0.43040898  0.56138992  0.92155107  1
  Te  Te114  1  0.40666837  0.93200062  0.25975358  1
  Te  Te115  1  0.41762064  0.92513648  0.58525148  1
  Te  Te116  1  0.45770201  0.93328145  0.93345747  1
  Te  Te117  1  0.75889207  0.23873453  0.23947441  1
  Te  Te118  1  0.75426794  0.26065149  0.57792464  1
  Te  Te119  1  0.73924514  0.23274078  0.89058761  1
  Te  Te120  1  0.69876518  0.60958057  0.22810927  1
  Te  Te121  1  0.78113712  0.57356325  0.60267257  1
  Te  Te122  1  0.75621782  0.57706548  0.92839002  1
  Te  Te123  1  0.74836196  0.89705387  0.23889472  1
  Te  Te124  1  0.76704110  0.92014033  0.55058048  1
  Te  Te125  1  0.75155599  0.93882733  0.90431889  1
  Te  Te126  1  0.24701920  0.24492617  0.10022034  1
  Te  Te127  1  0.22718490  0.25452435  0.39581581  1
  Te  Te128  1  0.25971369  0.23190235  0.76014671  1
  Te  Te129  1  0.26850730  0.60113007  0.10510562  1
  Te  Te130  1  0.27980115  0.60389505  0.41925347  1
  Te  Te131  1  0.25292172  0.58770597  0.77599959  1
  Te  Te132  1  0.25335135  0.90135653  0.09863668  1
  Te  Te133  1  0.23941109  0.92928612  0.44260717  1
  Te  Te134  1  0.25123728  0.89977981  0.75311728  1
  Te  Te135  1  0.59640263  0.26152610  0.07527954  1
  Te  Te136  1  0.57066644  0.24998241  0.40396026  1
  Te  Te137  1  0.58638793  0.23063547  0.73448437  1
  Te  Te138  1  0.54093855  0.58835897  0.02233802  1
  Te  Te139  1  0.60472127  0.58531622  0.42914160  1
  Te  Te140  1  0.57115215  0.59962594  0.75533425  1
  Te  Te141  1  0.63610339  0.89672633  0.12972201  1
  Te  Te142  1  0.59762078  0.91272054  0.36530718  1
  Te  Te143  1  0.57465836  0.94214742  0.75676380  1
  Te  Te144  1  0.93663370  0.24943773  0.05442339  1
  Te  Te145  1  0.90009865  0.22700438  0.41212388  1
  Te  Te146  1  0.91178038  0.22287087  0.73757097  1
  Te  Te147  1  0.90817564  0.58832832  0.10023953  1
  Te  Te148  1  0.90543956  0.57820322  0.41118360  1
  Te  Te149  1  0.93027053  0.60868885  0.74654893  1
  Te  Te150  1  0.88371383  0.90125503  0.10489334  1
  Te  Te151  1  0.90294446  0.96112801  0.42041211  1
  Te  Te152  1  0.90961343  0.93386686  0.73999456  1
  Te  Te153  1  0.23566607  0.10102041  0.25592869  1
  Te  Te154  1  0.25222485  0.10420696  0.58384044  1
  Te  Te155  1  0.26130837  0.08323618  0.92760220  1
  Te  Te156  1  0.22618118  0.42361179  0.24027243  1
  Te  Te157  1  0.23741714  0.43451772  0.58336791  1
  Te  Te158  1  0.23954512  0.43392559  0.91163454  1
  Te  Te159  1  0.24337218  0.78111559  0.27287482  1
  Te  Te160  1  0.25591229  0.75129910  0.59741556  1
  Te  Te161  1  0.26980092  0.73958205  0.93411373  1
  Te  Te162  1  0.56692049  0.08544903  0.25207164  1
  Te  Te163  1  0.59119448  0.07813927  0.57025124  1
  Te  Te164  1  0.63148529  0.09784492  0.91718206  1
  Te  Te165  1  0.58129781  0.41294735  0.23568519  1
  Te  Te166  1  0.60785435  0.43223587  0.58118283  1
  Te  Te167  1  0.58506075  0.40982583  0.91113157  1
  Te  Te168  1  0.50184606  0.75002626  0.18328729  1
  Te  Te169  1  0.58120301  0.75770079  0.57991860  1
  Te  Te170  1  0.60604452  0.72755105  0.92922277  1
  Te  Te171  1  0.97066310  0.07656765  0.23659364  1
  Te  Te172  1  0.90472598  0.07689329  0.64322916  1
  Te  Te173  1  0.90879906  0.06895275  0.91553237  1
  Te  Te174  1  0.90061752  0.42153186  0.25780434  1
  Te  Te175  1  0.92134938  0.41886296  0.59556815  1
  Te  Te176  1  0.90494275  0.40179219  0.88269440  1
  Te  Te177  1  0.91359140  0.73353046  0.24459458  1
  Te  Te178  1  0.93976200  0.76228200  0.56428135  1
  Te  Te179  1  0.87852005  0.77396737  0.92337652  1
