# generated using pymatgen
data_In2Te3
_symmetry_space_group_name_H-M   'P 1'
_cell_length_a   18.95649431
_cell_length_b   18.97189438
_cell_length_c   18.95995854
_cell_angle_alpha   89.85069935
_cell_angle_beta   90.00950891
_cell_angle_gamma   90.05266343
_symmetry_Int_Tables_number   1
_chemical_formula_structural   In2Te3
_chemical_formula_sum   'In72 Te108'
_cell_volume   6818.74489120
_cell_formula_units_Z   36
loop_
 _symmetry_equiv_pos_site_id
 _symmetry_equiv_pos_as_xyz
  1  'x, y, z'
loop_
 _atom_site_type_symbol
 _atom_site_label
 _atom_site_symmetry_multiplicity
 _atom_site_fract_x
 _atom_site_fract_y
 _atom_site_fract_z
 _atom_site_occupancy
  In  In0  1  0.85522048  0.88012881  0.69809164  1
  In  In1  1  0.14587520  0.82249181  0.33257501  1
  In  In2  1  0.49947009  0.64868543  0.17159204  1
  In  In3  1  0.50546794  0.83274830  0.02635898  1
  In  In4  1  0.14029366  0.18234282  0.67798734  1
  In  In5  1  -0.00310444  0.82824159  0.51202334  1
  In  In6  1  0.81341199  0.32686329  0.52550453  1
  In  In7  1  0.83656167  0.66655390  0.49365068  1
  In  In8  1  0.49439306  0.02351830  0.82938063  1
  In  In9  1  0.33759197  0.15803563  0.50046431  1
  In  In10  1  0.31755991  0.13607545  0.12417841  1
  In  In11  1  0.33415027  0.48238944  0.14313842  1
  In  In12  1  0.31001677  0.64780539  -0.00716884  1
  In  In13  1  0.31578703  0.68093081  0.32500831  1
  In  In14  1  0.35198202  0.50259399  0.48829439  1
  In  In15  1  0.68392160  0.85520450  0.18026799  1
  In  In16  1  0.15976202  0.00037429  0.48444478  1
  In  In17  1  0.50276408  0.81682948  0.65954926  1
  In  In18  1  0.64755614  0.86030613  0.85463614  1
  In  In19  1  0.15981205  0.32510762  0.50464396  1
  In  In20  1  0.66578281  0.33527220  0.00439618  1
  In  In21  1  0.33733743  0.30655930  0.02535511  1
  In  In22  1  0.69897289  0.01669522  0.33486660  1
  In  In23  1  0.16960317  0.67443072  0.82946870  1
  In  In24  1  0.33522276  0.30964909  0.65500595  1
  In  In25  1  0.84209958  0.67812201  0.17870937  1
  In  In26  1  -0.01715536  0.83583923  0.17988526  1
  In  In27  1  0.66416199  0.66854297  0.33885872  1
  In  In28  1  0.65494892  0.33674293  0.66975426  1
  In  In29  1  0.08355457  0.34726140  0.80211237  1
  In  In30  1  0.54776089  0.02467843  0.51119158  1
  In  In31  1  0.29047914  0.63904732  0.65890403  1
  In  In32  1  0.83210044  0.15154619  0.01714509  1
  In  In33  1  0.52965691  0.00732854  0.18504045  1
  In  In34  1  -0.04186619  0.02860208  0.32597765  1
  In  In35  1  0.51584981  0.48828204  0.34684030  1
  In  In36  1  0.85259197  0.31404070  0.13894029  1
  In  In37  1  -0.00433686  0.00181714  -0.01433771  1
  In  In38  1  0.14740172  0.15950084  0.33644038  1
  In  In39  1  0.52882078  0.32389527  0.49299508  1
  In  In40  1  0.84004047  0.00799395  0.52494649  1
  In  In41  1  0.69366483  0.31865869  0.33312932  1
  In  In42  1  0.51146813  0.17859548  -0.01847351  1
  In  In43  1  0.69962622  0.46796539  0.16002314  1
  In  In44  1  -0.00430351  0.51229338  0.18187870  1
  In  In45  1  0.33969845  0.81221220  0.50832202  1
  In  In46  1  0.67504634  0.68445402  0.66078731  1
  In  In47  1  0.85111246  0.49297049  0.65904199  1
  In  In48  1  -0.02143905  0.31527465  0.35961845  1
  In  In49  1  0.00552426  0.69219940  0.02146086  1
  In  In50  1  0.50992948  0.52968875  -0.01401433  1
  In  In51  1  0.17957918  0.50588804  0.32214328  1
  In  In52  1  0.13829514  0.34205227  0.18943781  1
  In  In53  1  0.49487683  0.29070581  0.17197010  1
  In  In54  1  0.83010942  0.84042469  -0.00145321  1
  In  In55  1  0.86738867  0.31857490  0.83366799  1
  In  In56  1  0.50619884  0.70903955  0.81523870  1
  In  In57  1  0.85127013  0.50034414  0.36874980  1
  In  In58  1  0.33096157  0.47426040  0.82072217  1
  In  In59  1  0.15213346  -0.02155869  0.13240074  1
  In  In60  1  0.49610801  0.85994715  0.34170157  1
  In  In61  1  -0.01957488  0.16407069  0.82750289  1
  In  In62  1  0.15627106  0.50187473  -0.00166619  1
  In  In63  1  0.83828258  0.68015502  0.83628419  1
  In  In64  1  0.33768435  -0.01696681  0.67327582  1
  In  In65  1  0.34319561  0.00489003  0.32190837  1
  In  In66  1  0.69677034  0.15450120  0.79696208  1
  In  In67  1  0.00879459  0.64622971  0.64596256  1
  In  In68  1  0.48547335  0.33672272  0.84095346  1
  In  In69  1  0.31977648  0.84334184  0.84925849  1
  In  In70  1  0.68482555  0.53680695  0.80981379  1
  In  In71  1  0.16296762  0.86351732  0.69000238  1
  Te  Te72  1  0.06595988  0.08510781  0.08385331  1
  Te  Te73  1  0.05046472  0.09253489  0.43215271  1
  Te  Te74  1  0.06654635  0.07101491  0.74531174  1
  Te  Te75  1  0.06209980  0.41801998  0.08241085  1
  Te  Te76  1  0.08644906  0.41208396  0.40290426  1
  Te  Te77  1  0.04731774  0.41614450  0.67176852  1
  Te  Te78  1  0.09203335  0.78216350  0.09756076  1
  Te  Te79  1  0.09288536  0.74235997  0.44285721  1
  Te  Te80  1  0.07506129  0.74954896  0.73948051  1
  Te  Te81  1  0.44929140  0.07280859  0.06985447  1
  Te  Te82  1  0.43448781  0.07751906  0.41682007  1
  Te  Te83  1  0.40316372  0.09547095  0.73989287  1
  Te  Te84  1  0.44764677  0.41243651  0.06686162  1
  Te  Te85  1  0.41823143  0.39097717  0.40918396  1
  Te  Te86  1  0.42778871  0.41315271  0.72338684  1
  Te  Te87  1  0.40770153  0.72845206  0.08037512  1
  Te  Te88  1  0.42849596  0.74123094  0.40904338  1
  Te  Te89  1  0.38045659  0.75632727  0.74055938  1
  Te  Te90  1  0.77895068  0.06109429  0.12115131  1
  Te  Te91  1  0.77343228  0.10396381  0.43084546  1
  Te  Te92  1  0.75352557  0.04193793  0.71302234  1
  Te  Te93  1  0.78638593  0.41796519  0.04660595  1
  Te  Te94  1  0.73779516  0.42271893  0.43251140  1
  Te  Te95  1  0.76058589  0.41446729  0.75841682  1
  Te  Te96  1  0.74520403  0.75088250  0.08808153  1
  Te  Te97  1  0.76366623  0.75433742  0.40181468  1
  Te  Te98  1  0.74075211  0.77366691  0.76433782  1
  Te  Te99  1  0.04790134  0.23569285  0.25051440  1
  Te  Te100  1  0.06282945  0.23270901  0.56461573  1
  Te  Te101  1  0.08702824  0.23644982  0.89999838  1
  Te  Te102  1  0.08831147  0.59813796  0.25418992  1
  Te  Te103  1  0.10155208  0.54236271  0.60347131  1
  Te  Te104  1  0.07260547  0.59884015  0.91947100  1
  Te  Te105  1  0.06956032  0.93860828  0.26855124  1
  Te  Te106  1  0.07207333  0.93453236  0.58981049  1
  Te  Te107  1  0.06389799  0.91321709  0.89136239  1
  Te  Te108  1  0.38756762  0.21586784  0.23279029  1
  Te  Te109  1  0.44177502  0.23168767  0.58199547  1
  Te  Te110  1  0.39291399  0.23445894  0.90365363  1
  Te  Te111  1  0.40577932  0.56476476  0.25631330  1
  Te  Te112  1  0.40858144  0.59777826  0.58533793  1
  Te  Te113  1  0.40708338  0.59258335  0.88887580  1
  Te  Te114  1  0.41524713  0.91413148  0.22474915  1
  Te  Te115  1  0.42782976  0.92528112  0.56502732  1
  Te  Te116  1  0.43351870  0.91355158  0.91902388  1
  Te  Te117  1  0.76823471  0.23501917  0.23415596  1
  Te  Te118  1  0.71113066  0.22886793  0.58081815  1
  Te  Te119  1  0.74875082  0.25044616  0.91032286  1
  Te  Te120  1  0.75595074  0.56868335  0.25897460  1
  Te  Te121  1  0.75128263  0.57790968  0.58321472  1
  Te  Te122  1  0.75556350  0.59427832  0.92246814  1
  Te  Te123  1  0.78336712  0.91594855  0.26760693  1
  Te  Te124  1  0.75193847  0.91113881  0.59655458  1
  Te  Te125  1  0.75980255  0.93615870  0.91018697  1
  Te  Te126  1  0.21509961  0.25106142  0.09559617  1
  Te  Te127  1  0.24946059  0.24285321  0.41113348  1
  Te  Te128  1  0.22401926  0.28126629  0.75357804  1
  Te  Te129  1  0.22876401  0.58458072  0.10407121  1
  Te  Te130  1  0.24509869  0.59397111  0.42709260  1
  Te  Te131  1  0.21569387  0.54744924  0.75546626  1
  Te  Te132  1  0.26401502  0.93202475  0.05139830  1
  Te  Te133  1  0.26400785  0.91219223  0.41620055  1
  Te  Te134  1  0.23779760  0.95438364  0.78776746  1
  Te  Te135  1  0.60656300  0.22753985  0.09220619  1
  Te  Te136  1  0.58532819  0.23465103  0.38832808  1
  Te  Te137  1  0.57670281  0.24493119  0.76247070  1
  Te  Te138  1  0.60586381  0.57423143  0.09403354  1
  Te  Te139  1  0.58100319  0.58874591  0.42896481  1
  Te  Te140  1  0.56800413  0.59632369  0.73566536  1
  Te  Te141  1  0.60705943  0.93467187  0.07602827  1
  Te  Te142  1  0.60840773  0.91977597  0.42075093  1
  Te  Te143  1  0.57099869  0.92416131  0.74046981  1
  Te  Te144  1  0.94285602  0.24313651  0.04829812  1
  Te  Te145  1  0.87917828  0.23062524  0.43070739  1
  Te  Te146  1  0.90069588  0.23239913  0.71679015  1
  Te  Te147  1  0.91167071  0.58790384  0.07928675  1
  Te  Te148  1  0.94615753  0.58552436  0.43870575  1
  Te  Te149  1  0.92371617  0.58248424  0.75685779  1
  Te  Te150  1  0.90507542  0.93167427  0.09307763  1
  Te  Te151  1  0.91358871  0.91895278  0.42443388  1
  Te  Te152  1  0.96919492  0.94045027  0.77649962  1
  Te  Te153  1  0.22846739  0.06855785  0.24629390  1
  Te  Te154  1  0.24143603  0.07926821  0.58767069  1
  Te  Te155  1  0.28784290  0.06614685  0.99452331  1
  Te  Te156  1  0.26425729  0.40115172  0.25015748  1
  Te  Te157  1  0.26104757  0.41320254  0.57544660  1
  Te  Te158  1  0.26128283  0.41073664  0.93875074  1
  Te  Te159  1  0.24849164  0.77683180  0.23841535  1
  Te  Te160  1  0.22678891  0.76086082  0.59354497  1
  Te  Te161  1  0.22697075  0.76285233  0.93864371  1
  Te  Te162  1  0.59160003  0.10322669  0.27718135  1
  Te  Te163  1  0.63217952  0.09644666  0.60819759  1
  Te  Te164  1  0.60863462  0.08905237  0.90506598  1
  Te  Te165  1  0.58613235  0.40372037  0.24083531  1
  Te  Te166  1  0.58596872  0.42761380  0.57869690  1
  Te  Te167  1  0.59164108  0.42914424  0.90317713  1
  Te  Te168  1  0.57313054  0.76134719  0.24237448  1
  Te  Te169  1  0.59192959  0.75461809  0.56312456  1
  Te  Te170  1  0.58828264  0.74170698  0.93638295  1
  Te  Te171  1  0.87270121  0.10872963  0.22867063  1
  Te  Te172  1  0.87771501  0.09724395  0.64008447  1
  Te  Te173  1  0.88246412  0.07085784  0.89997855  1
  Te  Te174  1  0.90541837  0.41082228  0.25615203  1
  Te  Te175  1  0.93260942  0.41293728  0.56322107  1
  Te  Te176  1  0.97225845  0.41040769  0.87686592  1
  Te  Te177  1  0.92951607  0.73952735  0.27707459  1
  Te  Te178  1  0.90048639  0.75758946  0.60966071  1
  Te  Te179  1  0.93303189  0.77106452  0.91174913  1
