# generated using pymatgen
data_In2Te3
_symmetry_space_group_name_H-M   'P 1'
_cell_length_a   19.01788959
_cell_length_b   19.02064528
_cell_length_c   19.04325453
_cell_angle_alpha   89.91769354
_cell_angle_beta   89.89913778
_cell_angle_gamma   89.99019763
_symmetry_Int_Tables_number   1
_chemical_formula_structural   In2Te3
_chemical_formula_sum   'In72 Te108'
_cell_volume   6888.54679557
_cell_formula_units_Z   36
loop_
 _symmetry_equiv_pos_site_id
 _symmetry_equiv_pos_as_xyz
  1  'x, y, z'
loop_
 _atom_site_type_symbol
 _atom_site_label
 _atom_site_symmetry_multiplicity
 _atom_site_fract_x
 _atom_site_fract_y
 _atom_site_fract_z
 _atom_site_occupancy
  In  In0  1  0.32522695  0.32150413  0.33168026  1
  In  In1  1  0.47761994  0.18262664  0.00840616  1
  In  In2  1  0.69292360  0.29921538  -0.02673634  1
  In  In3  1  -0.01602717  0.16511734  0.82265687  1
  In  In4  1  0.00111901  0.64545413  0.65413052  1
  In  In5  1  0.82809413  0.17158656  0.66846401  1
  In  In6  1  0.68128882  0.51001768  0.18582311  1
  In  In7  1  -0.03529428  -0.02522218  0.34994671  1
  In  In8  1  0.81336127  0.49754427  0.36764418  1
  In  In9  1  0.68037200  0.68278715  0.01757579  1
  In  In10  1  0.16679581  0.33615640  0.14181285  1
  In  In11  1  0.52297276  -0.00204879  0.83511405  1
  In  In12  1  0.84352360  0.49083509  -0.00486538  1
  In  In13  1  -0.02342229  0.85087686  0.82016086  1
  In  In14  1  0.50839282  0.85443711  0.64381682  1
  In  In15  1  0.66163834  0.14506886  0.16172459  1
  In  In16  1  0.16418958  0.81847482  0.63073121  1
  In  In17  1  0.35695572  0.52918874  0.17047408  1
  In  In18  1  0.15536097  0.32242545  0.81786414  1
  In  In19  1  0.82291803  0.83346579  0.67072832  1
  In  In20  1  0.85003969  0.47748104  0.65668010  1
  In  In21  1  -0.01676468  -0.01110462  0.63844101  1
  In  In22  1  0.17701054  0.48292634  0.36115100  1
  In  In23  1  -0.01786484  0.48575704  0.82611074  1
  In  In24  1  0.81033021  0.83450047  0.32484879  1
  In  In25  1  0.67950524  0.50048079  0.83506176  1
  In  In26  1  0.34258871  0.50589338  0.49805682  1
  In  In27  1  0.11291022  0.01551945  0.18794313  1
  In  In28  1  0.35672739  0.84147361  0.84714726  1
  In  In29  1  -0.01041608  0.02005727  -0.02422968  1
  In  In30  1  0.52950270  0.63378064  0.48455901  1
  In  In31  1  0.35291728  0.69722405  0.65358026  1
  In  In32  1  0.65349185  0.38172132  0.37253122  1
  In  In33  1  0.15940515  0.82807279  0.34467264  1
  In  In34  1  -0.01424095  0.65347372  0.01590272  1
  In  In35  1  0.52772072  0.69695007  0.19898464  1
  In  In36  1  0.49816935  0.16182882  0.66519053  1
  In  In37  1  0.03365153  0.31511456  0.63896971  1
  In  In38  1  0.68448295  0.00656342  0.34230458  1
  In  In39  1  0.34629926  0.17131836  0.82574890  1
  In  In40  1  0.83713642  0.68551863  0.50545086  1
  In  In41  1  0.67356985  -0.00360312  0.01765107  1
  In  In42  1  0.51385687  0.48524057  0.00471380  1
  In  In43  1  0.48778430  0.18562037  0.34911371  1
  In  In44  1  0.34141403  0.00631149  -0.00822478  1
  In  In45  1  -0.00544516  0.32875985  0.35527423  1
  In  In46  1  0.32636989  0.84196247  0.17113590  1
  In  In47  1  0.53194048  0.65864735  0.86487356  1
  In  In48  1  0.83488996  0.84556094  0.00566661  1
  In  In49  1  0.35203029  0.65671386  0.03668444  1
  In  In50  1  0.16255418  0.16898004  0.34239857  1
  In  In51  1  0.49580248  0.00124588  0.47752724  1
  In  In52  1  0.49978221  0.34292877  0.51827351  1
  In  In53  1  0.31896247  -0.01572942  0.34847906  1
  In  In54  1  0.01185674  0.48003400  0.17239710  1
  In  In55  1  0.67059230  0.67204051  0.66418232  1
  In  In56  1  0.69280388  0.00892544  0.65280934  1
  In  In57  1  0.65328807  0.33182863  0.65946874  1
  In  In58  1  0.83813585  0.17007603  0.34205458  1
  In  In59  1  0.16856624  0.65486500  0.17967520  1
  In  In60  1  0.17648051  0.00791144  0.79003584  1
  In  In61  1  0.15385716  0.66742734  0.84851381  1
  In  In62  1  0.81456679  0.32272015  0.17447508  1
  In  In63  1  0.18021983  0.52993559  0.64294916  1
  In  In64  1  0.33961352  0.32853429  0.67308238  1
  In  In65  1  0.50942692  -0.02594476  0.16620171  1
  In  In66  1  0.15079366  0.82747526  -0.00315244  1
  In  In67  1  0.31889075  0.19325449  0.18213046  1
  In  In68  1  -0.02048059  0.16978366  0.16027493  1
  In  In69  1  -0.02852682  0.69030003  0.32798645  1
  In  In70  1  0.30810755  0.00676840  0.63571168  1
  In  In71  1  0.32849826  0.47997589  0.81221437  1
  Te  Te72  1  0.08288820  0.10158889  0.07040150  1
  Te  Te73  1  0.05135585  0.09037323  0.39962316  1
  Te  Te74  1  0.06755432  0.08472247  0.72355057  1
  Te  Te75  1  0.06249755  0.40035854  0.06268109  1
  Te  Te76  1  0.06982906  0.42153749  0.44282841  1
  Te  Te77  1  0.09080098  0.43951787  0.72835518  1
  Te  Te78  1  0.07656976  0.74332987  0.09752135  1
  Te  Te79  1  0.07043252  0.74066125  0.42335828  1
  Te  Te80  1  0.07619817  0.75216585  0.75019071  1
  Te  Te81  1  0.41209243  0.07676968  0.10658380  1
  Te  Te82  1  0.38780639  0.09674975  0.42137042  1
  Te  Te83  1  0.41177823  0.05276527  0.74635108  1
  Te  Te84  1  0.40797404  0.42412718  0.08393775  1
  Te  Te85  1  0.41917565  0.41087347  0.40853409  1
  Te  Te86  1  0.43477959  0.41701605  0.73869787  1
  Te  Te87  1  0.43429949  0.76626493  0.09660093  1
  Te  Te88  1  0.46269611  0.72746239  0.39128250  1
  Te  Te89  1  0.44893394  0.76041988  0.75779512  1
  Te  Te90  1  0.76723574  0.09300073  0.07722824  1
  Te  Te91  1  0.76152054  0.08760337  0.43643054  1
  Te  Te92  1  0.72123776  0.11373174  0.75863160  1
  Te  Te93  1  0.73394116  0.41707182  0.07509316  1
  Te  Te94  1  0.78056702  0.37727017  0.44891698  1
  Te  Te95  1  0.75624466  0.40370243  0.74967699  1
  Te  Te96  1  0.78344629  0.74302267  0.10361087  1
  Te  Te97  1  0.73940578  0.72336049  0.39895246  1
  Te  Te98  1  0.74947309  0.74622029  0.76058067  1
  Te  Te99  1  0.07889911  0.25775229  0.24770670  1
  Te  Te100  1  0.12341439  0.22936470  0.55961842  1
  Te  Te101  1  0.08103513  0.23414858  0.90680146  1
  Te  Te102  1  0.07554087  0.57647127  0.26982447  1
  Te  Te103  1  0.10270229  0.61523951  0.55204577  1
  Te  Te104  1  0.07058128  0.56848942  0.92341330  1
  Te  Te105  1  0.05657075  0.89519030  0.25441234  1
  Te  Te106  1  0.09349824  0.92657927  0.55899161  1
  Te  Te107  1  0.09377832  0.92411866  0.89462777  1
  Te  Te108  1  0.43522630  0.27051165  0.23571042  1
  Te  Te109  1  0.40562887  0.23610511  0.57287695  1
  Te  Te110  1  0.41156135  0.26831374  0.91133449  1
  Te  Te111  1  0.43307588  0.60661408  0.27016670  1
  Te  Te112  1  0.43030414  0.58438449  0.59248385  1
  Te  Te113  1  0.41582626  0.57880776  0.92005604  1
  Te  Te114  1  0.42049148  0.90566361  0.27151961  1
  Te  Te115  1  0.39948662  0.91365407  0.55714555  1
  Te  Te116  1  0.44942134  0.91351760  0.94160791  1
  Te  Te117  1  0.72574711  0.23999598  0.26268053  1
  Te  Te118  1  0.76086338  0.27052435  0.57774495  1
  Te  Te119  1  0.75763038  0.20315597  0.88257567  1
  Te  Te120  1  0.73986287  0.59978359  0.28660212  1
  Te  Te121  1  0.76249215  0.58065645  0.58521057  1
  Te  Te122  1  0.75908080  0.59311253  0.92221482  1
  Te  Te123  1  0.74261538  0.92841387  0.23058636  1
  Te  Te124  1  0.75606000  0.90949579  0.56254473  1
  Te  Te125  1  0.74339853  0.91654370  0.91680408  1
  Te  Te126  1  0.25226742  0.24548596  0.06546747  1
  Te  Te127  1  0.22826655  0.26741233  0.43022877  1
  Te  Te128  1  0.24201899  0.23052576  0.73413506  1
  Te  Te129  1  0.23590488  0.56961297  0.07650973  1
  Te  Te130  1  0.26425029  0.58894573  0.40742761  1
  Te  Te131  1  0.25629902  0.61389541  0.74919913  1
  Te  Te132  1  0.24057505  0.92191878  0.07494267  1
  Te  Te133  1  0.20791229  0.93733289  0.43217835  1
  Te  Te134  1  0.25662466  0.88661895  0.74197694  1
  Te  Te135  1  0.59311911  0.25235609  0.07846218  1
  Te  Te136  1  0.58771882  0.25173759  0.43627454  1
  Te  Te137  1  0.57775554  0.24513506  0.75269427  1
  Te  Te138  1  0.57787164  0.59418400  0.08980299  1
  Te  Te139  1  0.60508298  0.51887330  0.42852420  1
  Te  Te140  1  0.58353881  0.57845353  0.74905540  1
  Te  Te141  1  0.62468800  0.89653571  0.11970966  1
  Te  Te142  1  0.59502116  0.91211843  0.41511931  1
  Te  Te143  1  0.60650438  0.91645303  0.73978377  1
  Te  Te144  1  0.89872917  0.25678833  0.07558117  1
  Te  Te145  1  0.94642742  0.21407226  0.43695465  1
  Te  Te146  1  0.92461602  0.27074709  0.73298125  1
  Te  Te147  1  0.90472948  0.56784859  0.11073866  1
  Te  Te148  1  0.91985800  0.58570450  0.42676907  1
  Te  Te149  1  0.90060686  0.58785486  0.75034052  1
  Te  Te150  1  0.94192281  0.92213084  0.07113927  1
  Te  Te151  1  0.87338925  0.90284647  0.44110297  1
  Te  Te152  1  0.88947365  0.94940791  0.75179614  1
  Te  Te153  1  0.24191753  0.07065359  0.24283647  1
  Te  Te154  1  0.20978178  0.10416101  0.59209034  1
  Te  Te155  1  0.24790336  0.08193010  0.90290168  1
  Te  Te156  1  0.24949649  0.42159224  0.24249087  1
  Te  Te157  1  0.25401629  0.41483327  0.58080568  1
  Te  Te158  1  0.23660284  0.41355990  0.90022112  1
  Te  Te159  1  0.25695481  0.74420517  0.26259199  1
  Te  Te160  1  0.26895645  0.75532740  0.55060916  1
  Te  Te161  1  0.26287790  0.74611525  0.93160373  1
  Te  Te162  1  0.56130744  0.08217931  0.26505667  1
  Te  Te163  1  0.58394665  0.07945803  0.57284917  1
  Te  Te164  1  0.57593748  0.09057022  0.93919851  1
  Te  Te165  1  0.58372923  0.42496207  0.25165985  1
  Te  Te166  1  0.59940237  0.44043289  0.57044126  1
  Te  Te167  1  0.59419778  0.40067098  0.90982787  1
  Te  Te168  1  0.58738063  0.76744385  0.31607803  1
  Te  Te169  1  0.58679000  0.75260134  0.56692725  1
  Te  Te170  1  0.60046807  0.76829146  0.92905034  1
  Te  Te171  1  0.90420903  0.07282163  0.24675815  1
  Te  Te172  1  0.90205547  0.09070416  0.56882633  1
  Te  Te173  1  0.88239127  0.10292077  0.91431470  1
  Te  Te174  1  0.89831587  0.41245074  0.26365937  1
  Te  Te175  1  0.95564823  0.42095549  0.56879780  1
  Te  Te176  1  0.90040467  0.39315738  0.90341784  1
  Te  Te177  1  0.89203495  0.75764578  0.22472631  1
  Te  Te178  1  0.93277211  0.76487736  0.59123357  1
  Te  Te179  1  0.92232017  0.74957306  0.91520120  1
