# generated using pymatgen
data_In2Te3
_symmetry_space_group_name_H-M   'P 1'
_cell_length_a   18.77687612
_cell_length_b   18.78015819
_cell_length_c   18.78030750
_cell_angle_alpha   90.00471704
_cell_angle_beta   89.98291135
_cell_angle_gamma   89.97940041
_symmetry_Int_Tables_number   1
_chemical_formula_structural   In2Te3
_chemical_formula_sum   'In72 Te108'
_cell_volume   6622.54986578
_cell_formula_units_Z   36
loop_
 _symmetry_equiv_pos_site_id
 _symmetry_equiv_pos_as_xyz
  1  'x, y, z'
loop_
 _atom_site_type_symbol
 _atom_site_label
 _atom_site_symmetry_multiplicity
 _atom_site_fract_x
 _atom_site_fract_y
 _atom_site_fract_z
 _atom_site_occupancy
  In  In0  1  0.13823455  0.82384224  0.34921437  1
  In  In1  1  -0.00965131  0.15417573  0.82486474  1
  In  In2  1  0.66741127  0.67659469  0.34071560  1
  In  In3  1  0.35268385  0.01421403  0.00947428  1
  In  In4  1  -0.00580586  0.51818747  0.50449132  1
  In  In5  1  0.51425646  0.31720438  0.49101799  1
  In  In6  1  0.36634931  0.70301679  0.34262243  1
  In  In7  1  0.16755290  -0.01078405  0.20790572  1
  In  In8  1  0.69834831  0.67938073  -0.00781946  1
  In  In9  1  0.16199531  0.15283537  0.32172704  1
  In  In10  1  0.49707460  0.33612625  0.17071054  1
  In  In11  1  0.82564389  0.32948049  0.83603505  1
  In  In12  1  0.35788054  0.15905960  0.80900640  1
  In  In13  1  0.84251146  -0.02156610  0.17157052  1
  In  In14  1  0.51158964  0.84071701  0.65512630  1
  In  In15  1  0.14872951  -0.00278150  0.79487297  1
  In  In16  1  0.35026907  0.84976745  0.17345763  1
  In  In17  1  0.49222756  0.16074284  -0.01150366  1
  In  In18  1  0.34667818  0.31300409  0.33442618  1
  In  In19  1  0.31759072  0.35396103  0.02378448  1
  In  In20  1  -0.01269021  0.17142148  0.15048137  1
  In  In21  1  0.32131349  0.14256353  0.52666477  1
  In  In22  1  -0.02933758  0.83089224  0.82862978  1
  In  In23  1  0.35641185  0.50631328  0.83614589  1
  In  In24  1  0.66046300  0.13915937  0.18722993  1
  In  In25  1  0.51625317  0.67590614  0.16534976  1
  In  In26  1  0.67147277  0.31219989  0.67686339  1
  In  In27  1  0.36674828  -0.02380952  0.33896400  1
  In  In28  1  0.15646000  0.50911339  0.64266532  1
  In  In29  1  0.83335986  0.51120617  0.67410790  1
  In  In30  1  0.82717301  0.14428084  0.66268292  1
  In  In31  1  0.67766161  0.32391585  0.33710244  1
  In  In32  1  0.83607454  0.82839657  0.65284972  1
  In  In33  1  -0.00957719  0.50902020  0.81730883  1
  In  In34  1  0.51285228  0.65940224  0.82806088  1
  In  In35  1  0.83466782  0.83768588  0.35322160  1
  In  In36  1  0.33326680  0.81830301  0.49651677  1
  In  In37  1  0.37211557  0.17427295  0.14993700  1
  In  In38  1  0.51330109  0.34398094  0.82732416  1
  In  In39  1  0.00758941  -0.01744973  0.34674278  1
  In  In40  1  0.66901834  0.34531746  -0.00654389  1
  In  In41  1  0.15365026  0.31016173  0.83054838  1
  In  In42  1  0.66888734  0.68988894  0.66421962  1
  In  In43  1  0.14173160  0.66501634  0.49485412  1
  In  In44  1  0.52390235  -0.01176071  0.49929895  1
  In  In45  1  0.52545703  -0.00742209  0.81711506  1
  In  In46  1  0.67267557  0.51126692  0.17429960  1
  In  In47  1  0.16859807  0.49207126  0.36782604  1
  In  In48  1  0.00525215  0.66360630  0.34092122  1
  In  In49  1  0.35727648  0.50783443  0.51468864  1
  In  In50  1  0.15579266  0.15726092  -0.03427733  1
  In  In51  1  0.35125824  0.50605338  0.16301382  1
  In  In52  1  -0.01596374  -0.00525634  0.02020778  1
  In  In53  1  0.16197401  0.82270885  -0.00931623  1
  In  In54  1  0.83367229  0.33238879  0.50556898  1
  In  In55  1  0.14541023  0.68615206  0.15151157  1
  In  In56  1  -0.02839665  0.49353645  0.18862464  1
  In  In57  1  0.79140719  0.13015624  0.35239031  1
  In  In58  1  0.81192366  0.51080732  -0.00247868  1
  In  In59  1  0.15477860  0.51417782  0.00669719  1
  In  In60  1  0.15367855  0.33619715  0.16545617  1
  In  In61  1  0.32207353  0.33350030  0.68666611  1
  In  In62  1  0.34091839  0.66437084  0.65474040  1
  In  In63  1  0.12373768  0.32988570  0.48920154  1
  In  In64  1  0.82949111  0.16408724  -0.00621178  1
  In  In65  1  0.67578659  0.50558834  0.49064834  1
  In  In66  1  0.82098755  0.68814385  0.15568986  1
  In  In67  1  -0.01898700  0.15966055  0.51567747  1
  In  In68  1  0.14579118  0.69653966  0.81306289  1
  In  In69  1  0.66884241  -0.00055468  0.65810447  1
  In  In70  1  0.53069934  0.84747192  0.02081104  1
  In  In71  1  0.30867908  0.84890316  0.83566094  1
  Te  Te72  1  0.09568026  0.07689904  0.09393996  1
  Te  Te73  1  0.09552045  0.07473287  0.43702090  1
  Te  Te74  1  0.05283144  0.07561614  0.71533509  1
  Te  Te75  1  0.06098717  0.41962522  0.08003679  1
  Te  Te76  1  0.03779786  0.41034188  0.39328359  1
  Te  Te77  1  0.08416245  0.41380386  0.74064774  1
  Te  Te78  1  0.04851186  0.75363041  0.06040933  1
  Te  Te79  1  0.03581288  0.77644333  0.45748196  1
  Te  Te80  1  0.07734735  0.79656100  0.72927704  1
  Te  Te81  1  0.46084243  0.04949703  0.11490376  1
  Te  Te82  1  0.42201403  0.08710629  0.42717269  1
  Te  Te83  1  0.43284019  0.06435045  0.72511129  1
  Te  Te84  1  0.44185726  0.43154980  0.06406805  1
  Te  Te85  1  0.42643057  0.41704320  0.41142166  1
  Te  Te86  1  0.43241054  0.43095248  0.72790498  1
  Te  Te87  1  0.41903395  0.75569530  0.07547225  1
  Te  Te88  1  0.46176501  0.76447492  0.43842292  1
  Te  Te89  1  0.41213246  0.76264237  0.75084094  1
  Te  Te90  1  0.75163429  0.06844931  0.08507454  1
  Te  Te91  1  0.74622730  0.03164961  0.45848612  1
  Te  Te92  1  0.74737361  0.06977790  0.76758022  1
  Te  Te93  1  0.75838123  0.40867936  0.10005397  1
  Te  Te94  1  0.77710263  0.42653437  0.39769399  1
  Te  Te95  1  0.73715103  0.42546594  0.75703157  1
  Te  Te96  1  0.73472250  0.78908161  0.08668307  1
  Te  Te97  1  0.75208865  0.74991299  0.44018228  1
  Te  Te98  1  0.77449614  0.73936990  0.76003636  1
  Te  Te99  1  0.06561517  0.25316906  0.25730751  1
  Te  Te100  1  0.07699909  0.24123964  0.59544162  1
  Te  Te101  1  0.04825951  0.25707433  0.92771061  1
  Te  Te102  1  0.09752461  0.57575973  0.24695553  1
  Te  Te103  1  0.04950198  0.61403673  0.61333094  1
  Te  Te104  1  0.07362269  0.59974431  0.90919701  1
  Te  Te105  1  0.05583665  0.89059097  0.23201023  1
  Te  Te106  1  0.13152671  0.95334136  0.53339275  1
  Te  Te107  1  0.08163302  0.93094097  0.91607443  1
  Te  Te108  1  0.45368941  0.22688274  0.26922228  1
  Te  Te109  1  0.40801259  0.25388676  0.58775426  1
  Te  Te110  1  0.39421168  0.25840351  0.92226972  1
  Te  Te111  1  0.43235249  0.58900818  0.26153434  1
  Te  Te112  1  0.45126095  0.60058894  0.57926434  1
  Te  Te113  1  0.42452031  0.59514942  0.92979679  1
  Te  Te114  1  0.45674594  0.87522426  0.27508640  1
  Te  Te115  1  0.40803878  0.92383363  0.57974481  1
  Te  Te116  1  0.42580415  0.91380443  0.91626141  1
  Te  Te117  1  0.76335146  0.23724276  0.24347697  1
  Te  Te118  1  0.74094456  0.22899336  0.56903423  1
  Te  Te119  1  0.72701617  0.23546987  0.90419938  1
  Te  Te120  1  0.76847156  0.58985794  0.26013577  1
  Te  Te121  1  0.76307237  0.59942622  0.57348049  1
  Te  Te122  1  0.76956619  0.60119009  0.88592179  1
  Te  Te123  1  0.74195269  0.91567246  0.26279737  1
  Te  Te124  1  0.73700213  0.90397837  0.56287101  1
  Te  Te125  1  0.69619003  0.95747813  0.87541729  1
  Te  Te126  1  0.23909888  0.23471009  0.08483272  1
  Te  Te127  1  0.24234003  0.24497455  0.42322307  1
  Te  Te128  1  0.23418183  0.21900279  0.73839454  1
  Te  Te129  1  0.25605538  0.59682129  0.08542226  1
  Te  Te130  1  0.26670531  0.60203656  0.42126246  1
  Te  Te131  1  0.24619612  0.57764127  0.74654006  1
  Te  Te132  1  0.24460546  0.92024373  0.08267476  1
  Te  Te133  1  0.24254728  0.92060531  0.41223438  1
  Te  Te134  1  0.25565137  0.92516124  0.71895343  1
  Te  Te135  1  0.58654708  0.24328260  0.08444565  1
  Te  Te136  1  0.60072977  0.22442696  0.41474747  1
  Te  Te137  1  0.57406072  0.23202880  0.75488198  1
  Te  Te138  1  0.59797943  0.59014585  0.06837666  1
  Te  Te139  1  0.57745857  0.57899716  0.40905736  1
  Te  Te140  1  0.58842817  0.58289694  0.72809330  1
  Te  Te141  1  0.58322446  0.95640695  0.10678161  1
  Te  Te142  1  0.62805438  0.95015811  0.39505665  1
  Te  Te143  1  0.61982048  0.88103094  0.76033635  1
  Te  Te144  1  0.90182822  0.26457510  0.07592933  1
  Te  Te145  1  0.89698312  0.22825715  0.41007459  1
  Te  Te146  1  0.90982117  0.25126953  0.73632051  1
  Te  Te147  1  0.91332368  0.58719915  0.08382287  1
  Te  Te148  1  0.90234441  0.59882967  0.42285360  1
  Te  Te149  1  0.89533410  0.61532241  0.76690126  1
  Te  Te150  1  0.87599375  0.89046962  0.04743132  1
  Te  Te151  1  0.89955868  0.94297028  0.44377137  1
  Te  Te152  1  0.90074154  0.93003016  0.74286964  1
  Te  Te153  1  0.28228948  0.08514043  0.24998110  1
  Te  Te154  1  0.22930737  0.04992128  0.59914660  1
  Te  Te155  1  0.25995776  0.06749945  0.89730358  1
  Te  Te156  1  0.26045290  0.41216245  0.24822221  1
  Te  Te157  1  0.24673530  0.41099431  0.56697431  1
  Te  Te158  1  0.23742685  0.41787976  0.90756919  1
  Te  Te159  1  0.24569051  0.75620599  0.25217882  1
  Te  Te160  1  0.23186423  0.74867649  0.58814819  1
  Te  Te161  1  0.25590043  0.72909162  0.91509943  1
  Te  Te162  1  0.59024746  0.03974835  0.27164055  1
  Te  Te163  1  0.57569697  0.09337368  0.59119954  1
  Te  Te164  1  0.59503594  0.06780902  0.93029283  1
  Te  Te165  1  0.58423438  0.42146890  0.26144338  1
  Te  Te166  1  0.59801057  0.40824746  0.58022505  1
  Te  Te167  1  0.58935106  0.43777848  0.91122808  1
  Te  Te168  1  0.59720153  0.77006929  0.24544619  1
  Te  Te169  1  0.59316946  0.76451777  0.55623707  1
  Te  Te170  1  0.59448519  0.75910686  0.91286101  1
  Te  Te171  1  0.92250595  0.07995410  0.25785782  1
  Te  Te172  1  0.90752754  0.04628695  0.58072998  1
  Te  Te173  1  0.90281206  0.06074395  0.90804659  1
  Te  Te174  1  0.90885981  0.40959437  0.28970344  1
  Te  Te175  1  0.92435254  0.41563550  0.59566058  1
  Te  Te176  1  0.91204374  0.42460781  0.91737512  1
  Te  Te177  1  0.92061462  0.75549992  0.25169657  1
  Te  Te178  1  0.94503428  0.75144624  0.58441411  1
  Te  Te179  1  0.91921328  0.77012394  0.95287358  1
