# generated using pymatgen
data_In2Te3
_symmetry_space_group_name_H-M   'P 1'
_cell_length_a   18.80756465
_cell_length_b   18.81982200
_cell_length_c   18.81405098
_cell_angle_alpha   90.02513265
_cell_angle_beta   89.98621949
_cell_angle_gamma   89.90372718
_symmetry_Int_Tables_number   1
_chemical_formula_structural   In2Te3
_chemical_formula_sum   'In72 Te108'
_cell_volume   6659.31753626
_cell_formula_units_Z   36
loop_
 _symmetry_equiv_pos_site_id
 _symmetry_equiv_pos_as_xyz
  1  'x, y, z'
loop_
 _atom_site_type_symbol
 _atom_site_label
 _atom_site_symmetry_multiplicity
 _atom_site_fract_x
 _atom_site_fract_y
 _atom_site_fract_z
 _atom_site_occupancy
  In  In0  1  0.51324294  -0.00672030  0.49304827  1
  In  In1  1  0.00366124  0.81472857  0.53814057  1
  In  In2  1  0.84478143  0.14652593  0.32609830  1
  In  In3  1  0.01960952  0.17138083  0.48478742  1
  In  In4  1  0.83282937  0.69749060  0.47559446  1
  In  In5  1  0.03113394  0.31629693  0.29233550  1
  In  In6  1  0.82685319  0.50209818  0.00445845  1
  In  In7  1  0.82069704  0.34304891  0.49768267  1
  In  In8  1  0.82347431  -0.01800474  0.84899081  1
  In  In9  1  0.84545855  0.33045378  0.15086669  1
  In  In10  1  0.68730268  0.67350110  0.68421720  1
  In  In11  1  0.66137226  0.33551349  0.35098182  1
  In  In12  1  0.19445800  0.18728223  0.66854548  1
  In  In13  1  0.49700081  0.32755774  0.16654692  1
  In  In14  1  0.81586208  0.82749951  0.01288886  1
  In  In15  1  0.00054980  0.50059935  0.16831509  1
  In  In16  1  0.52198769  0.84572602  0.68301161  1
  In  In17  1  0.16858890  0.64355421  0.17808144  1
  In  In18  1  0.35629491  0.48862672  0.80444962  1
  In  In19  1  0.32528628  0.34074361  0.32032326  1
  In  In20  1  0.64638632  0.01131631  0.68605955  1
  In  In21  1  0.82716648  0.19685464  0.66150316  1
  In  In22  1  0.32121516  0.00212541  0.30063392  1
  In  In23  1  0.50029382  0.65898431  0.84790023  1
  In  In24  1  0.02176603  0.47820721  0.84744119  1
  In  In25  1  0.17554721  0.32761998  0.82085406  1
  In  In26  1  0.66021146  0.53811669  0.18530159  1
  In  In27  1  0.83053045  0.50846328  0.66927601  1
  In  In28  1  0.33802813  0.82585060  0.13958319  1
  In  In29  1  0.34073783  0.47965359  0.49709317  1
  In  In30  1  0.17490853  0.33934302  0.50742244  1
  In  In31  1  0.48851986  0.18936952  0.68053298  1
  In  In32  1  0.69702286  0.00838078  0.32353860  1
  In  In33  1  0.35213494  0.65453490  0.34036932  1
  In  In34  1  0.64205216  0.48796166  0.51185718  1
  In  In35  1  -0.02094993  0.00331322  0.67148261  1
  In  In36  1  0.63940830  0.14486459  0.85473956  1
  In  In37  1  0.83682047  0.83790202  0.33249775  1
  In  In38  1  0.16631176  0.82186914  0.36142724  1
  In  In39  1  0.00416231  0.50876841  0.50016085  1
  In  In40  1  0.35827772  0.18483642  0.51109994  1
  In  In41  1  0.65342282  0.33542289  -0.02679678  1
  In  In42  1  -0.02337115  0.01154344  0.31962421  1
  In  In43  1  0.16800284  0.50016522  0.00601371  1
  In  In44  1  0.83541100  0.16398124  0.01257990  1
  In  In45  1  -0.02183666  0.83260789  0.16822861  1
  In  In46  1  0.34749784  0.82914298  0.85425840  1
  In  In47  1  0.80330373  0.00954454  0.48097162  1
  In  In48  1  0.33254626  0.30138032  0.00703197  1
  In  In49  1  0.18327891  0.83871939  -0.00238025  1
  In  In50  1  0.83490304  0.69068068  0.82819784  1
  In  In51  1  0.69863592  0.81734248  0.47905400  1
  In  In52  1  -0.00774064  0.16859297  0.83259009  1
  In  In53  1  0.83277094  0.36681005  0.83747600  1
  In  In54  1  0.50613619  0.83737788  0.00645313  1
  In  In55  1  0.32143466  0.00070224  0.68361266  1
  In  In56  1  0.16583509  -0.00689341  0.15164955  1
  In  In57  1  0.50403801  0.19389461  0.33412291  1
  In  In58  1  0.66725341  0.67393244  0.01894791  1
  In  In59  1  0.50359844  0.67641175  0.47074650  1
  In  In60  1  0.33047879  0.49637184  0.17012562  1
  In  In61  1  0.16988495  0.00545405  0.85622411  1
  In  In62  1  0.48736987  0.01389447  0.12954888  1
  In  In63  1  0.86525017  0.83418293  0.65370721  1
  In  In64  1  0.33680663  0.79914222  0.50304200  1
  In  In65  1  0.13752684  -0.00084600  0.48785507  1
  In  In66  1  0.68212203  0.14386120  0.16003623  1
  In  In67  1  0.16947495  0.65227521  0.50960317  1
  In  In68  1  0.32210048  0.64584901  0.66170850  1
  In  In69  1  0.00571835  0.64508777  0.00996526  1
  In  In70  1  0.64250550  0.48861259  0.83050747  1
  In  In71  1  0.18184897  0.15987287  0.00913724  1
  Te  Te72  1  0.07640321  0.07257786  0.06604460  1
  Te  Te73  1  0.09553401  0.09450668  0.37810831  1
  Te  Te74  1  0.08725837  0.08945490  0.73878731  1
  Te  Te75  1  0.08473800  0.40925244  0.08719642  1
  Te  Te76  1  0.07635520  0.40337719  0.41066351  1
  Te  Te77  1  0.09162173  0.41446750  0.73429467  1
  Te  Te78  1  0.09100214  0.74723966  0.09351441  1
  Te  Te79  1  0.06689694  0.72851271  0.42438546  1
  Te  Te80  1  0.01983566  0.77226499  0.69067501  1
  Te  Te81  1  0.40923036  0.12111572  0.06111124  1
  Te  Te82  1  0.41698731  0.07881169  0.40654340  1
  Te  Te83  1  0.42560770  0.07621392  0.75364379  1
  Te  Te84  1  0.41504421  0.41291112  0.07204347  1
  Te  Te85  1  0.43149969  0.40554462  0.40337496  1
  Te  Te86  1  0.44798859  0.40340539  0.72351217  1
  Te  Te87  1  0.43593691  0.73168954  0.08394031  1
  Te  Te88  1  0.43052225  0.78331569  0.38701700  1
  Te  Te89  1  0.41978548  0.74515528  0.73600413  1
  Te  Te90  1  0.73392264  0.05899688  0.04896532  1
  Te  Te91  1  0.72194876  0.12199303  0.42165049  1
  Te  Te92  1  0.76450618  0.08655692  0.75128544  1
  Te  Te93  1  0.73357159  0.41484026  0.08741182  1
  Te  Te94  1  0.75155698  0.44441068  0.40780892  1
  Te  Te95  1  0.73169621  0.41098466  0.73175122  1
  Te  Te96  1  0.74712129  0.74719726  0.12110114  1
  Te  Te97  1  0.70657493  0.71084334  0.36155090  1
  Te  Te98  1  0.74875776  0.79245484  0.75367743  1
  Te  Te99  1  0.12201441  0.22279607  0.22379294  1
  Te  Te100  1  0.07790387  0.25599401  0.59506614  1
  Te  Te101  1  0.08810638  0.24853866  0.91686360  1
  Te  Te102  1  0.08430263  0.56872160  0.27042619  1
  Te  Te103  1  0.09521601  0.56470350  0.60326363  1
  Te  Te104  1  0.10193277  0.59651595  0.90356478  1
  Te  Te105  1  0.08794690  0.91058982  0.26398485  1
  Te  Te106  1  0.09496490  0.91959482  0.60742555  1
  Te  Te107  1  0.07896130  0.91160326  0.92294137  1
  Te  Te108  1  0.39669769  0.23527941  0.23426442  1
  Te  Te109  1  0.40209321  0.29088345  0.60725486  1
  Te  Te110  1  0.43806014  0.21717492  0.94022632  1
  Te  Te111  1  0.43134228  0.58805043  0.23471603  1
  Te  Te112  1  0.42542320  0.58498153  0.56953962  1
  Te  Te113  1  0.40373874  0.57368844  0.91633973  1
  Te  Te114  1  0.42303069  0.91441660  0.23316679  1
  Te  Te115  1  0.41725249  0.91307763  0.58463969  1
  Te  Te116  1  0.43553445  0.93138260  0.91335047  1
  Te  Te117  1  0.74768608  0.25220797  0.25027100  1
  Te  Te118  1  0.72667284  0.26193780  0.57703610  1
  Te  Te119  1  0.76148442  0.24591466  0.90339388  1
  Te  Te120  1  0.76554258  0.62129142  0.24500448  1
  Te  Te121  1  0.74630571  0.59511086  0.56691273  1
  Te  Te122  1  0.74562399  0.58241651  0.90354127  1
  Te  Te123  1  0.75365488  0.90761379  0.23200060  1
  Te  Te124  1  0.74295478  0.92267672  0.59173463  1
  Te  Te125  1  0.72360728  0.92833835  0.94567412  1
  Te  Te126  1  0.21813861  0.27539683  0.10245967  1
  Te  Te127  1  0.25378752  0.24448872  0.41761580  1
  Te  Te128  1  0.28641493  0.23743374  0.77341698  1
  Te  Te129  1  0.26602540  0.59689594  0.07221576  1
  Te  Te130  1  0.24920265  0.56776322  0.41005096  1
  Te  Te131  1  0.24055316  0.56841066  0.75536887  1
  Te  Te132  1  0.27740747  0.94082947  0.06039921  1
  Te  Te133  1  0.26232912  0.92324887  0.42627128  1
  Te  Te134  1  0.24261269  0.90244526  0.76714921  1
  Te  Te135  1  0.59621224  0.24639863  0.08393194  1
  Te  Te136  1  0.54770373  0.29072304  0.43930624  1
  Te  Te137  1  0.58880537  0.25333876  0.77007132  1
  Te  Te138  1  0.57510081  0.57205709  0.07046817  1
  Te  Te139  1  0.56776624  0.55981395  0.39904716  1
  Te  Te140  1  0.57451939  0.58592999  0.73344062  1
  Te  Te141  1  0.58776240  0.90784428  0.10909367  1
  Te  Te142  1  0.60329481  0.91163444  0.40164650  1
  Te  Te143  1  0.56472143  0.94125510  0.78892620  1
  Te  Te144  1  0.93980020  0.23609300  0.08956859  1
  Te  Te145  1  0.91811904  0.25470212  0.40548803  1
  Te  Te146  1  0.92233839  0.27613275  0.74981166  1
  Te  Te147  1  0.89660212  0.59439637  0.10251921  1
  Te  Te148  1  0.90724011  0.58428527  0.41613618  1
  Te  Te149  1  0.91634189  0.57170010  0.77800294  1
  Te  Te150  1  0.91111752  0.92327735  0.07648090  1
  Te  Te151  1  0.92467883  0.91759164  0.43678925  1
  Te  Te152  1  0.93450701  0.90296812  0.77742926  1
  Te  Te153  1  0.24061116  0.10222944  0.22665341  1
  Te  Te154  1  0.24843745  0.08454146  0.56773979  1
  Te  Te155  1  0.26589360  0.11271906  0.89305160  1
  Te  Te156  1  0.22796092  0.42422273  0.24762911  1
  Te  Te157  1  0.25095714  0.42410831  0.60093180  1
  Te  Te158  1  0.26057268  0.41145965  0.91925851  1
  Te  Te159  1  0.25456072  0.75353012  0.25663107  1
  Te  Te160  1  0.23220141  0.75737838  0.60214617  1
  Te  Te161  1  0.25589194  0.73573359  0.92041675  1
  Te  Te162  1  0.57349480  0.08371676  0.25222787  1
  Te  Te163  1  0.57616440  0.09730532  0.58299473  1
  Te  Te164  1  0.54256799  0.10178626  0.96086624  1
  Te  Te165  1  0.58314403  0.41991746  0.25045514  1
  Te  Te166  1  0.54971979  0.42593326  0.60741743  1
  Te  Te167  1  0.54431595  0.41206448  0.90993320  1
  Te  Te168  1  0.57181884  0.68036897  0.29659239  1
  Te  Te169  1  0.59148775  0.75533589  0.57656373  1
  Te  Te170  1  0.60022013  0.75349530  0.90801718  1
  Te  Te171  1  0.91032208  0.08385550  0.20885273  1
  Te  Te172  1  0.90954805  0.09242470  0.56531413  1
  Te  Te173  1  0.92236881  0.07097348  0.92471782  1
  Te  Te174  1  0.91218657  0.41306450  0.25868601  1
  Te  Te175  1  0.91907778  0.41412207  0.58941570  1
  Te  Te176  1  0.93071523  0.40615989  0.94815651  1
  Te  Te177  1  0.92983510  0.74068522  0.27187174  1
  Te  Te178  1  0.92242379  0.69318740  0.60447398  1
  Te  Te179  1  0.92656843  0.75100772  0.93277262  1
