# generated using pymatgen
data_In2Te3
_symmetry_space_group_name_H-M   'P 1'
_cell_length_a   18.77697828
_cell_length_b   18.78400497
_cell_length_c   18.77784008
_cell_angle_alpha   90.08251465
_cell_angle_beta   89.97464532
_cell_angle_gamma   90.05376562
_symmetry_Int_Tables_number   1
_chemical_formula_structural   In2Te3
_chemical_formula_sum   'In72 Te108'
_cell_volume   6623.06245927
_cell_formula_units_Z   36
loop_
 _symmetry_equiv_pos_site_id
 _symmetry_equiv_pos_as_xyz
  1  'x, y, z'
loop_
 _atom_site_type_symbol
 _atom_site_label
 _atom_site_symmetry_multiplicity
 _atom_site_fract_x
 _atom_site_fract_y
 _atom_site_fract_z
 _atom_site_occupancy
  In  In0  1  0.81622667  0.49536177  0.01342114  1
  In  In1  1  0.81099819  0.34602541  0.14411145  1
  In  In2  1  0.52856992  0.64625847  0.13658900  1
  In  In3  1  0.82345131  0.35675126  0.49047946  1
  In  In4  1  0.49632559  0.33763729  0.82998859  1
  In  In5  1  0.35036205  0.86556130  0.14083970  1
  In  In6  1  0.17248586  0.34992618  0.50705991  1
  In  In7  1  0.65021708  0.00622074  0.33502773  1
  In  In8  1  0.31185419  0.16273804  0.50764603  1
  In  In9  1  0.83672658  0.67263703  0.51567828  1
  In  In10  1  0.34318876  0.49737917  0.17651426  1
  In  In11  1  0.82667348  0.02951506  0.15811887  1
  In  In12  1  0.03461200  0.53283217  0.85426666  1
  In  In13  1  0.65135142  0.64357483  0.35499543  1
  In  In14  1  0.84370538  0.82971720  0.33920915  1
  In  In15  1  0.83891392  0.51003996  0.67485779  1
  In  In16  1  0.16724853  0.00073490  0.52843646  1
  In  In17  1  0.01619755  0.82014980  0.16005921  1
  In  In18  1  0.65546786  0.49648402  0.82971969  1
  In  In19  1  0.00429203  0.81919506  0.83689508  1
  In  In20  1  0.50151612  0.17304100  0.30236540  1
  In  In21  1  0.50637148  0.36294495  0.50300553  1
  In  In22  1  0.01400793  0.15210427  0.51086838  1
  In  In23  1  0.17499072  0.34222222  0.84754160  1
  In  In24  1  0.31978023  0.00983186  0.32220294  1
  In  In25  1  0.35727886  0.65248757  -0.03596395  1
  In  In26  1  0.15239144  0.81405684  0.33286038  1
  In  In27  1  0.36081702  0.63800588  0.66594775  1
  In  In28  1  0.81986218  0.18228715  0.30849906  1
  In  In29  1  -0.01156060  0.16646189  0.18255530  1
  In  In30  1  0.65040993  0.16470004  0.50627107  1
  In  In31  1  0.51190518  0.32798434  0.15350249  1
  In  In32  1  0.64418522  0.85576457  0.14977054  1
  In  In33  1  0.01333886  0.32018056  0.34069304  1
  In  In34  1  0.17246466  0.16033773  0.29889788  1
  In  In35  1  0.81668160  0.49434079  0.33979254  1
  In  In36  1  -0.00254994  0.36222331  0.00377550  1
  In  In37  1  0.17118169  -0.02003978  0.14878545  1
  In  In38  1  0.78861539  0.16405366  -0.00155500  1
  In  In39  1  0.17806499  0.49794192  0.67484426  1
  In  In40  1  0.35579175  0.35138418  0.68170144  1
  In  In41  1  0.68155468  0.34147430  0.30647025  1
  In  In42  1  0.18975444  0.17455931  -0.00342957  1
  In  In43  1  0.15828245  0.83342123  0.67887068  1
  In  In44  1  0.48114316  0.82993557  0.33216049  1
  In  In45  1  0.00116211  -0.02125483  -0.00845327  1
  In  In46  1  0.16113614  0.14919877  0.67233944  1
  In  In47  1  0.82602535  0.81975746  0.67164923  1
  In  In48  1  0.49184757  -0.01411869  0.50903265  1
  In  In49  1  0.34583634  0.14295436  0.83252733  1
  In  In50  1  0.32922983  0.35864384  -0.01478877  1
  In  In51  1  0.35025843  0.35127261  0.31860879  1
  In  In52  1  -0.00191137  0.50878900  0.50265886  1
  In  In53  1  0.83477877  -0.02580019  0.51340486  1
  In  In54  1  0.33615106  0.66870304  0.33469146  1
  In  In55  1  0.48697160  0.14909045  0.68424277  1
  In  In56  1  0.00158185  0.14738068  0.81925544  1
  In  In57  1  0.34934727  0.82935959  0.50649162  1
  In  In58  1  0.81703044  0.14264859  0.69352854  1
  In  In59  1  0.82578150  0.66572897  0.16051100  1
  In  In60  1  0.53560130  0.84697215  0.70618486  1
  In  In61  1  0.32653142  0.82922367  0.83648926  1
  In  In62  1  0.01681471  0.50118526  0.16911415  1
  In  In63  1  0.65733538  0.66612883  0.67139699  1
  In  In64  1  0.81409262  -0.02135128  0.84198227  1
  In  In65  1  0.16870833  0.66318333  0.15786369  1
  In  In66  1  0.80672210  0.83849987  -0.01630841  1
  In  In67  1  0.17095640  0.66828934  0.48261123  1
  In  In68  1  0.83302088  0.66364280  0.82320430  1
  In  In69  1  0.83284017  0.30448673  0.84853091  1
  In  In70  1  0.63883713  0.33160311  0.65956503  1
  In  In71  1  0.50714765  0.81643813  -0.03892081  1
  Te  Te72  1  0.07148375  0.08534989  0.08188700  1
  Te  Te73  1  0.10203520  0.08002011  0.41005777  1
  Te  Te74  1  0.09095988  0.04982701  0.75552781  1
  Te  Te75  1  0.10543383  0.43487807  0.07095427  1
  Te  Te76  1  0.09132597  0.43300112  0.40728120  1
  Te  Te77  1  0.07671560  0.41812098  0.75809994  1
  Te  Te78  1  0.09735470  0.74956036  0.05714186  1
  Te  Te79  1  0.06102846  0.75361202  0.43071162  1
  Te  Te80  1  0.08989042  0.72714586  0.75695202  1
  Te  Te81  1  0.46629878  0.09526491  0.06770273  1
  Te  Te82  1  0.42121237  0.08896715  0.41695435  1
  Te  Te83  1  0.45269484  0.04408879  0.78812269  1
  Te  Te84  1  0.43243735  0.43123294  0.07139503  1
  Te  Te85  1  0.41967529  0.44231787  0.41347028  1
  Te  Te86  1  0.40892324  0.45194396  0.78064761  1
  Te  Te87  1  0.42033720  0.74174892  0.07925842  1
  Te  Te88  1  0.43853075  0.72667091  0.43776450  1
  Te  Te89  1  0.42500623  0.74800752  0.75167665  1
  Te  Te90  1  0.72049512  0.04386599  0.05412409  1
  Te  Te91  1  0.75166447  0.08902844  0.41891653  1
  Te  Te92  1  0.71603335  0.08134889  0.78475028  1
  Te  Te93  1  0.69950031  0.43126714  0.08688889  1
  Te  Te94  1  0.70921480  0.43387445  0.43195572  1
  Te  Te95  1  0.75223771  0.40421199  0.74660788  1
  Te  Te96  1  0.72642682  0.74697602  0.07765598  1
  Te  Te97  1  0.74230121  0.74807555  0.42160753  1
  Te  Te98  1  0.72411196  0.76454893  0.78141076  1
  Te  Te99  1  0.09525404  0.26870410  0.22222029  1
  Te  Te100  1  0.08612656  0.25853191  0.59421654  1
  Te  Te101  1  0.06964013  0.24688088  0.91716764  1
  Te  Te102  1  0.08437728  0.59659532  0.25898716  1
  Te  Te103  1  0.09052454  0.59061745  0.59020139  1
  Te  Te104  1  0.10886727  0.63072076  0.93604873  1
  Te  Te105  1  0.07785189  0.92330540  0.25522915  1
  Te  Te106  1  0.07048794  0.90383166  0.58053476  1
  Te  Te107  1  0.10033756  0.90515393  0.91358214  1
  Te  Te108  1  0.39731720  0.24524463  0.21961684  1
  Te  Te109  1  0.42375099  0.24880355  0.57759888  1
  Te  Te110  1  0.41358294  0.24555577  0.92123944  1
  Te  Te111  1  0.44004185  0.59197039  0.24864427  1
  Te  Te112  1  0.45935976  0.57397643  0.57289483  1
  Te  Te113  1  0.45848054  0.57111338  0.89039419  1
  Te  Te114  1  0.43289118  0.94422103  0.24293355  1
  Te  Te115  1  0.41731929  0.90942616  0.61554699  1
  Te  Te116  1  0.42529698  0.92645588  0.89858113  1
  Te  Te117  1  0.72331441  0.23301147  0.20487924  1
  Te  Te118  1  0.75260554  0.24756224  0.58695020  1
  Te  Te119  1  0.71653306  0.27611698  0.93417578  1
  Te  Te120  1  0.73218116  0.57521540  0.24188770  1
  Te  Te121  1  0.73890050  0.57338463  0.57969296  1
  Te  Te122  1  0.74000600  0.58925389  0.91949091  1
  Te  Te123  1  0.75305103  0.91731747  0.24998303  1
  Te  Te124  1  0.73321287  0.90765961  0.59577535  1
  Te  Te125  1  0.69808002  0.92528125  0.92413510  1
  Te  Te126  1  0.25008908  0.27679532  0.08116936  1
  Te  Te127  1  0.24318386  0.25268329  0.40472192  1
  Te  Te128  1  0.25714683  0.25203784  0.74806236  1
  Te  Te129  1  0.27003147  0.58565038  0.07602763  1
  Te  Te130  1  0.25998348  0.57143628  0.41457193  1
  Te  Te131  1  0.26183551  0.58250438  0.76456875  1
  Te  Te132  1  0.25318141  0.91698821  0.04240118  1
  Te  Te133  1  0.25237167  0.91146759  0.41918186  1
  Te  Te134  1  0.24704507  0.92498749  0.75474187  1
  Te  Te135  1  0.56691785  0.21978387  0.06149840  1
  Te  Te136  1  0.58286598  0.25745343  0.40634270  1
  Te  Te137  1  0.58856482  0.23332661  0.76304589  1
  Te  Te138  1  0.60174941  0.55133180  0.05124357  1
  Te  Te139  1  0.55362255  0.58111327  0.44549679  1
  Te  Te140  1  0.56184201  0.60525692  0.77773294  1
  Te  Te141  1  0.53891834  0.92114502  0.06785293  1
  Te  Te142  1  0.58525262  0.90102132  0.42301650  1
  Te  Te143  1  0.61520353  0.95393083  0.77417302  1
  Te  Te144  1  0.90982339  0.24917766  0.07411755  1
  Te  Te145  1  0.91154612  0.24221989  0.42648023  1
  Te  Te146  1  0.92133570  0.24814702  0.73770110  1
  Te  Te147  1  0.92469884  0.58331155  0.07705442  1
  Te  Te148  1  0.91214160  0.59067154  0.40758458  1
  Te  Te149  1  0.94266710  0.59743125  0.74197475  1
  Te  Te150  1  0.90366634  0.90504578  0.09223190  1
  Te  Te151  1  0.93341493  0.90999074  0.42557667  1
  Te  Te152  1  0.91702880  0.91541527  0.75295247  1
  Te  Te153  1  0.26726901  0.08832538  0.20257057  1
  Te  Te154  1  0.27829156  0.06358010  0.61555627  1
  Te  Te155  1  0.24928930  0.06759102  0.91704089  1
  Te  Te156  1  0.24002714  0.42637402  0.25558285  1
  Te  Te157  1  0.27895926  0.43321590  0.57734775  1
  Te  Te158  1  0.25438918  0.45594464  0.89935104  1
  Te  Te159  1  0.26627561  0.77182679  0.23892252  1
  Te  Te160  1  0.25960066  0.73863700  0.59023371  1
  Te  Te161  1  0.23880446  0.72316404  0.90227301  1
  Te  Te162  1  0.58863121  0.08217220  0.22452139  1
  Te  Te163  1  0.58691909  0.06611246  0.60027446  1
  Te  Te164  1  0.55423678  0.10881685  0.95311228  1
  Te  Te165  1  0.56729521  0.41940529  0.25740419  1
  Te  Te166  1  0.55231863  0.44738403  0.62026855  1
  Te  Te167  1  0.57994631  0.41384364  0.92999337  1
  Te  Te168  1  0.58553726  0.75140487  0.24965064  1
  Te  Te169  1  0.58873286  0.76919429  0.59085209  1
  Te  Te170  1  0.61235702  0.74270030  0.88916445  1
  Te  Te171  1  0.91899182  0.06911889  0.27617088  1
  Te  Te172  1  0.91743341  0.07348800  0.59930936  1
  Te  Te173  1  0.90411877  0.08364066  0.92234895  1
  Te  Te174  1  0.90623103  0.39986365  0.25594726  1
  Te  Te175  1  0.92360793  0.41063299  0.59216133  1
  Te  Te176  1  0.91016092  0.43538849  0.89981450  1
  Te  Te177  1  0.92689735  0.73515598  0.25127376  1
  Te  Te178  1  0.93207240  0.75377847  0.59262735  1
  Te  Te179  1  0.91043924  0.74028085  0.93081096  1
