# generated using pymatgen
data_In2Te3
_symmetry_space_group_name_H-M   'P 1'
_cell_length_a   19.02543650
_cell_length_b   19.01340965
_cell_length_c   19.00692491
_cell_angle_alpha   90.01320514
_cell_angle_beta   89.81098057
_cell_angle_gamma   89.54587915
_symmetry_Int_Tables_number   1
_chemical_formula_structural   In2Te3
_chemical_formula_sum   'In72 Te108'
_cell_volume   6875.28134545
_cell_formula_units_Z   36
loop_
 _symmetry_equiv_pos_site_id
 _symmetry_equiv_pos_as_xyz
  1  'x, y, z'
loop_
 _atom_site_type_symbol
 _atom_site_label
 _atom_site_symmetry_multiplicity
 _atom_site_fract_x
 _atom_site_fract_y
 _atom_site_fract_z
 _atom_site_occupancy
  In  In0  1  0.85220418  0.51552938  0.01551425  1
  In  In1  1  0.32633089  0.32434722  -0.02895476  1
  In  In2  1  0.18422849  0.84849497  0.31240858  1
  In  In3  1  0.50336729  0.85154760  -0.00282083  1
  In  In4  1  0.65314775  0.16811161  0.48933244  1
  In  In5  1  0.52076392  0.85179434  0.65639983  1
  In  In6  1  0.32876454  0.01855296  -0.01223920  1
  In  In7  1  0.51123424  0.65084397  0.49683541  1
  In  In8  1  0.86307136  0.81450462  -0.03155562  1
  In  In9  1  0.31163496  0.82357912  0.83011309  1
  In  In10  1  0.66872770  0.84732525  0.84073139  1
  In  In11  1  0.31874626  0.51839169  0.16716984  1
  In  In12  1  0.66624743  0.32628551  0.65116060  1
  In  In13  1  0.35077518  0.86187233  0.14845680  1
  In  In14  1  0.14800710  0.64855016  0.15942315  1
  In  In15  1  0.67930116  0.14203348  0.85644934  1
  In  In16  1  0.48490630  0.05104591  0.81700045  1
  In  In17  1  -0.01644516  0.50871955  0.48636859  1
  In  In18  1  0.31382373  0.17869583  0.58095722  1
  In  In19  1  0.31253137  0.48041838  0.51809905  1
  In  In20  1  0.66915039  0.35590096  0.31752841  1
  In  In21  1  0.74205026  0.52014123  0.49403793  1
  In  In22  1  0.32576656  0.32188842  0.35068820  1
  In  In23  1  0.46026171  0.32939146  0.50479825  1
  In  In24  1  0.01700497  0.35062325  -0.02463650  1
  In  In25  1  0.50757206  0.16592118  0.30352975  1
  In  In26  1  0.82100949  0.16139953  0.67237404  1
  In  In27  1  0.33618192  0.66534682  0.33096339  1
  In  In28  1  0.31265445  0.48903570  0.83017468  1
  In  In29  1  0.00870767  0.17357389  0.14552869  1
  In  In30  1  0.47167338  0.48761582  -0.00977708  1
  In  In31  1  0.36271014  0.82266203  0.51663601  1
  In  In32  1  0.68391310  0.18351247  0.14090215  1
  In  In33  1  0.03338144  0.18134760  0.54469420  1
  In  In34  1  0.13488090  0.81949847  0.01413563  1
  In  In35  1  0.15950563  0.01608541  0.84017943  1
  In  In36  1  0.00041196  0.49669992  0.81589912  1
  In  In37  1  0.16273263  0.33094572  0.53366849  1
  In  In38  1  0.51003967  0.69275276  0.15415453  1
  In  In39  1  0.01560706  0.33411115  0.34209983  1
  In  In40  1  0.67375199  0.82745716  0.16058121  1
  In  In41  1  0.81768446  0.29553650  0.83573582  1
  In  In42  1  0.50578138  0.64100791  0.81804270  1
  In  In43  1  0.66648768  0.00670538  0.33331614  1
  In  In44  1  -0.00802955  0.79748225  0.46187741  1
  In  In45  1  0.31443574  0.13881256  0.16341208  1
  In  In46  1  0.69456906  0.82280501  0.48523588  1
  In  In47  1  0.35749270  -0.00877159  0.31915447  1
  In  In48  1  0.81808983  -0.00598990  0.14697825  1
  In  In49  1  0.32529741  0.64808603  0.69364437  1
  In  In50  1  0.01902024  -0.00238585  0.33345941  1
  In  In51  1  0.16256492  0.83071444  0.65031387  1
  In  In52  1  0.84924989  -0.03273606  0.50593465  1
  In  In53  1  0.83030423  0.32425242  0.16298694  1
  In  In54  1  0.82566039  0.83878381  0.69444348  1
  In  In55  1  -0.02906246  0.52897801  0.20494939  1
  In  In56  1  0.15488528  0.18591766  -0.02642447  1
  In  In57  1  0.13301844  0.66152004  0.48925773  1
  In  In58  1  0.68231993  0.51344505  0.17684834  1
  In  In59  1  0.50863967  0.00666368  0.50750601  1
  In  In60  1  0.00257895  -0.01489620  0.68798351  1
  In  In61  1  0.10486373  0.67873943  0.84528047  1
  In  In62  1  0.51018670  0.29768819  0.83760008  1
  In  In63  1  0.17627426  0.00778636  0.51080347  1
  In  In64  1  0.15455423  0.35664802  0.16743287  1
  In  In65  1  -0.01260246  0.01347266  -0.01513286  1
  In  In66  1  -0.02062463  0.65646426  0.65228922  1
  In  In67  1  0.67345924  0.67453672  0.01817846  1
  In  In68  1  0.67970313  0.50849212  0.83455851  1
  In  In69  1  0.50010100  0.46931569  0.68488922  1
  In  In70  1  0.54316918  0.49360701  0.32427051  1
  In  In71  1  0.87297003  0.16731848  0.35088417  1
  Te  Te72  1  0.09792874  0.08085213  0.06545522  1
  Te  Te73  1  0.08512882  0.09427381  0.42546290  1
  Te  Te74  1  0.05150561  0.09268228  0.77388055  1
  Te  Te75  1  0.04749727  0.43274344  0.09793075  1
  Te  Te76  1  0.09701504  0.42421633  0.42883842  1
  Te  Te77  1  0.10810449  0.39256464  0.82087194  1
  Te  Te78  1  0.05210746  0.74973485  0.11313080  1
  Te  Te79  1  0.09178078  0.73846287  0.36483631  1
  Te  Te80  1  0.05509906  0.76622964  0.73012859  1
  Te  Te81  1  0.42020458  0.07286045  0.08714510  1
  Te  Te82  1  0.42784241  0.08968800  0.40892975  1
  Te  Te83  1  0.40432579  0.12485069  0.71992067  1
  Te  Te84  1  0.38710978  0.40971117  0.08473953  1
  Te  Te85  1  0.41982293  0.44023037  0.40690119  1
  Te  Te86  1  0.40557568  0.38667923  0.76519932  1
  Te  Te87  1  0.40881231  0.75006980  0.05934853  1
  Te  Te88  1  0.43695414  0.74874334  0.40683483  1
  Te  Te89  1  0.42604881  0.75389726  0.73987642  1
  Te  Te90  1  0.78092603  0.10520502  0.05330113  1
  Te  Te91  1  0.77099395  0.07453747  0.42130645  1
  Te  Te92  1  0.77807909  0.06456865  0.77431164  1
  Te  Te93  1  0.75122649  0.42178230  0.07766639  1
  Te  Te94  1  0.77086152  0.40272313  0.41096430  1
  Te  Te95  1  0.74913197  0.40585894  0.74732593  1
  Te  Te96  1  0.78162778  0.75104680  0.08554026  1
  Te  Te97  1  0.78627820  0.72546959  0.41834609  1
  Te  Te98  1  0.74174429  0.74474678  0.76720090  1
  Te  Te99  1  0.09395086  0.24227643  0.25063196  1
  Te  Te100  1  0.04225967  0.30897427  0.61870268  1
  Te  Te101  1  0.06592709  0.25035447  0.87188923  1
  Te  Te102  1  0.09601116  0.56771468  0.26911233  1
  Te  Te103  1  0.08404110  0.56407643  0.59203779  1
  Te  Te104  1  0.03967325  0.58039157  0.93442242  1
  Te  Te105  1  0.09400518  0.92794283  0.22964786  1
  Te  Te106  1  0.07398964  0.90239236  0.54969167  1
  Te  Te107  1  0.07518354  0.91266550  0.90933427  1
  Te  Te108  1  0.39726080  0.24717818  0.24075401  1
  Te  Te109  1  0.45318571  0.22621168  0.61122264  1
  Te  Te110  1  0.43656203  0.23086811  0.94561488  1
  Te  Te111  1  0.43747316  0.58461563  0.24696670  1
  Te  Te112  1  0.41787679  0.57352750  0.59550423  1
  Te  Te113  1  0.39583258  0.58954016  0.90767126  1
  Te  Te114  1  0.45102830  0.91324174  0.23929008  1
  Te  Te115  1  0.40779065  0.93798742  0.60142341  1
  Te  Te116  1  0.40953324  0.91905155  0.89488414  1
  Te  Te117  1  0.75871920  0.23346871  0.27146337  1
  Te  Te118  1  0.75927328  0.24808344  0.56029595  1
  Te  Te119  1  0.71578748  0.26154862  0.93448798  1
  Te  Te120  1  0.78535848  0.58144426  0.25066684  1
  Te  Te121  1  0.79301410  0.58625356  0.61470305  1
  Te  Te122  1  0.76339683  0.59815179  0.92212608  1
  Te  Te123  1  0.75663948  0.91101309  0.25754456  1
  Te  Te124  1  0.73839803  0.91880031  0.59383149  1
  Te  Te125  1  0.74831017  0.90925505  0.94727231  1
  Te  Te126  1  0.23445526  0.25479981  0.08340481  1
  Te  Te127  1  0.25190581  0.23878665  0.44867981  1
  Te  Te128  1  0.22674227  0.23990162  0.68535648  1
  Te  Te129  1  0.23082425  0.57282058  0.06518171  1
  Te  Te130  1  0.25089052  0.58491716  0.42566582  1
  Te  Te131  1  0.21370942  0.58595005  0.76734055  1
  Te  Te132  1  0.24313955  0.91935708  0.06140932  1
  Te  Te133  1  0.26195704  0.90273879  0.43233513  1
  Te  Te134  1  0.23797651  0.92199882  0.74240594  1
  Te  Te135  1  0.59295648  0.28729905  0.09812510  1
  Te  Te136  1  0.56756834  0.26332506  0.40528983  1
  Te  Te137  1  0.60742334  0.22699618  0.74672183  1
  Te  Te138  1  0.57639307  0.56878646  0.07244981  1
  Te  Te139  1  0.62027445  0.58407847  0.41531742  1
  Te  Te140  1  0.60146058  0.57630607  0.72132886  1
  Te  Te141  1  0.61690592  0.92055440  0.05906519  1
  Te  Te142  1  0.58792442  0.91070628  0.41908668  1
  Te  Te143  1  0.58082993  0.94024016  0.76060211  1
  Te  Te144  1  0.92062981  0.25908365  0.05728129  1
  Te  Te145  1  0.93850612  0.25964707  0.44819826  1
  Te  Te146  1  0.91102676  0.26592670  0.72396889  1
  Te  Te147  1  0.92144436  0.61645082  0.09659999  1
  Te  Te148  1  0.90664864  0.61803846  0.41560013  1
  Te  Te149  1  0.89723074  0.58291458  0.75076043  1
  Te  Te150  1  0.92191193  0.91128455  0.07555763  1
  Te  Te151  1  0.91389912  0.90283487  0.38418926  1
  Te  Te152  1  0.89533035  0.93937177  0.77810926  1
  Te  Te153  1  0.24307080  0.06466731  0.26654358  1
  Te  Te154  1  0.19226876  0.10006423  0.62894754  1
  Te  Te155  1  0.26198217  0.11450502  0.89140605  1
  Te  Te156  1  0.24986539  0.42170854  0.26506285  1
  Te  Te157  1  0.25750842  0.39891182  0.62668386  1
  Te  Te158  1  0.22361962  0.42495348  0.93212444  1
  Te  Te159  1  0.26951604  0.75282209  0.22740297  1
  Te  Te160  1  0.25464488  0.73071806  0.58024547  1
  Te  Te161  1  0.22627586  0.74058903  0.91855484  1
  Te  Te162  1  0.60032654  0.08074307  0.21984983  1
  Te  Te163  1  0.60541279  0.07626887  0.59081484  1
  Te  Te164  1  0.56623507  0.08493593  0.93228833  1
  Te  Te165  1  0.56832227  0.39064288  0.20926797  1
  Te  Te166  1  0.57380179  0.41144079  0.56543743  1
  Te  Te167  1  0.57452276  0.42150961  0.90075234  1
  Te  Te168  1  0.60904917  0.73184224  0.25091991  1
  Te  Te169  1  0.59675967  0.74631016  0.57765495  1
  Te  Te170  1  0.57371409  0.73454890  0.91537762  1
  Te  Te171  1  0.91891518  0.08379538  0.23069876  1
  Te  Te172  1  0.92699169  0.07245641  0.58243009  1
  Te  Te173  1  0.89584290  0.12295144  0.95178431  1
  Te  Te174  1  0.90636995  0.40567748  0.26574551  1
  Te  Te175  1  0.86836741  0.46226624  0.57236304  1
  Te  Te176  1  0.89651009  0.41459939  0.90407079  1
  Te  Te177  1  0.87383813  0.70178153  0.29100726  1
  Te  Te178  1  0.90568634  0.76824045  0.58267300  1
  Te  Te179  1  0.96969047  0.72458791  0.91188710  1
