# generated using pymatgen
data_In2Te3
_symmetry_space_group_name_H-M   'P 1'
_cell_length_a   18.79939931
_cell_length_b   18.80389193
_cell_length_c   18.78452633
_cell_angle_alpha   89.90665713
_cell_angle_beta   89.94130574
_cell_angle_gamma   89.97706372
_symmetry_Int_Tables_number   1
_chemical_formula_structural   In2Te3
_chemical_formula_sum   'In72 Te108'
_cell_volume   6640.35241692
_cell_formula_units_Z   36
loop_
 _symmetry_equiv_pos_site_id
 _symmetry_equiv_pos_as_xyz
  1  'x, y, z'
loop_
 _atom_site_type_symbol
 _atom_site_label
 _atom_site_symmetry_multiplicity
 _atom_site_fract_x
 _atom_site_fract_y
 _atom_site_fract_z
 _atom_site_occupancy
  In  In0  1  0.82691648  0.52214415  0.33341096  1
  In  In1  1  0.81106216  0.16668098  0.34451354  1
  In  In2  1  0.35031337  0.33446692  -0.02890816  1
  In  In3  1  0.37011625  0.66999872  0.33116136  1
  In  In4  1  0.65346844  -0.00998772  -0.02523833  1
  In  In5  1  0.81185545  0.81957087  0.33625686  1
  In  In6  1  0.83739043  -0.01746118  0.13826051  1
  In  In7  1  0.00867031  0.03888424  0.66928195  1
  In  In8  1  0.34036758  0.17497435  0.15384059  1
  In  In9  1  0.49346423  0.31505554  0.82190606  1
  In  In10  1  0.81107840  0.69168333  0.16639421  1
  In  In11  1  -0.01238612  0.67838787  0.02712379  1
  In  In12  1  0.80837047  0.84788342  0.01311038  1
  In  In13  1  -0.02293003  0.64249055  0.35723555  1
  In  In14  1  0.33841608  0.49886326  0.50782617  1
  In  In15  1  0.65471929  0.84540236  0.48221463  1
  In  In16  1  0.83027015  0.15202035  0.66574540  1
  In  In17  1  0.17140759  0.50677237  0.65895519  1
  In  In18  1  0.49638268  0.49077231  -0.00117254  1
  In  In19  1  0.65252622  0.80436035  0.16929468  1
  In  In20  1  -0.00053397  0.28246534  0.65111049  1
  In  In21  1  0.17667092  0.67905450  0.51931898  1
  In  In22  1  0.18498967  0.66353016  0.14521827  1
  In  In23  1  0.16227457  0.86071078  -0.02753216  1
  In  In24  1  0.00965427  0.49573932  0.18530439  1
  In  In25  1  0.17806499  0.85138686  0.34783047  1
  In  In26  1  0.00257527  0.83645963  0.82914039  1
  In  In27  1  0.65503281  0.50594121  0.17282365  1
  In  In28  1  0.67131977  0.32915625  -0.01793389  1
  In  In29  1  0.80404259  0.66429441  0.82553608  1
  In  In30  1  0.83728339  0.34445945  0.50799634  1
  In  In31  1  0.63627344  0.32448764  0.32223844  1
  In  In32  1  0.34135814  0.31987194  0.36620175  1
  In  In33  1  0.51144729  0.18269649  -0.00667517  1
  In  In34  1  -0.00030323  0.85285308  0.51446584  1
  In  In35  1  0.18596791  0.29914040  0.79642952  1
  In  In36  1  0.62951114  -0.02373432  0.67851310  1
  In  In37  1  0.85660176  0.32353694  0.13948501  1
  In  In38  1  0.50187731  0.67067351  0.51053172  1
  In  In39  1  0.48985168  0.01097348  0.18307905  1
  In  In40  1  0.48624231  0.16210990  0.35539361  1
  In  In41  1  0.66038172  0.50380542  0.51013167  1
  In  In42  1  0.83004569  0.84264818  0.66860036  1
  In  In43  1  0.35185637  -0.01649794  -0.07183539  1
  In  In44  1  0.00832230  0.32938729  0.36854811  1
  In  In45  1  0.16651719  0.68442647  0.85272523  1
  In  In46  1  0.16931014  0.01021573  0.14877154  1
  In  In47  1  0.18536962  0.34728892  0.20060599  1
  In  In48  1  0.66015166  0.14205306  0.50573429  1
  In  In49  1  0.52507240  0.68104794  0.83660214  1
  In  In50  1  0.00775331  0.17775828  0.14159038  1
  In  In51  1  -0.04946469  0.87375202  0.15617498  1
  In  In52  1  -0.00279697  0.01548071  0.33546188  1
  In  In53  1  0.34466989  0.69325247  0.66689558  1
  In  In54  1  -0.00761432  0.34409060  -0.02017570  1
  In  In55  1  0.82904002  0.51571584  -0.02886222  1
  In  In56  1  -0.01509088  0.49709512  0.82785845  1
  In  In57  1  0.16697501  0.47471201  0.35472996  1
  In  In58  1  0.64196518  0.15776199  0.15218233  1
  In  In59  1  0.37132549  -0.01314225  0.33169627  1
  In  In60  1  0.65628550  0.16342047  0.81421557  1
  In  In61  1  0.19032861  0.52525388  0.01743916  1
  In  In62  1  0.17811106  0.15109890  0.36343657  1
  In  In63  1  0.34106560  0.47672425  0.82419126  1
  In  In64  1  0.65500211  0.66503384  0.66400684  1
  In  In65  1  0.20288606  0.00136718  0.52751330  1
  In  In66  1  0.36303524  0.83873478  0.16166279  1
  In  In67  1  0.33057988  0.69396399  -0.00299340  1
  In  In68  1  0.33546242  0.15335371  0.52899799  1
  In  In69  1  0.66772669  0.35620558  0.68846177  1
  In  In70  1  0.18317667  0.16380722  -0.03468386  1
  In  In71  1  -0.00895791  0.67771759  0.68973028  1
  Te  Te72  1  0.08034187  0.07645920  0.04483999  1
  Te  Te73  1  0.08288941  0.07046895  0.44817968  1
  Te  Te74  1  0.10125341  0.08005587  0.77811791  1
  Te  Te75  1  0.08551362  0.41055881  0.08500824  1
  Te  Te76  1  0.07681763  0.42362222  0.45927834  1
  Te  Te77  1  0.08902054  0.41525979  0.75233521  1
  Te  Te78  1  0.09605830  0.77152633  0.08185101  1
  Te  Te79  1  0.07824804  0.75598453  0.41541433  1
  Te  Te80  1  0.10483422  0.76548448  0.73835423  1
  Te  Te81  1  0.41361501  0.07823160  0.06308836  1
  Te  Te82  1  0.43169544  0.05935221  0.45425163  1
  Te  Te83  1  0.42227237  0.03559021  0.71631407  1
  Te  Te84  1  0.41267991  0.40192852  0.08473568  1
  Te  Te85  1  0.43259170  0.41920402  0.42520635  1
  Te  Te86  1  0.41807830  0.40059723  0.72346692  1
  Te  Te87  1  0.44433793  0.75222186  0.07276144  1
  Te  Te88  1  0.40476522  0.76053243  0.44076857  1
  Te  Te89  1  0.44350666  0.77397396  0.74645314  1
  Te  Te90  1  0.73905362  0.08135591  0.06638069  1
  Te  Te91  1  0.73925288  0.05836785  0.41239723  1
  Te  Te92  1  0.74336724  0.05751773  0.74915015  1
  Te  Te93  1  0.75492746  0.42317376  0.08041258  1
  Te  Te94  1  0.74470305  0.40388539  0.39744571  1
  Te  Te95  1  0.75807145  0.41940722  0.78272120  1
  Te  Te96  1  0.72393321  0.72725498  0.04851252  1
  Te  Te97  1  0.74711227  0.73719186  0.43806462  1
  Te  Te98  1  0.72540003  0.77308288  0.75518821  1
  Te  Te99  1  0.08889476  0.23870910  0.26256534  1
  Te  Te100  1  0.10743792  0.25324157  0.55686559  1
  Te  Te101  1  0.07684972  0.24815166  0.89390387  1
  Te  Te102  1  0.10229617  0.59082401  0.25676515  1
  Te  Te103  1  0.06952389  0.59374239  0.58643990  1
  Te  Te104  1  0.06940550  0.58452304  0.92709355  1
  Te  Te105  1  0.08296973  0.92230750  0.24294597  1
  Te  Te106  1  0.09538652  0.92253226  0.60665216  1
  Te  Te107  1  0.10600476  0.94591193  0.86092522  1
  Te  Te108  1  0.42386244  0.25414894  0.25009012  1
  Te  Te109  1  0.39859243  0.26725873  0.59960246  1
  Te  Te110  1  0.39804866  0.21657481  0.89214950  1
  Te  Te111  1  0.47385123  0.61438060  0.24147119  1
  Te  Te112  1  0.42405086  0.57861358  0.60708035  1
  Te  Te113  1  0.40500424  0.58785813  0.90708629  1
  Te  Te114  1  0.46845169  0.87976951  0.27589685  1
  Te  Te115  1  0.40157320  0.92307112  0.62055239  1
  Te  Te116  1  0.46611108  0.88352717  0.91698628  1
  Te  Te117  1  0.74889330  0.24908896  0.23105252  1
  Te  Te118  1  0.74158160  0.25127365  0.58598292  1
  Te  Te119  1  0.74785387  0.22543318  0.91210741  1
  Te  Te120  1  0.72576778  0.61256457  0.26488141  1
  Te  Te121  1  0.75499183  0.58346925  0.59046313  1
  Te  Te122  1  0.71264853  0.57788347  0.90505293  1
  Te  Te123  1  0.74097851  0.91092380  0.23989807  1
  Te  Te124  1  0.74142146  0.92892344  0.58010264  1
  Te  Te125  1  0.74927746  0.91170552  0.89378877  1
  Te  Te126  1  0.23176830  0.25360400  0.08194553  1
  Te  Te127  1  0.22346290  0.26768049  0.44997253  1
  Te  Te128  1  0.29346065  0.23814726  0.71156466  1
  Te  Te129  1  0.30194315  0.57689494  0.10505473  1
  Te  Te130  1  0.25187834  0.59619997  0.41503091  1
  Te  Te131  1  0.25050766  0.59391447  0.75906658  1
  Te  Te132  1  0.26949718  0.92411861  0.07135070  1
  Te  Te133  1  0.28569588  0.90843606  0.43537466  1
  Te  Te134  1  0.30245424  0.94085751  0.73024680  1
  Te  Te135  1  0.57384071  0.28008203  0.09155161  1
  Te  Te136  1  0.57170244  0.25354372  0.44123051  1
  Te  Te137  1  0.56759671  0.23452800  0.71600827  1
  Te  Te138  1  0.57206473  0.58850393  0.08046045  1
  Te  Te139  1  0.57843142  0.58479535  0.41684890  1
  Te  Te140  1  0.57265214  0.57397824  0.74738893  1
  Te  Te141  1  0.58925778  0.92843567  0.10009587  1
  Te  Te142  1  0.54717843  0.91514069  0.40779992  1
  Te  Te143  1  0.53422202  0.90828939  0.77603127  1
  Te  Te144  1  0.90299241  0.22088473  0.03286170  1
  Te  Te145  1  0.91430836  0.22985005  0.43705510  1
  Te  Te146  1  0.92325213  0.21885372  0.76043829  1
  Te  Te147  1  0.90327182  0.57090400  0.10414588  1
  Te  Te148  1  0.90805547  0.55529915  0.45273086  1
  Te  Te149  1  0.88951128  0.57343178  0.73576143  1
  Te  Te150  1  0.94259231  0.93296379  0.00988010  1
  Te  Te151  1  0.90784893  0.91637789  0.40943812  1
  Te  Te152  1  0.91892822  0.93506264  0.75032996  1
  Te  Te153  1  0.26365722  0.07527817  0.25753473  1
  Te  Te154  1  0.23353765  0.10622995  0.63156337  1
  Te  Te155  1  0.24757185  0.07394137  0.86267150  1
  Te  Te156  1  0.28683764  0.43475039  0.26874614  1
  Te  Te157  1  0.26116394  0.40755294  0.59692019  1
  Te  Te158  1  0.23182194  0.41250057  0.91266318  1
  Te  Te159  1  0.25565360  0.76106490  0.24917450  1
  Te  Te160  1  0.24863642  0.78160991  0.59630578  1
  Te  Te161  1  0.27158578  0.78813749  0.89096897  1
  Te  Te162  1  0.59026045  0.08307651  0.27443711  1
  Te  Te163  1  0.55770878  0.07985902  0.59711532  1
  Te  Te164  1  0.55748256  0.07732333  0.89371425  1
  Te  Te165  1  0.55869174  0.43305778  0.26021153  1
  Te  Te166  1  0.57551193  0.41273177  0.58930362  1
  Te  Te167  1  0.58106190  0.41594705  0.89532691  1
  Te  Te168  1  0.57714680  0.72242539  0.26834809  1
  Te  Te169  1  0.57538497  0.77487853  0.59415356  1
  Te  Te170  1  0.57488592  0.77549424  0.93859961  1
  Te  Te171  1  0.91191645  0.08984440  0.23136473  1
  Te  Te172  1  0.90920204  0.07430141  0.56658721  1
  Te  Te173  1  0.92621880  0.07427407  0.96291197  1
  Te  Te174  1  0.91704406  0.40310392  0.26484193  1
  Te  Te175  1  0.92077988  0.40263168  0.61367418  1
  Te  Te176  1  0.87766891  0.39436172  0.88318395  1
  Te  Te177  1  0.93266651  0.74496030  0.24453753  1
  Te  Te178  1  0.90990008  0.74768905  0.57927335  1
  Te  Te179  1  0.91138415  0.74052441  0.91133301  1
