# generated using pymatgen
data_In2Te3
_symmetry_space_group_name_H-M   'P 1'
_cell_length_a   18.76600895
_cell_length_b   18.75869333
_cell_length_c   18.76938589
_cell_angle_alpha   90.00068419
_cell_angle_beta   89.89887373
_cell_angle_gamma   90.04782241
_symmetry_Int_Tables_number   1
_chemical_formula_structural   In2Te3
_chemical_formula_sum   'In72 Te108'
_cell_volume   6607.29562114
_cell_formula_units_Z   36
loop_
 _symmetry_equiv_pos_site_id
 _symmetry_equiv_pos_as_xyz
  1  'x, y, z'
loop_
 _atom_site_type_symbol
 _atom_site_label
 _atom_site_symmetry_multiplicity
 _atom_site_fract_x
 _atom_site_fract_y
 _atom_site_fract_z
 _atom_site_occupancy
  In  In0  1  0.65648551  0.35226880  0.67534698  1
  In  In1  1  0.33029483  0.82559001  0.48954158  1
  In  In2  1  -0.00169758  0.34821109  0.66944992  1
  In  In3  1  0.68929121  0.84309256  0.83117257  1
  In  In4  1  0.82323790  0.83231506  0.00186201  1
  In  In5  1  0.14911806  0.17828274  -0.01402375  1
  In  In6  1  0.66979846  0.16982563  0.46868358  1
  In  In7  1  0.81864434  0.32562023  0.15995471  1
  In  In8  1  0.32780585  0.18989310  0.81232075  1
  In  In9  1  0.34981770  -0.01126001  0.34224043  1
  In  In10  1  0.16984978  -0.01098993  0.13968288  1
  In  In11  1  0.33046509  -0.01036918  -0.00335720  1
  In  In12  1  0.65579911  0.69044627  0.67214914  1
  In  In13  1  0.68120320  0.00830290  0.32335206  1
  In  In14  1  0.83806515  0.67552169  0.14905706  1
  In  In15  1  0.47715149  0.18631505  0.65600732  1
  In  In16  1  0.48376866  0.82521135  0.67116289  1
  In  In17  1  0.35119621  0.49842613  0.16385477  1
  In  In18  1  0.84394225  0.48765222  0.68121178  1
  In  In19  1  0.15852758  0.66111695  0.49687575  1
  In  In20  1  0.14886517  0.84268803  0.65295070  1
  In  In21  1  0.65419289  0.32730375  0.30720713  1
  In  In22  1  0.50058932  0.67276459  0.84126265  1
  In  In23  1  0.65253906  0.63472320  0.01787047  1
  In  In24  1  0.50940386  0.14528286  0.33155361  1
  In  In25  1  0.49278008  0.02917814  0.83419686  1
  In  In26  1  0.50961390  0.83655970  0.31598592  1
  In  In27  1  0.84859172  0.66129904  0.49827224  1
  In  In28  1  0.35457020  0.67113995  -0.00545467  1
  In  In29  1  0.17279723  0.03430704  0.54012821  1
  In  In30  1  0.00780919  0.34067907  0.34874763  1
  In  In31  1  0.47070498  0.49404191  0.66055164  1
  In  In32  1  0.48150834  0.48445938  0.32647238  1
  In  In33  1  0.17068253  0.80902294  0.34000828  1
  In  In34  1  0.32543156  0.33506120  0.36847590  1
  In  In35  1  0.15418700  0.47963737  0.00085863  1
  In  In36  1  0.66937273  0.50262411  0.85665843  1
  In  In37  1  0.68153760  0.00343374  0.65893761  1
  In  In38  1  0.83966858  0.50897088  0.34269121  1
  In  In39  1  0.86858987  0.17118213  0.68018537  1
  In  In40  1  0.16736075  0.66169864  0.18644617  1
  In  In41  1  0.84034365  0.84875906  0.66914343  1
  In  In42  1  0.15496785  0.50789947  0.34672336  1
  In  In43  1  0.84371545  0.16485891  0.00381944  1
  In  In44  1  0.68437915  0.17387730  0.85453554  1
  In  In45  1  0.84124315  0.83571796  0.33819924  1
  In  In46  1  0.50614503  0.35882573  0.84508439  1
  In  In47  1  -0.00135174  0.85268653  0.84468164  1
  In  In48  1  0.01832741  0.66021335  0.00112423  1
  In  In49  1  0.82600810  0.00306009  0.17312244  1
  In  In50  1  0.67344631  0.67512522  0.31466549  1
  In  In51  1  0.17396768  0.64751701  0.83515174  1
  In  In52  1  0.84070028  0.32142225  0.52004438  1
  In  In53  1  0.52736846  0.86051349  0.03597129  1
  In  In54  1  0.18425659  0.18722143  0.34037406  1
  In  In55  1  -0.02462418  0.00877992  0.32823456  1
  In  In56  1  0.50071328  0.32883902  0.15216086  1
  In  In57  1  0.33399065  0.50907958  0.83081336  1
  In  In58  1  0.65846448  0.48930399  0.50998561  1
  In  In59  1  0.15978552  0.33226787  0.81779834  1
  In  In60  1  0.85238704  0.47367596  -0.01800870  1
  In  In61  1  0.49308972  0.65700006  0.51157523  1
  In  In62  1  0.33044424  0.82962396  0.82014851  1
  In  In63  1  0.00478631  0.64098286  0.66240035  1
  In  In64  1  0.13833064  0.02101820  0.80702599  1
  In  In65  1  0.32904993  0.17248545  0.15864225  1
  In  In66  1  0.15457720  0.33653658  0.15898461  1
  In  In67  1  0.00511687  0.01482409  -0.01542974  1
  In  In68  1  -0.00660887  0.81623290  0.18278997  1
  In  In69  1  -0.00349900  0.17720263  0.50272581  1
  In  In70  1  0.52085193  0.16829859  0.00288809  1
  In  In71  1  0.48483100  0.00525152  0.48576098  1
  Te  Te72  1  0.07373488  0.09889938  0.09329273  1
  Te  Te73  1  0.09108174  0.08674800  0.41180804  1
  Te  Te74  1  0.01601212  0.09049558  0.75842838  1
  Te  Te75  1  0.05052573  0.40269223  0.07647110  1
  Te  Te76  1  0.10274986  0.40505865  0.44250785  1
  Te  Te77  1  0.10311811  0.43854353  0.72844847  1
  Te  Te78  1  0.09666350  0.75881491  0.08640354  1
  Te  Te79  1  0.06493068  0.74949482  0.42197834  1
  Te  Te80  1  0.08285321  0.74911599  0.75962609  1
  Te  Te81  1  0.42115429  0.07908617  0.08161239  1
  Te  Te82  1  0.39125959  0.10984281  0.42578856  1
  Te  Te83  1  0.39503483  0.07553030  0.73003435  1
  Te  Te84  1  0.40654392  0.40295272  0.06603549  1
  Te  Te85  1  0.39249637  0.44867247  0.44452784  1
  Te  Te86  1  0.39430647  0.39333329  0.74639995  1
  Te  Te87  1  0.44992703  0.74280525  0.08404343  1
  Te  Te88  1  0.42240366  0.74184822  0.40408725  1
  Te  Te89  1  0.39769807  0.71805245  0.73881117  1
  Te  Te90  1  0.74296220  0.07192521  0.07129241  1
  Te  Te91  1  0.76997686  0.07345820  0.42279221  1
  Te  Te92  1  0.76344508  0.08647436  0.75628241  1
  Te  Te93  1  0.74518934  0.42547513  0.07430629  1
  Te  Te94  1  0.74553976  0.40288410  0.41875801  1
  Te  Te95  1  0.75632735  0.40442462  0.77604792  1
  Te  Te96  1  0.72393353  0.75455459  0.08697618  1
  Te  Te97  1  0.74676581  0.74910994  0.42602535  1
  Te  Te98  1  0.77261180  0.73927418  0.75552340  1
  Te  Te99  1  0.07595470  0.24259631  0.25055098  1
  Te  Te100  1  0.08446296  0.24420801  0.60345429  1
  Te  Te101  1  0.05764360  0.27439585  0.91391189  1
  Te  Te102  1  0.06791997  0.57066298  0.24478600  1
  Te  Te103  1  0.11082673  0.55818703  0.59703927  1
  Te  Te104  1  0.06876870  0.55698376  0.89992233  1
  Te  Te105  1  0.08604976  0.91913486  0.25121578  1
  Te  Te106  1  0.06668195  0.93724526  0.57547452  1
  Te  Te107  1  0.10984975  0.92211382  0.92320187  1
  Te  Te108  1  0.41317086  0.25507777  0.25917583  1
  Te  Te109  1  0.38262463  0.26493093  0.57312955  1
  Te  Te110  1  0.42273396  0.24873839  0.91574280  1
  Te  Te111  1  0.42048664  0.59542480  0.24994739  1
  Te  Te112  1  0.38382921  0.58192698  0.57747228  1
  Te  Te113  1  0.44054497  0.56263642  0.92746388  1
  Te  Te114  1  0.41804063  0.91977605  0.23269828  1
  Te  Te115  1  0.40196963  0.92216421  0.58498835  1
  Te  Te116  1  0.43294940  0.90134761  0.91010133  1
  Te  Te117  1  0.74455167  0.22844852  0.24778394  1
  Te  Te118  1  0.73396008  0.24442403  0.59787221  1
  Te  Te119  1  0.75373571  0.26851067  0.94217787  1
  Te  Te120  1  0.75563227  0.57544405  0.23416995  1
  Te  Te121  1  0.74573876  0.58186847  0.59406122  1
  Te  Te122  1  0.76689740  0.59549921  0.92603758  1
  Te  Te123  1  0.74190621  0.89320376  0.23935965  1
  Te  Te124  1  0.74791282  0.90809729  0.56955417  1
  Te  Te125  1  0.77207460  0.93576026  0.91015794  1
  Te  Te126  1  0.25131510  0.26268278  0.06443957  1
  Te  Te127  1  0.21968160  0.27350038  0.45953005  1
  Te  Te128  1  0.20550326  0.21953456  0.72322617  1
  Te  Te129  1  0.24718017  0.58183554  0.06969922  1
  Te  Te130  1  0.25691878  0.59552632  0.40655392  1
  Te  Te131  1  0.23872077  0.56367101  0.72951150  1
  Te  Te132  1  0.27245832  0.89376445  0.09326487  1
  Te  Te133  1  0.23535292  0.93040704  0.42837096  1
  Te  Te134  1  0.24245865  0.92635646  0.74204744  1
  Te  Te135  1  0.60678565  0.24081642  0.09876183  1
  Te  Te136  1  0.56324344  0.26403672  0.41443827  1
  Te  Te137  1  0.57611836  0.24098114  0.76038809  1
  Te  Te138  1  0.58191291  0.52889822  0.09210532  1
  Te  Te139  1  0.58660119  0.57929299  0.41021124  1
  Te  Te140  1  0.58198217  0.57327935  0.74282108  1
  Te  Te141  1  0.61132138  0.95905216  0.10625116  1
  Te  Te142  1  0.58974819  0.92229034  0.41476965  1
  Te  Te143  1  0.57894490  0.91803722  0.74917377  1
  Te  Te144  1  0.92853315  0.26044555  0.08216938  1
  Te  Te145  1  0.90024653  0.24380665  0.40390654  1
  Te  Te146  1  0.91138664  0.28103497  0.77385371  1
  Te  Te147  1  0.92595867  0.57076636  0.08267964  1
  Te  Te148  1  0.94242753  0.56962952  0.43009415  1
  Te  Te149  1  0.91698227  0.58262114  0.76635358  1
  Te  Te150  1  0.93061303  0.91522530  0.08317067  1
  Te  Te151  1  0.92512286  0.91503028  0.43029446  1
  Te  Te152  1  0.93097797  0.94155474  0.74606960  1
  Te  Te153  1  0.24709824  0.07902794  0.24838159  1
  Te  Te154  1  0.26439083  0.12184886  0.61478336  1
  Te  Te155  1  0.25171909  0.08911757  0.90927362  1
  Te  Te156  1  0.25232209  0.41025133  0.25225829  1
  Te  Te157  1  0.29432756  0.39174850  0.55400659  1
  Te  Te158  1  0.25501506  0.40540434  0.91251005  1
  Te  Te159  1  0.26827694  0.75158479  0.24696390  1
  Te  Te160  1  0.24877787  0.74663554  0.59053500  1
  Te  Te161  1  0.24669148  0.75170814  0.92155533  1
  Te  Te162  1  0.57834371  0.06347230  0.22624256  1
  Te  Te163  1  0.57784983  0.08953798  0.57914471  1
  Te  Te164  1  0.60520513  0.06187377  0.92767435  1
  Te  Te165  1  0.59135524  0.44248081  0.22587319  1
  Te  Te166  1  0.55381480  0.39769836  0.57225326  1
  Te  Te167  1  0.59790203  0.41058900  0.95111247  1
  Te  Te168  1  0.57487194  0.73775853  0.22360084  1
  Te  Te169  1  0.58194540  0.77082386  0.56653783  1
  Te  Te170  1  0.59746542  0.75653793  0.92121195  1
  Te  Te171  1  0.90955525  0.10548423  0.23958546  1
  Te  Te172  1  0.91139447  0.07834333  0.57471818  1
  Te  Te173  1  0.92974419  0.10382525  0.89092885  1
  Te  Te174  1  0.91445386  0.41225003  0.25221500  1
  Te  Te175  1  0.92842543  0.43714564  0.56348552  1
  Te  Te176  1  0.93609609  0.38014369  0.89906769  1
  Te  Te177  1  0.91855315  0.72019827  0.27259411  1
  Te  Te178  1  0.93132213  0.75262721  0.58795213  1
  Te  Te179  1  0.91965750  0.74546614  0.91992968  1
