# generated using pymatgen
data_In2Te3
_symmetry_space_group_name_H-M   'P 1'
_cell_length_a   18.96683889
_cell_length_b   18.96900849
_cell_length_c   18.95888391
_cell_angle_alpha   89.83756999
_cell_angle_beta   90.12023698
_cell_angle_gamma   89.76477312
_symmetry_Int_Tables_number   1
_chemical_formula_structural   In2Te3
_chemical_formula_sum   'In72 Te108'
_cell_volume   6820.96751791
_cell_formula_units_Z   36
loop_
 _symmetry_equiv_pos_site_id
 _symmetry_equiv_pos_as_xyz
  1  'x, y, z'
loop_
 _atom_site_type_symbol
 _atom_site_label
 _atom_site_symmetry_multiplicity
 _atom_site_fract_x
 _atom_site_fract_y
 _atom_site_fract_z
 _atom_site_occupancy
  In  In0  1  0.13454269  0.16635331  0.35476792  1
  In  In1  1  0.85733800  0.17888680  0.00633703  1
  In  In2  1  0.66964138  0.17609338  0.82681307  1
  In  In3  1  0.32440055  0.67987225  0.31504386  1
  In  In4  1  0.87046126  -0.00990054  0.78387292  1
  In  In5  1  0.83831926  0.80908734  -0.02243208  1
  In  In6  1  0.50743005  0.14927054  0.01265290  1
  In  In7  1  0.31557563  0.15503137  0.52152434  1
  In  In8  1  0.17825737  -0.00836437  0.17823082  1
  In  In9  1  0.68704776  0.15661403  0.19845719  1
  In  In10  1  0.19334320  0.81213792  -0.03644227  1
  In  In11  1  0.82882700  0.66330681  0.51410880  1
  In  In12  1  0.48422936  0.33228906  0.81166197  1
  In  In13  1  0.19130799  0.48758994  -0.01577811  1
  In  In14  1  0.49398096  0.17895300  0.32101728  1
  In  In15  1  0.32912418  0.16769424  0.86653570  1
  In  In16  1  0.46251311  0.85909466  -0.01690137  1
  In  In17  1  0.14791016  0.50044181  0.34261151  1
  In  In18  1  0.28718058  0.64916629  0.71500166  1
  In  In19  1  0.34109778  0.81353123  0.15321679  1
  In  In20  1  0.72496274  0.20613436  0.51035532  1
  In  In21  1  0.28207027  0.84311838  0.52139025  1
  In  In22  1  0.48597262  -0.01965943  0.50507750  1
  In  In23  1  0.83059299  -0.00349625  0.16709196  1
  In  In24  1  0.67819647  0.33183558  0.30417491  1
  In  In25  1  0.65555632  -0.02378858  -0.00812983  1
  In  In26  1  0.15650972  0.84418971  0.38093307  1
  In  In27  1  0.03157204  0.84846877  0.15797719  1
  In  In28  1  0.47627896  0.13698488  0.67227367  1
  In  In29  1  0.16570996  0.65833777  0.14698851  1
  In  In30  1  0.18993770  -0.00547816  0.83195682  1
  In  In31  1  0.65166111  0.00926305  0.69004610  1
  In  In32  1  0.50369125  0.35461188  0.15741843  1
  In  In33  1  0.01894184  0.47811083  0.84204238  1
  In  In34  1  0.86311215  0.63013960  0.83851811  1
  In  In35  1  0.33368838  0.50887929  0.17339058  1
  In  In36  1  0.32973510  -0.00785302  0.30425494  1
  In  In37  1  0.87081771  0.19635005  0.36383234  1
  In  In38  1  0.48890261  0.31848343  0.49423676  1
  In  In39  1  0.67164578  0.35794421  0.01588631  1
  In  In40  1  0.30901007  0.18427529  0.11564321  1
  In  In41  1  -0.03653321  0.66136982  0.34045197  1
  In  In42  1  0.48489986  0.69185717  0.48746590  1
  In  In43  1  0.05759511  0.17765243  0.86111158  1
  In  In44  1  0.19937337  0.38107569  0.51555640  1
  In  In45  1  0.65563034  0.65459149  0.64809644  1
  In  In46  1  0.02591998  0.63274525  0.67873295  1
  In  In47  1  0.85014545  0.02222430  0.53499586  1
  In  In48  1  0.66066170  0.50643427  0.17297731  1
  In  In49  1  -0.01537807  0.50144649  0.13857991  1
  In  In50  1  0.48158864  0.66392730  0.82007272  1
  In  In51  1  0.48381216  0.52047792  0.63897830  1
  In  In52  1  0.67806024  0.64819248  -0.01463123  1
  In  In53  1  0.17510878  0.64381292  0.50959106  1
  In  In54  1  0.48579676  0.49882765  -0.02947908  1
  In  In55  1  0.19195641  0.17673705  0.70071500  1
  In  In56  1  -0.00850795  0.01958250  0.39045252  1
  In  In57  1  0.02057364  0.00366362  -0.01430015  1
  In  In58  1  0.84118250  0.66825584  0.15568192  1
  In  In59  1  0.65521535  0.49663222  0.49156310  1
  In  In60  1  0.83852954  0.48741258  0.32355190  1
  In  In61  1  0.58046835  0.75770248  0.14595253  1
  In  In62  1  0.00326462  0.32474529  0.66891967  1
  In  In63  1  0.65320700  0.01602079  0.34300035  1
  In  In64  1  0.83718942  0.86852291  0.33981966  1
  In  In65  1  -0.00753850  0.17848710  0.16911484  1
  In  In66  1  0.85477078  0.36631697  0.81740680  1
  In  In67  1  0.45265589  0.80325569  0.71053576  1
  In  In68  1  0.33956542  0.35270271  0.34405512  1
  In  In69  1  0.67622774  0.83618464  0.48899297  1
  In  In70  1  0.84514384  0.82258334  0.67050570  1
  In  In71  1  0.66157895  0.82171215  0.82750807  1
  Te  Te72  1  0.08615331  0.08261081  0.09495399  1
  Te  Te73  1  0.06951846  0.11052111  0.47942199  1
  Te  Te74  1  0.08595304  0.07951035  0.75250682  1
  Te  Te75  1  0.11236027  0.43958445  0.09853367  1
  Te  Te76  1  0.08144950  0.39642968  0.42529575  1
  Te  Te77  1  0.10631867  0.40776110  0.74350542  1
  Te  Te78  1  0.08384084  0.75088469  0.05645783  1
  Te  Te79  1  0.07249771  0.72250054  0.42321109  1
  Te  Te80  1  0.10134883  0.69096046  0.79312437  1
  Te  Te81  1  0.39863834  0.07669683  0.07884461  1
  Te  Te82  1  0.41919846  0.09187247  0.41975843  1
  Te  Te83  1  0.40089996  0.06638507  0.77841484  1
  Te  Te84  1  0.40081768  0.41861988  0.06886435  1
  Te  Te85  1  0.42718890  0.43419199  0.42740666  1
  Te  Te86  1  0.40679133  0.43872590  0.73855479  1
  Te  Te87  1  0.39875244  0.73962809  0.03909778  1
  Te  Te88  1  0.37969072  0.77609418  0.41784502  1
  Te  Te89  1  0.34019990  0.84679039  0.80559192  1
  Te  Te90  1  0.74155610  0.07887084  0.07294293  1
  Te  Te91  1  0.76615466  0.08515569  0.41593993  1
  Te  Te92  1  0.76687795  0.09381217  0.74053015  1
  Te  Te93  1  0.76334504  0.42695228  0.10502535  1
  Te  Te94  1  0.74975335  0.40422563  0.41548652  1
  Te  Te95  1  0.73976278  0.38578010  0.73288428  1
  Te  Te96  1  0.73605141  0.75902342  0.07921748  1
  Te  Te97  1  0.76481153  0.74853938  0.40431451  1
  Te  Te98  1  0.74965550  0.72854561  0.74725604  1
  Te  Te99  1  0.07169928  0.25939816  0.26172446  1
  Te  Te100  1  0.12991746  0.27397262  0.59923853  1
  Te  Te101  1  0.12954713  0.28908843  0.92580880  1
  Te  Te102  1  0.06924968  0.59749810  0.25014071  1
  Te  Te103  1  0.08624993  0.54490077  0.57487867  1
  Te  Te104  1  0.10125679  0.58342488  0.90944564  1
  Te  Te105  1  0.07283690  0.93872845  0.27934842  1
  Te  Te106  1  0.13679006  0.89283970  0.52191314  1
  Te  Te107  1  0.08500493  0.90045913  0.89840156  1
  Te  Te108  1  0.40446200  0.26067472  0.22919010  1
  Te  Te109  1  0.40296577  0.25036817  0.59899904  1
  Te  Te110  1  0.43376663  0.25627625  0.93491951  1
  Te  Te111  1  0.42876498  0.60042884  0.24320155  1
  Te  Te112  1  0.40446322  0.64666370  0.60869987  1
  Te  Te113  1  0.39088925  0.55920180  0.87256217  1
  Te  Te114  1  0.42173740  0.89799116  0.24185501  1
  Te  Te115  1  0.40261072  0.90178022  0.60019975  1
  Te  Te116  1  0.38864856  0.95773975  0.90303871  1
  Te  Te117  1  0.79289449  0.25346851  0.24187621  1
  Te  Te118  1  0.77517800  0.27875603  0.62851928  1
  Te  Te119  1  0.74890473  0.25404481  0.92970629  1
  Te  Te120  1  0.75455340  0.59502692  0.25421971  1
  Te  Te121  1  0.75485643  0.55598341  0.59124313  1
  Te  Te122  1  0.76101608  0.55454501  0.91140628  1
  Te  Te123  1  0.72782412  0.91920543  0.24643059  1
  Te  Te124  1  0.74282750  0.91872019  0.59853494  1
  Te  Te125  1  0.75769744  0.91832480  0.89348086  1
  Te  Te126  1  0.22196431  0.28176997  0.05182873  1
  Te  Te127  1  0.25431397  0.25220322  0.41907644  1
  Te  Te128  1  0.27650035  0.27472315  0.77450063  1
  Te  Te129  1  0.27331285  0.59679229  0.06414399  1
  Te  Te130  1  0.26381622  0.57579956  0.40725794  1
  Te  Te131  1  0.20966771  0.51931777  0.70013207  1
  Te  Te132  1  0.24598889  0.90638186  0.07404345  1
  Te  Te133  1  0.24166697  0.96736183  0.42218653  1
  Te  Te134  1  0.22779670  0.90631629  0.72060356  1
  Te  Te135  1  0.59843446  0.24863181  0.10353415  1
  Te  Te136  1  0.60112383  0.24174795  0.40826707  1
  Te  Te137  1  0.57328722  0.24050631  0.72921558  1
  Te  Te138  1  0.57347004  0.57651421  0.06926603  1
  Te  Te139  1  0.59300913  0.61337298  0.41998196  1
  Te  Te140  1  0.58132855  0.57318503  0.75010272  1
  Te  Te141  1  0.56519247  0.90239858  0.08551197  1
  Te  Te142  1  0.57052526  0.90402370  0.40315397  1
  Te  Te143  1  0.56059963  0.90811813  0.75574362  1
  Te  Te144  1  0.95670067  0.27082766  0.05834841  1
  Te  Te145  1  0.94688410  0.28796593  0.44747358  1
  Te  Te146  1  0.94333104  0.24531663  0.78375324  1
  Te  Te147  1  0.92584880  0.60781778  0.05506609  1
  Te  Te148  1  0.91195379  0.55944274  0.43767857  1
  Te  Te149  1  0.92007222  0.53988664  0.73345865  1
  Te  Te150  1  0.91738575  0.91538596  0.07189208  1
  Te  Te151  1  0.92104662  0.90486254  0.45909901  1
  Te  Te152  1  0.96100583  0.90740782  0.70553878  1
  Te  Te153  1  0.24514160  0.10832673  0.25126384  1
  Te  Te154  1  0.25515555  0.06730960  0.62238790  1
  Te  Te155  1  0.20862693  0.10506943  0.92819637  1
  Te  Te156  1  0.23981591  0.41857215  0.25017306  1
  Te  Te157  1  0.30073559  0.44714443  0.60056416  1
  Te  Te158  1  0.25116575  0.38107730  0.89719110  1
  Te  Te159  1  0.21872590  0.76511964  0.24528678  1
  Te  Te160  1  0.21511211  0.74172792  0.61774259  1
  Te  Te161  1  0.24479863  0.71776122  0.85162300  1
  Te  Te162  1  0.56359629  0.07524878  0.23441657  1
  Te  Te163  1  0.58195974  0.07745074  0.57319035  1
  Te  Te164  1  0.58248465  0.07595075  0.90294511  1
  Te  Te165  1  0.56799927  0.43077502  0.27022845  1
  Te  Te166  1  0.57364179  0.40949851  0.58417717  1
  Te  Te167  1  0.58565685  0.40763153  0.90212717  1
  Te  Te168  1  0.55557973  0.69942088  0.27567552  1
  Te  Te169  1  0.58013328  0.76972593  0.58644435  1
  Te  Te170  1  0.56908818  0.74273939  0.91667753  1
  Te  Te171  1  0.91460612  0.07566171  0.26436565  1
  Te  Te172  1  0.94670760  0.12105744  0.57456420  1
  Te  Te173  1  0.90579395  0.07050062  0.91258860  1
  Te  Te174  1  0.93793538  0.41384833  0.24657141  1
  Te  Te175  1  0.89572346  0.36521668  0.57256589  1
  Te  Te176  1  0.92772697  0.41033746  0.93655150  1
  Te  Te177  1  0.92197052  0.77851227  0.24053800  1
  Te  Te178  1  0.93808420  0.73000112  0.59409604  1
  Te  Te179  1  0.92634889  0.75689932  0.87471842  1
