# generated using pymatgen
data_In2Te3
_symmetry_space_group_name_H-M   'P 1'
_cell_length_a   18.90710870
_cell_length_b   18.90999394
_cell_length_c   18.89212630
_cell_angle_alpha   90.05071742
_cell_angle_beta   89.93924353
_cell_angle_gamma   90.12738365
_symmetry_Int_Tables_number   1
_chemical_formula_structural   In2Te3
_chemical_formula_sum   'In72 Te108'
_cell_volume   6754.54134332
_cell_formula_units_Z   36
loop_
 _symmetry_equiv_pos_site_id
 _symmetry_equiv_pos_as_xyz
  1  'x, y, z'
loop_
 _atom_site_type_symbol
 _atom_site_label
 _atom_site_symmetry_multiplicity
 _atom_site_fract_x
 _atom_site_fract_y
 _atom_site_fract_z
 _atom_site_occupancy
  In  In0  1  0.67368902  0.31630722  0.68627256  1
  In  In1  1  0.83083427  0.14239279  0.31475184  1
  In  In2  1  0.14871049  0.85284327  -0.03516376  1
  In  In3  1  0.66515094  0.66200198  0.66649315  1
  In  In4  1  0.17413846  0.82720095  0.30205166  1
  In  In5  1  0.64929699  0.81696505  0.19230529  1
  In  In6  1  0.15870070  0.64768076  0.83374003  1
  In  In7  1  0.49290115  0.18180415  -0.00609388  1
  In  In8  1  0.67509094  0.51403256  0.82776680  1
  In  In9  1  0.83081845  0.51825306  0.31333515  1
  In  In10  1  0.66006131  0.14041194  0.17077355  1
  In  In11  1  0.13460896  0.01463685  0.12692856  1
  In  In12  1  0.83202926  0.82281550  0.34450330  1
  In  In13  1  0.16774196  0.18241319  0.33399568  1
  In  In14  1  0.49684754  0.79222449  0.66427700  1
  In  In15  1  0.66336165  0.50346602  0.50562980  1
  In  In16  1  0.83194596  0.15514116  0.66571323  1
  In  In17  1  0.47926308  0.35469785  0.84858989  1
  In  In18  1  0.81851965  -0.01303192  0.50025880  1
  In  In19  1  0.84294735  0.31554476  0.15820645  1
  In  In20  1  0.03320683  0.35702204  0.67739903  1
  In  In21  1  0.01069524  0.00574285  0.68687720  1
  In  In22  1  0.34283027  0.52582535  0.85067548  1
  In  In23  1  0.51020774  -0.00676095  0.16871132  1
  In  In24  1  0.33473801  0.80576000  0.14566258  1
  In  In25  1  0.48438969  0.79451338  -0.00304790  1
  In  In26  1  0.02345635  0.34811349  0.00244020  1
  In  In27  1  0.66285160  0.67227295  -0.01217512  1
  In  In28  1  0.33368029  0.81959346  0.83312781  1
  In  In29  1  0.69102594  0.52076888  0.15088026  1
  In  In30  1  0.47689470  0.53330316  0.63563796  1
  In  In31  1  0.83585602  0.80665079  -0.02119117  1
  In  In32  1  0.85740008  0.35329751  0.85660793  1
  In  In33  1  0.18532996  0.64469166  0.17688738  1
  In  In34  1  0.33129277  0.02050566  0.33651417  1
  In  In35  1  0.64437772  0.34009305  0.35771702  1
  In  In36  1  0.01395843  0.17955203  0.81675685  1
  In  In37  1  0.31784310  0.02542780  -0.00657568  1
  In  In38  1  0.30766384  -0.01473547  0.68350460  1
  In  In39  1  0.16523940  0.01300075  0.51264744  1
  In  In40  1  0.47432557  0.16601207  0.65895862  1
  In  In41  1  0.22949700  0.62602969  0.52565189  1
  In  In42  1  0.68313166  0.16619659  0.84098046  1
  In  In43  1  0.00189751  0.83113309  0.15838738  1
  In  In44  1  0.03223690  0.34486757  0.34097356  1
  In  In45  1  0.31217517  0.21210462  0.17828166  1
  In  In46  1  0.65706811  -0.03729918  0.65134188  1
  In  In47  1  0.85308518  0.33491617  0.52389385  1
  In  In48  1  0.49504138  0.00098013  0.49396235  1
  In  In49  1  0.87611370  0.00322503  0.15976031  1
  In  In50  1  0.00470725  0.67428096  0.32574693  1
  In  In51  1  0.33037871  0.48849001  0.18511102  1
  In  In52  1  0.30674983  0.34492273  0.00190398  1
  In  In53  1  0.21219802  0.19819044  0.81705934  1
  In  In54  1  0.66018053  -0.00919273  0.32418673  1
  In  In55  1  0.17848943  0.35663802  0.51171687  1
  In  In56  1  0.03049416  0.65062599  0.66724170  1
  In  In57  1  0.70171274  -0.01296785  0.01263334  1
  In  In58  1  0.48708125  0.82405374  0.34529968  1
  In  In59  1  0.68334524  0.32850371  -0.01009012  1
  In  In60  1  0.00911880  0.19271377  0.48979919  1
  In  In61  1  0.49048197  0.49568603  0.34410152  1
  In  In62  1  0.84668896  0.65501468  0.80856962  1
  In  In63  1  0.47962552  0.35117404  0.50866149  1
  In  In64  1  0.87067697  -0.01733319  0.84376122  1
  In  In65  1  0.82041165  0.67166850  0.49449694  1
  In  In66  1  0.32477247  0.82730073  0.51626703  1
  In  In67  1  -0.00643138  0.84154522  0.49832881  1
  In  In68  1  0.47153649  0.34574207  0.19458801  1
  In  In69  1  0.49761985  0.00282036  0.82703575  1
  In  In70  1  0.00922477  0.50900120  0.14410798  1
  In  In71  1  -0.00062500  0.66748524  0.00118977  1
  Te  Te72  1  0.03898955  0.11170057  0.07469186  1
  Te  Te73  1  0.07928865  0.08364611  0.40979200  1
  Te  Te74  1  0.11665297  0.09969740  0.73875993  1
  Te  Te75  1  0.11623948  0.41824069  0.09667188  1
  Te  Te76  1  0.06811286  0.43742113  0.45080893  1
  Te  Te77  1  0.14341998  0.42323331  0.75631704  1
  Te  Te78  1  0.10620197  0.74688128  0.08847751  1
  Te  Te79  1  0.09375595  0.75981758  0.41379082  1
  Te  Te80  1  0.08837222  0.75293628  0.75769167  1
  Te  Te81  1  0.41855732  0.08957388  0.09125955  1
  Te  Te82  1  0.39007489  0.09634339  0.44917852  1
  Te  Te83  1  0.39379066  0.09040227  0.76406469  1
  Te  Te84  1  0.42060955  0.41647565  0.07334435  1
  Te  Te85  1  0.38094353  0.41329599  0.40941321  1
  Te  Te86  1  0.41782333  0.43699553  0.74178006  1
  Te  Te87  1  0.39084517  0.69478742  0.05829848  1
  Te  Te88  1  0.41088715  0.73655836  0.43802325  1
  Te  Te89  1  0.38577450  0.71972980  0.73411488  1
  Te  Te90  1  0.77802738  0.09525404  0.08409247  1
  Te  Te91  1  0.73531391  0.08475725  0.41853894  1
  Te  Te92  1  0.74083621  0.06374872  0.74519401  1
  Te  Te93  1  0.77586332  0.41898171  0.07011132  1
  Te  Te94  1  0.76158292  0.41804207  0.42012031  1
  Te  Te95  1  0.76592386  0.41729078  0.75245713  1
  Te  Te96  1  0.74506495  0.75484327  0.08843402  1
  Te  Te97  1  0.72737529  0.73521993  0.39772443  1
  Te  Te98  1  0.75232894  0.74831742  0.74719187  1
  Te  Te99  1  0.10723308  0.27539853  0.23688429  1
  Te  Te100  1  0.09856132  0.24552836  0.59621423  1
  Te  Te101  1  0.10284491  0.26950927  0.89937583  1
  Te  Te102  1  0.09012926  0.56611487  0.26536695  1
  Te  Te103  1  0.09770210  0.56602358  0.56241107  1
  Te  Te104  1  0.07564394  0.56375808  0.92604435  1
  Te  Te105  1  0.07824454  0.92906971  0.24500759  1
  Te  Te106  1  0.08947331  0.91112476  0.59496617  1
  Te  Te107  1  0.03697559  0.93887987  0.92572966  1
  Te  Te108  1  0.40971884  0.24493260  0.28071832  1
  Te  Te109  1  0.39499691  0.27620362  0.60595999  1
  Te  Te110  1  0.38875686  0.24791321  0.90737718  1
  Te  Te111  1  0.42945661  0.58355138  0.24209418  1
  Te  Te112  1  0.37579088  0.57904448  0.53737613  1
  Te  Te113  1  0.43283150  0.60421521  0.93876955  1
  Te  Te114  1  0.40333396  0.91284705  0.24160327  1
  Te  Te115  1  0.42346741  0.91846187  0.60327989  1
  Te  Te116  1  0.41485835  0.92325011  0.93123302  1
  Te  Te117  1  0.73657715  0.25224011  0.25164307  1
  Te  Te118  1  0.74384427  0.24011871  0.57491584  1
  Te  Te119  1  0.78649469  0.23653294  0.92590101  1
  Te  Te120  1  0.72449795  0.60793318  0.26662941  1
  Te  Te121  1  0.76503509  0.57101583  0.59487085  1
  Te  Te122  1  0.76984501  0.58429588  0.92141801  1
  Te  Te123  1  0.75982765  0.92405832  0.23197478  1
  Te  Te124  1  0.75234581  0.88103197  0.57605596  1
  Te  Te125  1  0.74952900  0.90274368  0.89770065  1
  Te  Te126  1  0.23097761  0.23244766  0.06031678  1
  Te  Te127  1  0.24927058  0.25629423  0.43048183  1
  Te  Te128  1  0.24664624  0.30724799  0.72232313  1
  Te  Te129  1  0.24004701  0.54598680  0.08142251  1
  Te  Te130  1  0.26823983  0.53602443  0.40348933  1
  Te  Te131  1  0.27059607  0.60345935  0.74423035  1
  Te  Te132  1  0.24542434  0.91037353  0.08085003  1
  Te  Te133  1  0.24524047  0.91719533  0.41092907  1
  Te  Te134  1  0.22959647  0.91249355  0.78534670  1
  Te  Te135  1  0.59272556  0.24999390  0.08609432  1
  Te  Te136  1  0.56662633  0.25091209  0.44212646  1
  Te  Te137  1  0.57108279  0.24490217  0.77438327  1
  Te  Te138  1  0.58350691  0.58019808  0.07190736  1
  Te  Te139  1  0.57298366  0.58651721  0.42656424  1
  Te  Te140  1  0.56559120  0.58419574  0.75223127  1
  Te  Te141  1  0.58660952  0.90421762  0.07192590  1
  Te  Te142  1  0.58994916  0.90291771  0.42541310  1
  Te  Te143  1  0.57312030  0.89349887  0.75766926  1
  Te  Te144  1  0.95035611  0.24346242  0.08258985  1
  Te  Te145  1  0.90565310  0.25612865  0.39780741  1
  Te  Te146  1  0.91314856  0.26211607  0.73641670  1
  Te  Te147  1  0.90772783  0.60344960  0.09735097  1
  Te  Te148  1  0.91993058  0.58572338  0.41591706  1
  Te  Te149  1  0.94482870  0.56216527  0.75023208  1
  Te  Te150  1  0.93291804  0.91279142  0.04871235  1
  Te  Te151  1  0.92046016  0.93200671  0.39945721  1
  Te  Te152  1  0.90693378  0.90963011  0.72337672  1
  Te  Te153  1  0.23947784  0.07767758  0.22927167  1
  Te  Te154  1  0.27282663  0.08734009  0.58030336  1
  Te  Te155  1  0.21120774  0.07836573  0.90941810  1
  Te  Te156  1  0.25881357  0.42555645  0.30099914  1
  Te  Te157  1  0.23707131  0.43247420  0.62763881  1
  Te  Te158  1  0.24045360  0.42582452  0.89548611  1
  Te  Te159  1  0.28048097  0.72523383  0.26479008  1
  Te  Te160  1  0.22990147  0.75507253  0.60094957  1
  Te  Te161  1  0.24257727  0.74229648  0.92813699  1
  Te  Te162  1  0.55760646  0.09159353  0.27493841  1
  Te  Te163  1  0.58124352  0.08222076  0.59200703  1
  Te  Te164  1  0.59266611  0.07682321  0.93160474  1
  Te  Te165  1  0.59627795  0.42153611  0.23827000  1
  Te  Te166  1  0.58808502  0.41776616  0.61039705  1
  Te  Te167  1  0.59048844  0.42699692  0.92208286  1
  Te  Te168  1  0.53640608  0.73506622  0.23659080  1
  Te  Te169  1  0.57492795  0.71997426  0.56349546  1
  Te  Te170  1  0.57054314  0.73915933  0.89292273  1
  Te  Te171  1  0.95087698  0.10419741  0.23848969  1
  Te  Te172  1  0.92619800  0.08438370  0.57011591  1
  Te  Te173  1  0.94766092  0.08785139  0.91493610  1
  Te  Te174  1  0.92168368  0.41539737  0.24589287  1
  Te  Te175  1  0.93615817  0.43246383  0.59458624  1
  Te  Te176  1  0.95186211  0.44955953  0.91815397  1
  Te  Te177  1  0.90424642  0.74409496  0.23563459  1
  Te  Te178  1  0.92704734  0.73605383  0.58151906  1
  Te  Te179  1  0.94307473  0.75171165  0.88930448  1
