# generated using pymatgen
data_In2Te3
_symmetry_space_group_name_H-M   'P 1'
_cell_length_a   18.80496080
_cell_length_b   18.78489975
_cell_length_c   18.79221239
_cell_angle_alpha   90.00860215
_cell_angle_beta   90.06065624
_cell_angle_gamma   90.04057352
_symmetry_Int_Tables_number   1
_chemical_formula_structural   In2Te3
_chemical_formula_sum   'In72 Te108'
_cell_volume   6638.33047628
_cell_formula_units_Z   36
loop_
 _symmetry_equiv_pos_site_id
 _symmetry_equiv_pos_as_xyz
  1  'x, y, z'
loop_
 _atom_site_type_symbol
 _atom_site_label
 _atom_site_symmetry_multiplicity
 _atom_site_fract_x
 _atom_site_fract_y
 _atom_site_fract_z
 _atom_site_occupancy
  In  In0  1  0.00973023  0.49499751  0.82005423  1
  In  In1  1  0.00909922  0.82755327  0.18702685  1
  In  In2  1  0.50591539  0.33675753  0.81353349  1
  In  In3  1  0.47920965  0.85854709  0.63005449  1
  In  In4  1  0.67168866  0.68019810  0.34229227  1
  In  In5  1  0.00719638  0.82798982  0.49765215  1
  In  In6  1  0.67367754  0.49555090  0.82869713  1
  In  In7  1  0.67080975  0.67474372  -0.00973511  1
  In  In8  1  0.14561147  0.52948044  0.63137545  1
  In  In9  1  0.32835531  -0.00845354  -0.00271166  1
  In  In10  1  0.66081720  0.50257670  0.49818027  1
  In  In11  1  0.15657150  0.16593354  0.67023060  1
  In  In12  1  0.49381161  0.50053169  0.32821775  1
  In  In13  1  0.84926862  0.35560027  0.50786026  1
  In  In14  1  -0.01882632  0.00862870  -0.00238700  1
  In  In15  1  -0.00564064  0.49888526  0.16808002  1
  In  In16  1  0.33366482  0.81935812  0.82908038  1
  In  In17  1  0.34374698  0.51018927  0.49172548  1
  In  In18  1  0.13920758  0.47540632  0.35179745  1
  In  In19  1  0.84453299  0.17071178  0.67325962  1
  In  In20  1  0.51434473  0.66102855  0.17845683  1
  In  In21  1  0.31088478  0.63227509  0.01309113  1
  In  In22  1  0.33358304  0.82161324  0.18307178  1
  In  In23  1  0.33470828  0.49004005  0.83059896  1
  In  In24  1  0.81455426  0.02343013  0.15489315  1
  In  In25  1  -0.01736091  0.30961953  -0.00315449  1
  In  In26  1  0.86132756  0.51373910  0.33213390  1
  In  In27  1  0.67190044  0.68435830  0.65540580  1
  In  In28  1  0.32693327  0.69637524  0.35796043  1
  In  In29  1  0.86021798  0.66827946  0.17206115  1
  In  In30  1  0.32051423  0.00333280  0.34146957  1
  In  In31  1  0.50195558  0.47298602  -0.00786840  1
  In  In32  1  0.47815431  0.00483594  0.80085836  1
  In  In33  1  0.81950984  0.17133559  0.35593850  1
  In  In34  1  0.33245867  0.31829045  0.33313944  1
  In  In35  1  0.14273525  0.31123048  0.85675146  1
  In  In36  1  0.01119249  0.16659754  0.16457337  1
  In  In37  1  0.34183406  0.11909095  0.81853794  1
  In  In38  1  0.84202197  0.87027993  0.67695754  1
  In  In39  1  0.50370537  0.33347582  0.15489147  1
  In  In40  1  0.15274047  0.83908815  0.02886755  1
  In  In41  1  0.64283098  0.85583788  0.16015375  1
  In  In42  1  0.71661625  0.46447077  0.14285100  1
  In  In43  1  0.14883242  0.67383884  0.81600926  1
  In  In44  1  0.35408499  0.31458833  0.03083528  1
  In  In45  1  0.53515803  0.67283117  0.81899665  1
  In  In46  1  0.33433560  0.16531094  0.48350661  1
  In  In47  1  0.85241367  0.66639046  0.47956733  1
  In  In48  1  0.66296458  0.30212596  0.33585385  1
  In  In49  1  0.32348354  0.32523815  0.64828166  1
  In  In50  1  0.62672491  0.14893915  0.52815835  1
  In  In51  1  0.14691146  0.81773748  0.65393662  1
  In  In52  1  0.14736359  0.00360079  0.84000229  1
  In  In53  1  -0.00903350  0.34001930  0.66538287  1
  In  In54  1  0.31931235  0.16060146  0.18336021  1
  In  In55  1  0.85498114  0.65304906  0.82876034  1
  In  In56  1  0.68062280  0.33847031  0.65582673  1
  In  In57  1  0.34040186  -0.00954146  0.64878935  1
  In  In58  1  0.02011225  -0.00133386  0.33530365  1
  In  In59  1  0.16585324  0.33080510  0.18845454  1
  In  In60  1  0.31490737  0.67654716  0.62198626  1
  In  In61  1  0.67563265  0.86886370  0.84122926  1
  In  In62  1  0.51961739  0.02321186  0.18940466  1
  In  In63  1  0.83017335  0.83592006  -0.01808636  1
  In  In64  1  0.50714613  0.85934423  0.05904459  1
  In  In65  1  0.69657341  0.16444669  0.83348829  1
  In  In66  1  0.51501884  0.18065109  -0.00162909  1
  In  In67  1  0.17792550  0.50917693  0.01172807  1
  In  In68  1  0.81946512  0.01832864  0.50317002  1
  In  In69  1  -0.00900207  0.16805079  0.48148249  1
  In  In70  1  0.82997589  0.83451621  0.30802647  1
  In  In71  1  0.82173062  0.32843664  0.83781899  1
  Te  Te72  1  0.07969384  0.05527542  0.09679448  1
  Te  Te73  1  0.09977281  0.08597677  0.42449872  1
  Te  Te74  1  0.06290349  0.07862083  0.74466544  1
  Te  Te75  1  0.08621653  0.40059414  0.07316892  1
  Te  Te76  1  0.10097270  0.36166725  0.43692884  1
  Te  Te77  1  0.11355788  0.41156210  0.74348710  1
  Te  Te78  1  0.07709217  0.73188680  0.09551508  1
  Te  Te79  1  0.10596346  0.73458048  0.43755422  1
  Te  Te80  1  0.04975577  0.75775842  0.74807413  1
  Te  Te81  1  0.41790105  0.08579124  0.07899919  1
  Te  Te82  1  0.42995064  0.08360859  0.40381651  1
  Te  Te83  1  0.43533010  0.10705137  0.69262368  1
  Te  Te84  1  0.40214904  0.44004838  0.10273173  1
  Te  Te85  1  0.42635831  0.40170804  0.42192770  1
  Te  Te86  1  0.41916109  0.42438006  0.72342919  1
  Te  Te87  1  0.41477944  0.73632804  0.07607665  1
  Te  Te88  1  0.44145365  0.77376774  0.42880708  1
  Te  Te89  1  0.42615013  0.74593799  0.73390008  1
  Te  Te90  1  0.70474752  0.09810706  0.08690360  1
  Te  Te91  1  0.70550468  0.07465804  0.40923107  1
  Te  Te92  1  0.75679592  0.06913309  0.73639966  1
  Te  Te93  1  0.76512733  0.36436300  0.04874648  1
  Te  Te94  1  0.74962863  0.42175130  0.40301349  1
  Te  Te95  1  0.77418937  0.42991601  0.73362358  1
  Te  Te96  1  0.74495216  0.75489985  0.09821261  1
  Te  Te97  1  0.75539435  0.77380611  0.42772336  1
  Te  Te98  1  0.74858593  0.75353657  0.76998366  1
  Te  Te99  1  0.08744309  0.23669207  0.27021571  1
  Te  Te100  1  0.08435524  0.26198306  0.57335429  1
  Te  Te101  1  0.06171334  0.20790427  0.92223756  1
  Te  Te102  1  0.08757449  0.57531410  0.25490030  1
  Te  Te103  1  0.07913777  0.63417074  0.54937722  1
  Te  Te104  1  0.08078754  0.58639331  0.92107848  1
  Te  Te105  1  0.10874703  0.89194147  0.27916248  1
  Te  Te106  1  0.07672835  0.92644550  0.58328447  1
  Te  Te107  1  0.06582784  0.90370620  0.92141864  1
  Te  Te108  1  0.43241125  0.23704372  0.25138453  1
  Te  Te109  1  0.42371116  0.24358789  0.57787286  1
  Te  Te110  1  0.41283690  0.24979190  0.90017756  1
  Te  Te111  1  0.40115703  0.59955307  0.25788778  1
  Te  Te112  1  0.42838163  0.59422378  0.57946181  1
  Te  Te113  1  0.43348653  0.58470640  0.90453227  1
  Te  Te114  1  0.42414230  0.92314925  0.25278253  1
  Te  Te115  1  0.39667279  0.92691028  0.51969879  1
  Te  Te116  1  0.42593309  0.90865669  0.91499641  1
  Te  Te117  1  0.76306261  0.24834867  0.24269454  1
  Te  Te118  1  0.76119781  0.23982525  0.56106118  1
  Te  Te119  1  0.76181779  0.24165104  0.94697976  1
  Te  Te120  1  0.74455470  0.58704594  0.24474466  1
  Te  Te121  1  0.76018864  0.58855719  0.57617245  1
  Te  Te122  1  0.76232650  0.57313801  0.92546436  1
  Te  Te123  1  0.73035292  0.93749279  0.25657459  1
  Te  Te124  1  0.74135739  0.92092705  0.58251913  1
  Te  Te125  1  0.75954527  0.95729168  0.92912992  1
  Te  Te126  1  0.23389056  0.23905991  0.08297293  1
  Te  Te127  1  0.22897043  0.25563537  0.42077014  1
  Te  Te128  1  0.25447359  0.24495893  0.76278037  1
  Te  Te129  1  0.21567346  0.60192324  0.12303019  1
  Te  Te130  1  0.23830929  0.58283114  0.41113648  1
  Te  Te131  1  0.25591733  0.59085739  0.74338915  1
  Te  Te132  1  0.24835492  0.92735124  0.10829457  1
  Te  Te133  1  0.26440904  0.90564507  0.44088685  1
  Te  Te134  1  0.24714268  0.91720966  0.75176175  1
  Te  Te135  1  0.60349406  0.23090301  0.10798310  1
  Te  Te136  1  0.56760831  0.24822405  0.43414507  1
  Te  Te137  1  0.59878597  0.24118224  0.73967488  1
  Te  Te138  1  0.58845627  0.57608586  0.07489719  1
  Te  Te139  1  0.56936700  0.59726995  0.41981491  1
  Te  Te140  1  0.58948041  0.56834954  0.72410558  1
  Te  Te141  1  0.61090736  0.97503944  0.06089923  1
  Te  Te142  1  0.56152903  0.85858165  0.43007445  1
  Te  Te143  1  0.58521993  0.92004265  0.72774941  1
  Te  Te144  1  0.89899020  0.23733846  0.09693134  1
  Te  Te145  1  0.92356471  0.27801390  0.39946995  1
  Te  Te146  1  0.93321184  0.24705285  0.77133326  1
  Te  Te147  1  0.90618708  0.57116391  0.07271480  1
  Te  Te148  1  0.95301569  0.55902930  0.44320595  1
  Te  Te149  1  0.93608873  0.58284785  0.72641655  1
  Te  Te150  1  0.90734554  0.90806950  0.10413997  1
  Te  Te151  1  0.90634175  0.92546734  0.41243541  1
  Te  Te152  1  0.90516121  0.95492286  0.78032799  1
  Te  Te153  1  0.22282893  0.08043401  0.25930069  1
  Te  Te154  1  0.23996056  0.08100642  0.57621681  1
  Te  Te155  1  0.23686888  0.09124730  0.92876952  1
  Te  Te156  1  0.25900961  0.42715577  0.25809953  1
  Te  Te157  1  0.24103917  0.42648174  0.56903234  1
  Te  Te158  1  0.25684151  0.40242921  0.92752505  1
  Te  Te159  1  0.22641495  0.77334907  0.27547169  1
  Te  Te160  1  0.24555403  0.78234957  0.54076205  1
  Te  Te161  1  0.24233733  0.74833272  0.92734657  1
  Te  Te162  1  0.60690117  0.08762175  0.28741189  1
  Te  Te163  1  0.56978978  0.03159146  0.59583098  1
  Te  Te164  1  0.57184447  0.09131756  0.88840369  1
  Te  Te165  1  0.59439177  0.42404064  0.24132245  1
  Te  Te166  1  0.57927068  0.40541771  0.57308940  1
  Te  Te167  1  0.60503274  0.39014497  0.91825859  1
  Te  Te168  1  0.56961899  0.77102397  0.26866625  1
  Te  Te169  1  0.58325404  0.76505163  0.56401679  1
  Te  Te170  1  0.57777374  0.77796103  0.92800256  1
  Te  Te171  1  0.90765340  0.07845960  0.26633862  1
  Te  Te172  1  0.93195189  0.07652518  0.58820613  1
  Te  Te173  1  0.88802509  0.06071046  0.89506855  1
  Te  Te174  1  0.91040305  0.40516125  0.24584735  1
  Te  Te175  1  0.93592791  0.45160120  0.58273715  1
  Te  Te176  1  0.91685175  0.42133547  0.91518727  1
  Te  Te177  1  0.93921062  0.72971178  0.28627946  1
  Te  Te178  1  0.90637601  0.76018637  0.59207177  1
  Te  Te179  1  0.92726788  0.74416712  0.92211460  1
