# generated using pymatgen
data_In2Te3
_symmetry_space_group_name_H-M   'P 1'
_cell_length_a   18.98681493
_cell_length_b   18.97855741
_cell_length_c   19.01214901
_cell_angle_alpha   90.18144438
_cell_angle_beta   89.75167140
_cell_angle_gamma   90.09260621
_symmetry_Int_Tables_number   1
_chemical_formula_structural   In2Te3
_chemical_formula_sum   'In72 Te108'
_cell_volume   6850.77509554
_cell_formula_units_Z   36
loop_
 _symmetry_equiv_pos_site_id
 _symmetry_equiv_pos_as_xyz
  1  'x, y, z'
loop_
 _atom_site_type_symbol
 _atom_site_label
 _atom_site_symmetry_multiplicity
 _atom_site_fract_x
 _atom_site_fract_y
 _atom_site_fract_z
 _atom_site_occupancy
  In  In0  1  -0.01490931  0.00511616  0.67983662  1
  In  In1  1  0.84607277  0.32557882  0.83328319  1
  In  In2  1  0.17247319  0.34547460  0.15784898  1
  In  In3  1  0.17165397  0.51325782  0.34366812  1
  In  In4  1  0.00032184  0.48439068  0.51742350  1
  In  In5  1  0.17667871  0.85233270  0.02693021  1
  In  In6  1  0.16359183  0.84788310  0.32432017  1
  In  In7  1  0.81782379  0.48644694  0.67865893  1
  In  In8  1  0.48460007  -0.01584390  0.53221777  1
  In  In9  1  0.68347005  0.17712048  0.18446590  1
  In  In10  1  0.14653610  0.64352216  0.84026336  1
  In  In11  1  0.64132329  0.85661225  0.14845460  1
  In  In12  1  0.33069348  0.15805495  0.83799984  1
  In  In13  1  0.67466876  0.47588020  0.84015922  1
  In  In14  1  0.64641832  0.02832620  0.68142525  1
  In  In15  1  0.32718947  0.15270256  0.49460345  1
  In  In16  1  0.67831819  0.81701963  0.50040822  1
  In  In17  1  0.18352767  0.83424924  0.69786439  1
  In  In18  1  -0.05690614  0.47023480  0.17339951  1
  In  In19  1  0.01731127  0.86277528  0.47697606  1
  In  In20  1  0.82458387  0.82345808  0.00888475  1
  In  In21  1  0.00230485  0.18509904  0.85756139  1
  In  In22  1  0.13664644  0.51181227  0.01626274  1
  In  In23  1  0.32514970  0.68340988  0.68268864  1
  In  In24  1  0.50015761  0.47734551  0.65503186  1
  In  In25  1  0.01092393  0.67514937  0.30304576  1
  In  In26  1  0.49048670  0.84350580  0.33634448  1
  In  In27  1  0.30662629  0.32264065  -0.01587862  1
  In  In28  1  0.36440629  0.50988771  0.17569621  1
  In  In29  1  0.82854364  0.83829990  0.64415640  1
  In  In30  1  0.51014831  0.16453961  0.32055869  1
  In  In31  1  0.31915593  -0.00577443  0.31288727  1
  In  In32  1  0.66635519  0.48561147  0.45523837  1
  In  In33  1  0.35351991  0.32142880  0.34774187  1
  In  In34  1  0.01380799  0.64444090  0.65884560  1
  In  In35  1  0.49779011  0.15388510  0.01547721  1
  In  In36  1  -0.00409858  0.16866257  0.15922505  1
  In  In37  1  0.84288338  0.00094279  0.47458920  1
  In  In38  1  0.80594514  0.00438965  0.80881462  1
  In  In39  1  0.85103356  0.67180001  0.47413769  1
  In  In40  1  0.17203069  -0.00980164  0.83979698  1
  In  In41  1  0.49788698  0.66427479  0.82910163  1
  In  In42  1  0.65154918  0.18808737  0.83500511  1
  In  In43  1  0.64349253  0.82613851  0.85061253  1
  In  In44  1  0.68499515  0.17847789  0.49928717  1
  In  In45  1  0.50070569  0.33199516  0.50272385  1
  In  In46  1  0.49233421  0.68042864  0.16766638  1
  In  In47  1  0.66236763  0.00516662  0.31955366  1
  In  In48  1  0.83703295  0.14496968  0.00066630  1
  In  In49  1  0.84401425  0.01008118  0.17656955  1
  In  In50  1  0.49766148  0.49288357  -0.01492787  1
  In  In51  1  0.34320798  0.33295109  0.69832442  1
  In  In52  1  0.13516349  0.21283655  0.66698104  1
  In  In53  1  0.16346134  0.02290706  0.50682394  1
  In  In54  1  0.65715369  0.65345299  0.62905595  1
  In  In55  1  0.15381227  0.15695756  0.34530916  1
  In  In56  1  0.81045521  0.68376004  0.83871565  1
  In  In57  1  0.52219707  0.34669346  0.18028432  1
  In  In58  1  0.17657907  0.67790223  0.18989168  1
  In  In59  1  0.34259843  0.68715030  0.01009600  1
  In  In60  1  0.48413262  0.01237642  0.84704320  1
  In  In61  1  0.49874942  0.66826952  0.48553248  1
  In  In62  1  0.68167809  0.62655615  0.00597227  1
  In  In63  1  -0.01252852  0.33450213  0.35962159  1
  In  In64  1  0.83279607  0.48297682  0.32724686  1
  In  In65  1  0.34641036  0.46225212  0.80331779  1
  In  In66  1  0.15950525  0.46559987  0.65700510  1
  In  In67  1  0.03418399  0.01936808  0.00639895  1
  In  In68  1  0.00295088  0.82184551  0.16109726  1
  In  In69  1  0.10522410  0.34960090  0.86593482  1
  In  In70  1  0.32880315  0.50557823  0.48239682  1
  In  In71  1  0.33014957  0.85871174  0.85320094  1
  Te  Te72  1  0.09923810  0.06531352  0.12902777  1
  Te  Te73  1  0.06788243  0.05116931  0.40058204  1
  Te  Te74  1  0.08771595  0.08716669  0.76065967  1
  Te  Te75  1  0.05519071  0.40562023  0.08479848  1
  Te  Te76  1  0.10050350  0.41093116  0.42855609  1
  Te  Te77  1  0.05023443  0.41294534  0.74101555  1
  Te  Te78  1  0.09455324  0.73463635  0.07684184  1
  Te  Te79  1  0.09040851  0.74676176  0.41094010  1
  Te  Te80  1  0.07358181  0.74546216  0.75563313  1
  Te  Te81  1  0.38451020  0.06549654  0.05075836  1
  Te  Te82  1  0.42905245  0.07519363  0.41359285  1
  Te  Te83  1  0.44689969  0.12104855  0.74845222  1
  Te  Te84  1  0.40803565  0.40157376  0.07629755  1
  Te  Te85  1  0.43920642  0.43162995  0.40692720  1
  Te  Te86  1  0.47628086  0.38210068  0.77067400  1
  Te  Te87  1  0.39263970  0.77662200  0.11412196  1
  Te  Te88  1  0.40906425  0.76890975  0.43223172  1
  Te  Te89  1  0.42048593  0.77106146  0.75980972  1
  Te  Te90  1  0.73827052  0.07199344  0.08764940  1
  Te  Te91  1  0.75763059  0.09722793  0.39215084  1
  Te  Te92  1  0.75198754  0.12310685  0.73379578  1
  Te  Te93  1  0.80189731  0.48092681  0.11015987  1
  Te  Te94  1  0.77962864  0.39033707  0.43445370  1
  Te  Te95  1  0.73278386  0.37772541  0.74158634  1
  Te  Te96  1  0.73033338  0.74048026  0.09199281  1
  Te  Te97  1  0.74873664  0.74084246  0.39729950  1
  Te  Te98  1  0.72824376  0.75507578  0.72753334  1
  Te  Te99  1  0.08609335  0.26765173  0.25665716  1
  Te  Te100  1  0.06606489  0.24940297  0.54608713  1
  Te  Te101  1  0.10905434  0.22749480  0.94962799  1
  Te  Te102  1  0.08164133  0.55920231  0.23241115  1
  Te  Te103  1  0.11311445  0.57934872  0.56694525  1
  Te  Te104  1  0.04565682  0.58465298  0.92826959  1
  Te  Te105  1  0.08067256  0.92661148  0.23126805  1
  Te  Te106  1  0.08870539  0.91655968  0.60249877  1
  Te  Te107  1  0.08027344  0.90162346  0.92024064  1
  Te  Te108  1  0.41812787  0.24658139  0.23190424  1
  Te  Te109  1  0.40585686  0.24946270  0.58358493  1
  Te  Te110  1  0.42138277  0.24763465  0.92159955  1
  Te  Te111  1  0.41521180  0.60693199  0.27092917  1
  Te  Te112  1  0.41011114  0.58169131  0.59742700  1
  Te  Te113  1  0.39666335  0.57923301  0.90443345  1
  Te  Te114  1  0.43299246  0.93756474  0.24016609  1
  Te  Te115  1  0.37652003  0.93129830  0.61010818  1
  Te  Te116  1  0.44353407  0.90079936  0.94182222  1
  Te  Te117  1  0.72971419  0.30137719  0.24995529  1
  Te  Te118  1  0.79922688  0.26792142  0.53140914  1
  Te  Te119  1  0.75408210  0.24981062  0.92747982  1
  Te  Te120  1  0.73335306  0.54347200  0.23787384  1
  Te  Te121  1  0.76649969  0.57604040  0.55901021  1
  Te  Te122  1  0.78007342  0.55439541  0.91435605  1
  Te  Te123  1  0.75202686  0.91044888  0.24370274  1
  Te  Te124  1  0.73701202  0.94227381  0.58517203  1
  Te  Te125  1  0.74403971  0.91543259  0.91632588  1
  Te  Te126  1  0.22729122  0.23637991  0.07290868  1
  Te  Te127  1  0.24327918  0.25627520  0.42548540  1
  Te  Te128  1  0.23314017  0.25882767  0.77403047  1
  Te  Te129  1  0.25909153  0.57948379  0.08998795  1
  Te  Te130  1  0.27101754  0.60814166  0.39473476  1
  Te  Te131  1  0.23877695  0.56723811  0.74449426  1
  Te  Te132  1  0.27263762  0.95602046  0.06402893  1
  Te  Te133  1  0.24795322  0.92459924  0.42575052  1
  Te  Te134  1  0.28653053  0.95009208  0.73681832  1
  Te  Te135  1  0.59366970  0.25247529  0.08604931  1
  Te  Te136  1  0.59142989  0.25710646  0.40658454  1
  Te  Te137  1  0.55034255  0.23886886  0.74268137  1
  Te  Te138  1  0.57024990  0.56976394  0.09344734  1
  Te  Te139  1  0.60217672  0.60531561  0.40287468  1
  Te  Te140  1  0.59256759  0.57636000  0.74930550  1
  Te  Te141  1  0.56656982  0.90830798  0.03644103  1
  Te  Te142  1  0.59303443  0.92719914  0.42929364  1
  Te  Te143  1  0.57190315  0.92114942  0.75635608  1
  Te  Te144  1  0.91536190  0.24844952  0.06695479  1
  Te  Te145  1  0.94350340  0.22839085  0.45448283  1
  Te  Te146  1  0.92431843  0.23503925  0.74652894  1
  Te  Te147  1  0.89941159  0.59639161  0.11013177  1
  Te  Te148  1  0.94088218  0.57107250  0.40156416  1
  Te  Te149  1  0.89926840  0.59667314  0.74395240  1
  Te  Te150  1  0.92364000  0.92714664  0.07408841  1
  Te  Te151  1  0.90407775  0.89492017  0.39346009  1
  Te  Te152  1  0.90701691  0.89992541  0.75729389  1
  Te  Te153  1  0.26314003  0.11519259  0.25591327  1
  Te  Te154  1  0.23534616  0.10980858  0.60674397  1
  Te  Te155  1  0.26434429  0.06191308  0.93481186  1
  Te  Te156  1  0.26669093  0.41725757  0.25818657  1
  Te  Te157  1  0.27247743  0.40334008  0.58022179  1
  Te  Te158  1  0.23126947  0.43377840  0.91570897  1
  Te  Te159  1  0.26483599  0.78571840  0.23437062  1
  Te  Te160  1  0.24685113  0.76067258  0.58837378  1
  Te  Te161  1  0.24372965  0.74655550  0.91094960  1
  Te  Te162  1  0.57411761  0.07322937  0.21788900  1
  Te  Te163  1  0.57477033  0.10301790  0.57246025  1
  Te  Te164  1  0.59602448  0.07995062  0.92409168  1
  Te  Te165  1  0.62772404  0.41654036  0.25726228  1
  Te  Te166  1  0.60829706  0.40892146  0.57742603  1
  Te  Te167  1  0.60797857  0.40445384  0.94864170  1
  Te  Te168  1  0.58754229  0.76089730  0.25399969  1
  Te  Te169  1  0.56524847  0.76437288  0.58763892  1
  Te  Te170  1  0.57888687  0.72407656  0.94054613  1
  Te  Te171  1  0.90457197  0.11305480  0.25980713  1
  Te  Te172  1  0.91815619  0.07907303  0.57431192  1
  Te  Te173  1  0.91860637  0.05862323  0.90410758  1
  Te  Te174  1  0.88303716  0.34960140  0.25015472  1
  Te  Te175  1  0.90664412  0.40229937  0.59449251  1
  Te  Te176  1  0.96256391  0.40326834  0.88411841  1
  Te  Te177  1  0.90246745  0.72645002  0.21775857  1
  Te  Te178  1  0.93304667  0.75208066  0.57527175  1
  Te  Te179  1  0.91180631  0.73800815  0.92838178  1
