# generated using pymatgen
data_In2Te3
_symmetry_space_group_name_H-M   'P 1'
_cell_length_a   18.77787328
_cell_length_b   18.76981282
_cell_length_c   18.77710884
_cell_angle_alpha   89.94101341
_cell_angle_beta   90.02434466
_cell_angle_gamma   89.95828169
_symmetry_Int_Tables_number   1
_chemical_formula_structural   In2Te3
_chemical_formula_sum   'In72 Te108'
_cell_volume   6618.12071458
_cell_formula_units_Z   36
loop_
 _symmetry_equiv_pos_site_id
 _symmetry_equiv_pos_as_xyz
  1  'x, y, z'
loop_
 _atom_site_type_symbol
 _atom_site_label
 _atom_site_symmetry_multiplicity
 _atom_site_fract_x
 _atom_site_fract_y
 _atom_site_fract_z
 _atom_site_occupancy
  In  In0  1  0.15593560  0.14905032  0.34066356  1
  In  In1  1  0.66057134  -0.02860855  0.34727190  1
  In  In2  1  0.82176404  -0.00155755  0.18116699  1
  In  In3  1  0.65618022  0.53154615  0.82478335  1
  In  In4  1  0.32718464  0.35004935  0.67296669  1
  In  In5  1  0.50926226  0.83344939  0.35327092  1
  In  In6  1  -0.00763379  0.67629208  0.66917554  1
  In  In7  1  0.32445284  0.35202855  0.00770695  1
  In  In8  1  0.14969074  0.51092204  -0.01499571  1
  In  In9  1  0.67511639  0.16305416  0.17285964  1
  In  In10  1  0.34647759  0.82373171  0.16062529  1
  In  In11  1  0.00348121  -0.01122244  0.67166430  1
  In  In12  1  0.33928984  0.15073942  0.49249285  1
  In  In13  1  0.80129952  0.54012575  0.65296082  1
  In  In14  1  0.50037131  -0.01202173  0.16275217  1
  In  In15  1  0.84950710  0.17230667  0.33701817  1
  In  In16  1  0.34091044  0.70804781  -0.01896290  1
  In  In17  1  0.18185954  0.68657713  0.51714979  1
  In  In18  1  -0.00199560  0.66012190  -0.03635970  1
  In  In19  1  0.66561890  0.34424076  0.65015498  1
  In  In20  1  0.47729408  0.34353647  0.82941240  1
  In  In21  1  0.19209876  0.67489633  0.14495791  1
  In  In22  1  0.35298092  0.51377162  0.18730998  1
  In  In23  1  0.67443407  0.34353257  0.33458395  1
  In  In24  1  0.16485351  0.31539451  0.17100779  1
  In  In25  1  -0.01039622  0.65603239  0.31897459  1
  In  In26  1  0.14385771  0.49511488  0.35342340  1
  In  In27  1  0.16806311  0.84429713  0.67911783  1
  In  In28  1  0.64285891  0.80960451  0.79757027  1
  In  In29  1  0.83506460  -0.01358769  0.51302238  1
  In  In30  1  0.82429299  0.66685710  0.18100462  1
  In  In31  1  0.33407229  -0.02378465  0.65787486  1
  In  In32  1  0.51215298  0.15793102  0.66451304  1
  In  In33  1  0.65806093  -0.01936785  0.00669402  1
  In  In34  1  0.64850736  0.67346325  -0.01497454  1
  In  In35  1  0.52288648  0.51633537  0.34182611  1
  In  In36  1  0.66513176  0.13423694  0.84137386  1
  In  In37  1  0.47094302  0.15803729  0.35488577  1
  In  In38  1  0.00196580  0.16175442  0.48973518  1
  In  In39  1  0.83758392  -0.00672014  0.81336852  1
  In  In40  1  0.34816372  0.52331813  0.53344297  1
  In  In41  1  -0.01374607  0.48915111  0.49556836  1
  In  In42  1  0.67450351  0.16203181  0.52787379  1
  In  In43  1  -0.00920066  0.82431732  0.16869659  1
  In  In44  1  0.68737951  0.35435612  0.01275831  1
  In  In45  1  0.34237022  0.16956195  0.18122080  1
  In  In46  1  0.82645101  0.49236553  0.34794901  1
  In  In47  1  -0.01052052  0.33191115  0.67003154  1
  In  In48  1  0.34402591  -0.03352271  -0.02911524  1
  In  In49  1  0.87028200  0.16949551  -0.02180538  1
  In  In50  1  0.36188745  0.67148945  0.34747116  1
  In  In51  1  -0.01203061  0.83506762  0.49563402  1
  In  In52  1  0.31762273  0.15351147  0.82417662  1
  In  In53  1  0.83953530  0.83006282  -0.00177213  1
  In  In54  1  0.85300213  0.32650120  0.82464936  1
  In  In55  1  0.33549429  0.31352050  0.33944617  1
  In  In56  1  0.52675582  0.15437743  -0.00561507  1
  In  In57  1  0.15201167  0.85131796  -0.04581428  1
  In  In58  1  0.83328672  0.68024318  0.81431236  1
  In  In59  1  0.82998182  0.46382755  -0.01337137  1
  In  In60  1  0.65970771  -0.01474042  0.67352583  1
  In  In61  1  0.16704708  0.00749428  0.17209232  1
  In  In62  1  -0.01558819  0.17098116  0.15478673  1
  In  In63  1  0.51119030  0.35823464  0.50119982  1
  In  In64  1  0.13203698  0.18487240  -0.04393358  1
  In  In65  1  0.49445973  0.52116677  0.00581249  1
  In  In66  1  0.33356615  0.51482957  0.81786162  1
  In  In67  1  0.16783239  0.49401406  0.67962302  1
  In  In68  1  -0.01486757  0.48312359  0.16104166  1
  In  In69  1  0.14803559  0.15567647  0.67950407  1
  In  In70  1  0.66873576  0.68579027  0.36679457  1
  In  In71  1  0.18986670  0.86101146  0.36730988  1
  Te  Te72  1  0.08546837  0.09123246  0.07343759  1
  Te  Te73  1  0.07998695  0.05372100  0.42319482  1
  Te  Te74  1  0.09409448  0.05325331  0.77575700  1
  Te  Te75  1  0.08471300  0.40321077  0.07538528  1
  Te  Te76  1  0.06389134  0.38953578  0.41612362  1
  Te  Te77  1  0.08168471  0.40627503  0.76232880  1
  Te  Te78  1  0.08512381  0.75325509  0.06652488  1
  Te  Te79  1  0.08635471  0.74051335  0.40804041  1
  Te  Te80  1  0.08274053  0.75077494  0.75934648  1
  Te  Te81  1  0.41069911  0.07768461  0.07522570  1
  Te  Te82  1  0.42103016  0.04036108  0.43119019  1
  Te  Te83  1  0.41800947  0.07053379  0.74752879  1
  Te  Te84  1  0.42923059  0.41361315  0.09680741  1
  Te  Te85  1  0.40443078  0.42915197  0.41465091  1
  Te  Te86  1  0.43604121  0.44530627  0.72434305  1
  Te  Te87  1  0.43897203  0.73569962  0.08765019  1
  Te  Te88  1  0.42081074  0.75812436  0.45191528  1
  Te  Te89  1  0.44569405  0.72513620  0.72361295  1
  Te  Te90  1  0.75461863  0.08709007  0.06437489  1
  Te  Te91  1  0.74531030  0.08478837  0.41197031  1
  Te  Te92  1  0.75517752  0.09337343  0.72773979  1
  Te  Te93  1  0.75925296  0.43637861  0.11289767  1
  Te  Te94  1  0.73861789  0.41867461  0.44297466  1
  Te  Te95  1  0.74814161  0.42726983  0.76147124  1
  Te  Te96  1  0.74233783  0.75201994  0.08397489  1
  Te  Te97  1  0.76112999  0.74493443  0.46886588  1
  Te  Te98  1  0.74407040  0.73996963  0.71189134  1
  Te  Te99  1  0.06700633  0.24592854  0.26182403  1
  Te  Te100  1  0.08701071  0.25375811  0.58122755  1
  Te  Te101  1  0.03758637  0.27473483  0.88525997  1
  Te  Te102  1  0.09644132  0.58295362  0.22791973  1
  Te  Te103  1  0.08114807  0.58233064  0.57464879  1
  Te  Te104  1  0.10354715  0.60244047  0.87801523  1
  Te  Te105  1  0.09038920  0.90402808  0.25498399  1
  Te  Te106  1  0.09265345  0.92007545  0.56744308  1
  Te  Te107  1  0.05904216  0.94600222  0.89064851  1
  Te  Te108  1  0.44431913  0.26306667  0.24502882  1
  Te  Te109  1  0.41853624  0.25401909  0.58621426  1
  Te  Te110  1  0.41357171  0.23898576  0.92096839  1
  Te  Te111  1  0.45471281  0.61397694  0.24075327  1
  Te  Te112  1  0.42353130  0.62987763  0.60051249  1
  Te  Te113  1  0.42563362  0.60470273  0.89973721  1
  Te  Te114  1  0.41097592  0.91532279  0.26253855  1
  Te  Te115  1  0.40304923  0.88862554  0.55657224  1
  Te  Te116  1  0.43401020  0.87130561  0.90883059  1
  Te  Te117  1  0.76736044  0.26105393  0.24254147  1
  Te  Te118  1  0.76776399  0.25861768  0.58768888  1
  Te  Te119  1  0.74279898  0.24564847  0.91221380  1
  Te  Te120  1  0.73311350  0.58346471  0.26803410  1
  Te  Te121  1  0.72082181  0.61963570  0.55310632  1
  Te  Te122  1  0.76956826  0.59138070  0.92447583  1
  Te  Te123  1  0.73161664  0.89746880  0.24039335  1
  Te  Te124  1  0.73017274  0.89685000  0.57312172  1
  Te  Te125  1  0.74182297  0.90342374  0.90080818  1
  Te  Te126  1  0.24874173  0.23223474  0.07414727  1
  Te  Te127  1  0.23543413  0.24751874  0.42989121  1
  Te  Te128  1  0.23471384  0.25960448  0.75535407  1
  Te  Te129  1  0.27142316  0.57147682  0.06439841  1
  Te  Te130  1  0.25307350  0.58387153  0.41526958  1
  Te  Te131  1  0.25271791  0.60296184  0.73118663  1
  Te  Te132  1  0.24241339  0.90571107  0.08101996  1
  Te  Te133  1  0.29196825  0.92392005  0.45085535  1
  Te  Te134  1  0.26191339  0.91477915  0.77388999  1
  Te  Te135  1  0.58859656  0.25617510  0.08717830  1
  Te  Te136  1  0.57952450  0.24262703  0.42687620  1
  Te  Te137  1  0.58413080  0.25361164  0.75998426  1
  Te  Te138  1  0.60722543  0.57227803  0.08523529  1
  Te  Te139  1  0.57861598  0.59874731  0.45246416  1
  Te  Te140  1  0.58725248  0.63464866  0.74322811  1
  Te  Te141  1  0.57836732  0.88760258  0.08879492  1
  Te  Te142  1  0.60943930  0.88290284  0.45669488  1
  Te  Te143  1  0.54852927  0.90781195  0.73475897  1
  Te  Te144  1  0.90344643  0.26949306  0.08026421  1
  Te  Te145  1  0.90887906  0.26459378  0.43463467  1
  Te  Te146  1  0.93605611  0.22153395  0.75905487  1
  Te  Te147  1  0.92132632  0.59815720  0.08183020  1
  Te  Te148  1  0.90365752  0.59866353  0.42933871  1
  Te  Te149  1  0.91796060  0.56989026  0.75091518  1
  Te  Te150  1  0.91976783  0.92939248  0.08246692  1
  Te  Te151  1  0.90912688  0.92093656  0.40356309  1
  Te  Te152  1  0.90327366  0.89450126  0.72572210  1
  Te  Te153  1  0.26767180  0.07091765  0.26957325  1
  Te  Te154  1  0.24301934  0.07822413  0.58745288  1
  Te  Te155  1  0.24356835  0.07485202  0.93073294  1
  Te  Te156  1  0.24865857  0.41611790  0.25024851  1
  Te  Te157  1  0.24065423  0.41810533  0.56707893  1
  Te  Te158  1  0.24402545  0.41758740  0.89960274  1
  Te  Te159  1  0.24981565  0.75058155  0.26551503  1
  Te  Te160  1  0.27219698  0.76505416  0.60201637  1
  Te  Te161  1  0.25233049  0.76953510  0.87958136  1
  Te  Te162  1  0.57787477  0.08229245  0.25910399  1
  Te  Te163  1  0.56901494  0.05922595  0.56569216  1
  Te  Te164  1  0.56150109  0.04053712  0.89960386  1
  Te  Te165  1  0.57870224  0.41647887  0.24904606  1
  Te  Te166  1  0.58439985  0.45162132  0.58888978  1
  Te  Te167  1  0.57984915  0.41954228  0.91404162  1
  Te  Te168  1  0.59553275  0.75838755  0.25894916  1
  Te  Te169  1  0.56243982  0.74936051  0.63619993  1
  Te  Te170  1  0.55422129  0.76931107  0.91582046  1
  Te  Te171  1  0.93213591  0.07038222  0.25811567  1
  Te  Te172  1  0.91543512  0.08724104  0.59268434  1
  Te  Te173  1  0.93943498  0.05881052  0.90569128  1
  Te  Te174  1  0.92907162  0.41014309  0.27563934  1
  Te  Te175  1  0.89186078  0.42715182  0.59644058  1
  Te  Te176  1  0.94669222  0.41084187  0.91040523  1
  Te  Te177  1  0.89372316  0.76786715  0.27321489  1
  Te  Te178  1  0.89759352  0.74895865  0.57811370  1
  Te  Te179  1  0.92983350  0.77476449  0.88872380  1
