# generated using pymatgen
data_In2Te3
_symmetry_space_group_name_H-M   'P 1'
_cell_length_a   18.78166995
_cell_length_b   18.78981390
_cell_length_c   18.77963148
_cell_angle_alpha   90.05337176
_cell_angle_beta   89.97802854
_cell_angle_gamma   90.03922474
_symmetry_Int_Tables_number   1
_chemical_formula_structural   In2Te3
_chemical_formula_sum   'In72 Te108'
_cell_volume   6627.40371203
_cell_formula_units_Z   36
loop_
 _symmetry_equiv_pos_site_id
 _symmetry_equiv_pos_as_xyz
  1  'x, y, z'
loop_
 _atom_site_type_symbol
 _atom_site_label
 _atom_site_symmetry_multiplicity
 _atom_site_fract_x
 _atom_site_fract_y
 _atom_site_fract_z
 _atom_site_occupancy
  In  In0  1  0.34892276  0.82759647  0.84147373  1
  In  In1  1  0.66386063  0.02438097  -0.00943975  1
  In  In2  1  0.32438438  -0.00009597  0.33190679  1
  In  In3  1  0.65969821  0.49599143  0.51858195  1
  In  In4  1  0.49958629  0.00997118  0.16743096  1
  In  In5  1  -0.00858210  0.36308131  0.66152259  1
  In  In6  1  0.66165168  0.83149806  0.18237188  1
  In  In7  1  0.82960021  0.15284940  -0.00343126  1
  In  In8  1  0.01684863  -0.01202239  -0.01111239  1
  In  In9  1  0.17919490  0.15316916  -0.00895597  1
  In  In10  1  0.66252779  0.34878678  0.33580984  1
  In  In11  1  0.13568988  0.53249463  0.65025461  1
  In  In12  1  0.82425004  0.36325598  0.18778504  1
  In  In13  1  0.32700186  -0.01267112  -0.01309881  1
  In  In14  1  0.65785810  -0.01415978  0.65016971  1
  In  In15  1  -0.00209977  0.35514753  -0.01116994  1
  In  In16  1  0.83760901  -0.00284817  0.50443195  1
  In  In17  1  0.81134085  0.36006949  0.78984634  1
  In  In18  1  -0.00983206  0.16928178  0.16150931  1
  In  In19  1  0.51461343  0.51225144  0.35021727  1
  In  In20  1  0.83766413  0.52671556  0.34441325  1
  In  In21  1  0.48653087  0.66903787  0.17280897  1
  In  In22  1  0.19465991  0.16457669  0.67018567  1
  In  In23  1  0.33042504  0.66496846  0.02880279  1
  In  In24  1  0.37118048  0.35401890  0.32075125  1
  In  In25  1  0.34584133  0.32796124  0.68146119  1
  In  In26  1  0.83893361  0.15636952  0.34446184  1
  In  In27  1  0.65772306  0.17200937  0.81725875  1
  In  In28  1  0.17142232  0.81111931  0.67071474  1
  In  In29  1  0.15995478  0.83505591  -0.00431835  1
  In  In30  1  0.67591458  0.37068369  -0.02105842  1
  In  In31  1  0.01329835  0.18197110  0.81853009  1
  In  In32  1  0.64795916  0.84247684  0.79975716  1
  In  In33  1  0.15613337  0.32970897  0.14047316  1
  In  In34  1  0.66509515  0.67987298  0.65277699  1
  In  In35  1  0.83413488  -0.02503245  0.18161615  1
  In  In36  1  0.48986060  0.15556051  0.68036740  1
  In  In37  1  0.17125535  0.34494102  0.50021700  1
  In  In38  1  0.13564033  0.64019494  0.83642731  1
  In  In39  1  0.49869833  0.32743189  0.19088086  1
  In  In40  1  0.17253950  0.15097275  0.33071223  1
  In  In41  1  0.82499799  0.81069293  0.34830503  1
  In  In42  1  0.33182516  0.15809806  0.49595428  1
  In  In43  1  0.15989966  0.50613638  0.34590054  1
  In  In44  1  0.81293283  -0.01349191  0.81046778  1
  In  In45  1  0.62049208  0.16779834  0.18176478  1
  In  In46  1  0.33789897  0.82772595  0.16635766  1
  In  In47  1  0.83428234  0.65027110  0.17259312  1
  In  In48  1  0.16544697  0.66868296  0.16862371  1
  In  In49  1  0.82969947  0.67484872  0.50000571  1
  In  In50  1  0.18003753  0.00473652  0.51802562  1
  In  In51  1  0.49878408  0.16546098  0.35164859  1
  In  In52  1  0.47586644  0.80517169  0.38799303  1
  In  In53  1  0.17460868  -0.00279179  0.84305442  1
  In  In54  1  0.16181624  0.83603969  0.34881950  1
  In  In55  1  0.51060987  0.66798225  0.81388323  1
  In  In56  1  0.85402175  0.79067033  -0.04481199  1
  In  In57  1  0.83421729  0.83092664  0.67435079  1
  In  In58  1  0.84958015  0.50605338  -0.02342962  1
  In  In59  1  0.50868051  0.50339902  -0.01205300  1
  In  In60  1  -0.02376392  0.34678456  0.34465920  1
  In  In61  1  -0.00427730  0.14621732  0.51329747  1
  In  In62  1  0.35117004  0.65791491  0.63114862  1
  In  In63  1  0.68997757  0.19493211  0.53607337  1
  In  In64  1  0.49588062  0.17657219  -0.02096936  1
  In  In65  1  0.00580733  0.83614509  0.18076212  1
  In  In66  1  0.32452529  0.48484301  0.82414012  1
  In  In67  1  0.33092292  0.51269461  0.16474943  1
  In  In68  1  0.34648906  0.50883624  0.49883979  1
  In  In69  1  0.68461161  0.66019493  -0.01710497  1
  In  In70  1  0.33081139  0.32913069  -0.02926648  1
  In  In71  1  0.00591706  0.82286246  0.50494248  1
  Te  Te72  1  0.08921233  0.07729486  0.08949214  1
  Te  Te73  1  0.08155705  0.06382027  0.41679359  1
  Te  Te74  1  0.09067043  0.07606414  0.74092025  1
  Te  Te75  1  0.06635134  0.43515467  0.09269358  1
  Te  Te76  1  0.06005898  0.42967414  0.44223489  1
  Te  Te77  1  0.08814587  0.43245330  0.74796714  1
  Te  Te78  1  0.06858782  0.74447185  0.07524423  1
  Te  Te79  1  0.08784625  0.72988472  0.42247432  1
  Te  Te80  1  0.06771922  0.72352611  0.73340445  1
  Te  Te81  1  0.41237491  0.08805534  0.07137932  1
  Te  Te82  1  0.42636101  0.05736500  0.43092770  1
  Te  Te83  1  0.38216805  0.07623996  0.74133147  1
  Te  Te84  1  0.41953095  0.41504858  0.08665622  1
  Te  Te85  1  0.44753935  0.40662851  0.43915849  1
  Te  Te86  1  0.43074946  0.43873567  0.73290295  1
  Te  Te87  1  0.43632806  0.76768270  0.06650935  1
  Te  Te88  1  0.38089701  0.72240670  0.46833314  1
  Te  Te89  1  0.42228554  0.75637714  0.72793365  1
  Te  Te90  1  0.74787324  0.08152015  0.11054712  1
  Te  Te91  1  0.73698948  0.08793696  0.43353175  1
  Te  Te92  1  0.74971158  0.09247963  0.72478954  1
  Te  Te93  1  0.74971291  0.44893002  0.08672483  1
  Te  Te94  1  0.76004059  0.42259185  0.42480648  1
  Te  Te95  1  0.70231484  0.43534777  0.71985666  1
  Te  Te96  1  0.75603264  0.75664499  0.08600601  1
  Te  Te97  1  0.71943550  0.73207308  0.41856350  1
  Te  Te98  1  0.75765477  0.73694567  0.76812817  1
  Te  Te99  1  0.07227453  0.25777372  0.26234242  1
  Te  Te100  1  0.09057934  0.24699461  0.58575479  1
  Te  Te101  1  0.09694502  0.26002763  0.91843630  1
  Te  Te102  1  0.07657619  0.58921188  0.25622493  1
  Te  Te103  1  0.05324690  0.59373082  0.54557731  1
  Te  Te104  1  0.04229676  0.58421007  0.93684577  1
  Te  Te105  1  0.09764365  0.92666612  0.25079637  1
  Te  Te106  1  0.08452705  0.91694600  0.59786945  1
  Te  Te107  1  0.07019977  0.88906783  0.88501794  1
  Te  Te108  1  0.40378826  0.22177133  0.24699984  1
  Te  Te109  1  0.42149471  0.25195954  0.57382389  1
  Te  Te110  1  0.43230302  0.26856670  0.88257676  1
  Te  Te111  1  0.40437874  0.58927154  0.27396186  1
  Te  Te112  1  0.45787485  0.56842125  0.57885565  1
  Te  Te113  1  0.40864503  0.59574995  0.91490953  1
  Te  Te114  1  0.43133814  0.90457695  0.26065410  1
  Te  Te115  1  0.47457038  0.89567079  0.58141061  1
  Te  Te116  1  0.43705947  0.91403619  0.92209054  1
  Te  Te117  1  0.75085460  0.24382640  0.25245002  1
  Te  Te118  1  0.78752157  0.29277877  0.59074623  1
  Te  Te119  1  0.75397253  0.25411759  0.90681486  1
  Te  Te120  1  0.73349842  0.59036250  0.26171482  1
  Te  Te121  1  0.76799050  0.57521606  0.59787508  1
  Te  Te122  1  0.74440462  0.56392102  0.88156104  1
  Te  Te123  1  0.73585614  0.91922877  0.28381293  1
  Te  Te124  1  0.74561808  0.89180684  0.56660276  1
  Te  Te125  1  0.74266993  0.91189625  0.92151824  1
  Te  Te126  1  0.26535317  0.24335525  0.08074751  1
  Te  Te127  1  0.25611034  0.25969935  0.40654842  1
  Te  Te128  1  0.24477562  0.26321687  0.76738849  1
  Te  Te129  1  0.22351852  0.56466129  0.06927676  1
  Te  Te130  1  0.25096585  0.59379005  0.42326864  1
  Te  Te131  1  0.25517609  0.59783041  0.74166233  1
  Te  Te132  1  0.24004535  0.91931177  0.09385809  1
  Te  Te133  1  0.26593074  0.90721451  0.43780618  1
  Te  Te134  1  0.25946972  0.90968747  0.74884608  1
  Te  Te135  1  0.59106928  0.26421951  0.06672929  1
  Te  Te136  1  0.59012296  0.25704686  0.43090277  1
  Te  Te137  1  0.58641753  0.26390258  0.72392192  1
  Te  Te138  1  0.58623792  0.59422443  0.08300618  1
  Te  Te139  1  0.59410037  0.60360116  0.43716879  1
  Te  Te140  1  0.60008982  0.57494686  0.74039198  1
  Te  Te141  1  0.59056148  0.92257800  0.08138114  1
  Te  Te142  1  0.57140960  0.89556484  0.46016853  1
  Te  Te143  1  0.54523677  0.92892223  0.73317296  1
  Te  Te144  1  0.90370957  0.26975124  0.08469132  1
  Te  Te145  1  0.90751761  0.25125128  0.44217760  1
  Te  Te146  1  0.90783722  0.24911916  0.73635283  1
  Te  Te147  1  0.92732362  0.59604235  0.06699992  1
  Te  Te148  1  0.93983377  0.59119516  0.43589566  1
  Te  Te149  1  0.86319352  0.60252465  0.78866046  1
  Te  Te150  1  0.91274508  0.90737827  0.06815423  1
  Te  Te151  1  0.92292008  0.91126258  0.41116349  1
  Te  Te152  1  0.92734239  0.90933922  0.75976099  1
  Te  Te153  1  0.25471149  0.08122621  0.23096306  1
  Te  Te154  1  0.29716255  0.05602234  0.60929748  1
  Te  Te155  1  0.28122134  0.09937438  0.88983743  1
  Te  Te156  1  0.24564530  0.40910093  0.24824718  1
  Te  Te157  1  0.25092853  0.43035942  0.59597898  1
  Te  Te158  1  0.23307091  0.42980831  0.92610402  1
  Te  Te159  1  0.25825418  0.74434024  0.26307955  1
  Te  Te160  1  0.25084752  0.74678695  0.55938066  1
  Te  Te161  1  0.24529410  0.73735846  0.91480294  1
  Te  Te162  1  0.58765054  0.05986475  0.28285626  1
  Te  Te163  1  0.58000652  0.09290813  0.57327008  1
  Te  Te164  1  0.56422945  0.07315911  0.88695427  1
  Te  Te165  1  0.59126741  0.43945293  0.23698100  1
  Te  Te166  1  0.61379204  0.38210327  0.60631834  1
  Te  Te167  1  0.56898508  0.41399120  0.88739242  1
  Te  Te168  1  0.56898180  0.75027291  0.27220010  1
  Te  Te169  1  0.56868801  0.77803283  0.58123559  1
  Te  Te170  1  0.58711272  0.75576441  0.91287634  1
  Te  Te171  1  0.92911464  0.06777280  0.25881135  1
  Te  Te172  1  0.91398759  0.06946029  0.60820719  1
  Te  Te173  1  0.92635411  0.07928808  0.90370924  1
  Te  Te174  1  0.93377782  0.45167621  0.24299797  1
  Te  Te175  1  0.87710887  0.42094558  0.59004788  1
  Te  Te176  1  0.92626587  0.42215073  0.87258616  1
  Te  Te177  1  0.92624939  0.73508963  0.26281052  1
  Te  Te178  1  0.92781172  0.73415475  0.60386720  1
  Te  Te179  1  0.94676299  0.69388765  0.87712709  1
