# generated using pymatgen
data_In2Te3
_symmetry_space_group_name_H-M   'P 1'
_cell_length_a   18.92787723
_cell_length_b   18.91764867
_cell_length_c   18.90699763
_cell_angle_alpha   89.94563199
_cell_angle_beta   89.98649324
_cell_angle_gamma   90.01111057
_symmetry_Int_Tables_number   1
_chemical_formula_structural   In2Te3
_chemical_formula_sum   'In72 Te108'
_cell_volume   6770.04288929
_cell_formula_units_Z   36
loop_
 _symmetry_equiv_pos_site_id
 _symmetry_equiv_pos_as_xyz
  1  'x, y, z'
loop_
 _atom_site_type_symbol
 _atom_site_label
 _atom_site_symmetry_multiplicity
 _atom_site_fract_x
 _atom_site_fract_y
 _atom_site_fract_z
 _atom_site_occupancy
  In  In0  1  -0.01054100  0.16008815  0.15615582  1
  In  In1  1  0.36273073  0.31405110  0.64989415  1
  In  In2  1  0.35588660  0.82815124  0.16514822  1
  In  In3  1  -0.01701991  0.50112433  0.84256521  1
  In  In4  1  0.00452382  0.17239880  0.49151612  1
  In  In5  1  0.30953518  0.00934629  0.32139769  1
  In  In6  1  0.50042800  0.83740941  0.67448237  1
  In  In7  1  0.83246995  0.17762159  0.68347693  1
  In  In8  1  0.66766604  0.86217447  0.52037806  1
  In  In9  1  0.82388543  0.67811311  0.50261949  1
  In  In10  1  0.34832831  0.50174702  0.48755755  1
  In  In11  1  0.32351099  0.48433496  0.81123066  1
  In  In12  1  0.81756887  0.34558213  0.85373124  1
  In  In13  1  0.00106183  0.66289678  0.70252883  1
  In  In14  1  0.67530851  0.49854938  0.83658115  1
  In  In15  1  0.16869312  0.49062216  -0.01674375  1
  In  In16  1  0.49508451  0.47836371  -0.00757827  1
  In  In17  1  0.50344599  0.64057335  0.14484002  1
  In  In18  1  0.16125652  0.81467110  0.67761503  1
  In  In19  1  0.67192961  0.66531700  0.66961222  1
  In  In20  1  0.38469698  0.29101848  0.28224485  1
  In  In21  1  0.68614348  0.85643025  0.17823120  1
  In  In22  1  0.83385202  0.85959166  0.32219629  1
  In  In23  1  -0.02119842  0.50184999  0.53408891  1
  In  In24  1  0.15916361  0.66351584  0.17062420  1
  In  In25  1  0.66920044  0.01136338  0.01132818  1
  In  In26  1  0.16193368  0.03512549  0.12600668  1
  In  In27  1  0.36279844  0.01439736  -0.04418124  1
  In  In28  1  -0.01059483  -0.00828809  0.33680914  1
  In  In29  1  0.31793824  0.64302232  0.65273708  1
  In  In30  1  0.65168089  0.48415831  0.50114269  1
  In  In31  1  0.34180175  0.17183165  0.50205227  1
  In  In32  1  0.66870992  0.15194468  0.49679281  1
  In  In33  1  0.33694195  0.67848314  0.36415224  1
  In  In34  1  0.83676705  0.14458703  -0.01145989  1
  In  In35  1  0.67008632  0.65285617  0.32917553  1
  In  In36  1  0.15528383  0.85551088  0.34404245  1
  In  In37  1  0.16793170  0.33374582  0.50293602  1
  In  In38  1  0.66542998  0.15023804  0.80655900  1
  In  In39  1  0.63561504  0.32228046  0.68063237  1
  In  In40  1  0.53741353  0.05035504  0.19052894  1
  In  In41  1  0.48868323  0.81751876  0.33903742  1
  In  In42  1  0.32690127  0.83889229  0.83223845  1
  In  In43  1  0.36144255  0.04867260  0.68654601  1
  In  In44  1  0.03146824  0.47014838  0.14339198  1
  In  In45  1  0.36584359  0.47122120  0.16656728  1
  In  In46  1  -0.02462862  0.84677283  0.15802816  1
  In  In47  1  -0.01455637  -0.01639437  0.65810435  1
  In  In48  1  0.84907754  0.85648365  -0.00182682  1
  In  In49  1  0.17705204  0.50002879  0.31454095  1
  In  In50  1  0.51603288  0.66593894  0.84893129  1
  In  In51  1  0.18731235  0.29803606  0.12955074  1
  In  In52  1  0.82889233  0.50836313  0.32762856  1
  In  In53  1  0.00421763  0.83255294  0.49389013  1
  In  In54  1  0.17737526  0.87055889  -0.01848999  1
  In  In55  1  0.50755534  0.48636128  0.33534742  1
  In  In56  1  0.14542768  0.49102425  0.67756301  1
  In  In57  1  -0.00937282  0.67989467  0.00872238  1
  In  In58  1  -0.01143698  0.32935111  0.69425242  1
  In  In59  1  -0.02060193  0.33091359  0.35224041  1
  In  In60  1  0.64536193  0.32789710  0.32203884  1
  In  In61  1  0.83303260  0.66684938  0.17711083  1
  In  In62  1  0.64819541  0.33871583  0.00815054  1
  In  In63  1  0.14006378  -0.00656414  0.83066743  1
  In  In64  1  0.32067987  0.66954198  0.01537357  1
  In  In65  1  0.51027673  0.00832455  0.49668695  1
  In  In66  1  0.80914859  0.33010820  0.15059369  1
  In  In67  1  0.80983481  0.84501797  0.67483718  1
  In  In68  1  0.50826806  0.16746978  -0.00520956  1
  In  In69  1  0.14639057  0.16226980  0.32731282  1
  In  In70  1  0.65475315  0.85391262  0.81863623  1
  In  In71  1  0.18104979  0.15846750  0.70218951  1
  Te  Te72  1  0.08182024  0.12710798  0.04147731  1
  Te  Te73  1  0.09177852  0.06505871  0.42805964  1
  Te  Te74  1  0.05139089  0.08777942  0.74870335  1
  Te  Te75  1  0.08930176  0.37204069  0.04008986  1
  Te  Te76  1  0.08162097  0.42568257  0.41812172  1
  Te  Te77  1  0.08578757  0.40302564  0.78472670  1
  Te  Te78  1  0.09368940  0.77091182  0.08621963  1
  Te  Te79  1  0.07963968  0.74588254  0.40302138  1
  Te  Te80  1  0.06738766  0.76844291  0.77918203  1
  Te  Te81  1  0.42749143  0.06734979  0.08071891  1
  Te  Te82  1  0.41533634  0.08383698  0.40328120  1
  Te  Te83  1  0.41545576  0.14205703  0.78663533  1
  Te  Te84  1  0.42236085  0.37127014  0.07259889  1
  Te  Te85  1  0.40581122  0.39465258  0.39757966  1
  Te  Te86  1  0.42857325  0.41288097  0.73804654  1
  Te  Te87  1  0.43793023  0.75289453  0.06299512  1
  Te  Te88  1  0.41683927  0.76120429  0.45360475  1
  Te  Te89  1  0.41065036  0.73766188  0.75004436  1
  Te  Te90  1  0.74123249  0.10852023  0.09505547  1
  Te  Te91  1  0.71322704  0.04748249  0.39847422  1
  Te  Te92  1  0.78979376  0.07529299  0.78165851  1
  Te  Te93  1  0.75471767  0.43323345  0.05476748  1
  Te  Te94  1  0.74764665  0.41148257  0.40909870  1
  Te  Te95  1  0.74894293  0.41010244  0.73592857  1
  Te  Te96  1  0.75928965  0.76203036  0.08557271  1
  Te  Te97  1  0.74093480  0.76313190  0.40629005  1
  Te  Te98  1  0.74995626  0.74164218  0.77150893  1
  Te  Te99  1  0.07362296  0.26453114  0.24136657  1
  Te  Te100  1  0.08682681  0.24952586  0.59844504  1
  Te  Te101  1  0.15539109  0.20300546  0.84732455  1
  Te  Te102  1  0.06387248  0.57854781  0.25072014  1
  Te  Te103  1  0.08184311  0.59673334  0.58867804  1
  Te  Te104  1  0.07908042  0.59267227  0.91910140  1
  Te  Te105  1  0.08624373  0.94176257  0.22808417  1
  Te  Te106  1  0.09689160  0.91504222  0.58091248  1
  Te  Te107  1  0.04918714  0.93077364  0.93541067  1
  Te  Te108  1  0.48359263  0.19439261  0.22413637  1
  Te  Te109  1  0.45783966  0.23620470  0.56688327  1
  Te  Te110  1  0.40313145  0.25750352  0.93944523  1
  Te  Te111  1  0.40568813  0.59246921  0.25368736  1
  Te  Te112  1  0.42859453  0.57449868  0.58498576  1
  Te  Te113  1  0.40133011  0.58153387  0.92044516  1
  Te  Te114  1  0.42709829  0.92879073  0.25360044  1
  Te  Te115  1  0.41653961  0.93700025  0.59439378  1
  Te  Te116  1  0.43983851  0.90194805  0.90187774  1
  Te  Te117  1  0.74532791  0.24393893  0.25075437  1
  Te  Te118  1  0.73732593  0.25136102  0.59172688  1
  Te  Te119  1  0.72713547  0.23736189  0.92105517  1
  Te  Te120  1  0.73063893  0.56272014  0.22453922  1
  Te  Te121  1  0.75159233  0.57100541  0.58063753  1
  Te  Te122  1  0.72519320  0.56985855  0.95424234  1
  Te  Te123  1  0.76645175  0.96238765  0.24034686  1
  Te  Te124  1  0.74086916  0.95763922  0.60519797  1
  Te  Te125  1  0.75104756  0.93227934  0.91087131  1
  Te  Te126  1  0.30427723  0.24461981  0.05872009  1
  Te  Te127  1  0.24784375  0.24877179  0.40756463  1
  Te  Te128  1  0.26737172  0.26870821  0.75826397  1
  Te  Te129  1  0.25056552  0.56175097  0.10049519  1
  Te  Te130  1  0.23528893  0.58446238  0.42614963  1
  Te  Te131  1  0.22523191  0.58922372  0.76159069  1
  Te  Te132  1  0.26942249  0.92759538  0.08733893  1
  Te  Te133  1  0.26754919  0.90923585  0.41947878  1
  Te  Te134  1  0.25592678  0.93810113  0.74354353  1
  Te  Te135  1  0.58552086  0.24011947  0.10186021  1
  Te  Te136  1  0.57526595  0.24580121  0.42667185  1
  Te  Te137  1  0.54386844  0.22249233  0.75223346  1
  Te  Te138  1  0.59604731  0.57945412  0.04428424  1
  Te  Te139  1  0.56999361  0.59134409  0.42399312  1
  Te  Te140  1  0.57699868  0.57465083  0.74571932  1
  Te  Te141  1  0.57815889  0.92797367  0.10166613  1
  Te  Te142  1  0.59051361  0.91493076  0.39989942  1
  Te  Te143  1  0.58518024  0.94829162  0.72635712  1
  Te  Te144  1  0.91016803  0.25516452  0.06550561  1
  Te  Te145  1  0.89282650  0.22446787  0.40745153  1
  Te  Te146  1  0.91591218  0.24477135  0.79657604  1
  Te  Te147  1  0.92744667  0.57655532  0.09854248  1
  Te  Te148  1  0.91653143  0.58793714  0.42296665  1
  Te  Te149  1  0.89920308  0.56580350  0.74086482  1
  Te  Te150  1  0.90372489  0.95883148  0.09417997  1
  Te  Te151  1  0.89777038  0.92785937  0.44167582  1
  Te  Te152  1  0.91169887  0.90794679  0.75973024  1
  Te  Te153  1  0.24918294  0.11187716  0.22596782  1
  Te  Te154  1  0.25167526  0.08498149  0.58532595  1
  Te  Te155  1  0.24192763  0.08272386  0.90384295  1
  Te  Te156  1  0.25070047  0.39338131  0.23635989  1
  Te  Te157  1  0.25371646  0.42219222  0.59086743  1
  Te  Te158  1  0.26959186  0.40388730  0.92290470  1
  Te  Te159  1  0.25355421  0.75363672  0.25002037  1
  Te  Te160  1  0.24915008  0.75030793  0.58051283  1
  Te  Te161  1  0.23686878  0.74761955  0.91561779  1
  Te  Te162  1  0.61323310  0.11395286  0.30986788  1
  Te  Te163  1  0.60109686  0.06587557  0.60194027  1
  Te  Te164  1  0.57893019  0.06907522  0.90362247  1
  Te  Te165  1  0.58025268  0.42225928  0.22764334  1
  Te  Te166  1  0.55909617  0.40564749  0.58411864  1
  Te  Te167  1  0.57293169  0.39787880  0.89046329  1
  Te  Te168  1  0.58144078  0.73907351  0.23790583  1
  Te  Te169  1  0.58453412  0.75086781  0.57981893  1
  Te  Te170  1  0.59009629  0.76887361  0.92107407  1
  Te  Te171  1  0.92085399  0.11061397  0.27944722  1
  Te  Te172  1  0.90993091  0.09377242  0.58135571  1
  Te  Te173  1  0.95148010  0.05352091  0.96013717  1
  Te  Te174  1  0.91599392  0.41554320  0.24001404  1
  Te  Te175  1  0.91442623  0.37900537  0.57706562  1
  Te  Te176  1  0.89798254  0.43199172  0.94236897  1
  Te  Te177  1  0.92467136  0.75183208  0.26482696  1
  Te  Te178  1  0.91525350  0.75529049  0.59524129  1
  Te  Te179  1  0.90256372  0.74713607  0.91438033  1
