# generated using pymatgen
data_In2Te3
_symmetry_space_group_name_H-M   'P 1'
_cell_length_a   18.80601857
_cell_length_b   18.80324750
_cell_length_c   18.80671131
_cell_angle_alpha   90.03396674
_cell_angle_beta   90.06699462
_cell_angle_gamma   90.02399824
_symmetry_Int_Tables_number   1
_chemical_formula_structural   In2Te3
_chemical_formula_sum   'In72 Te108'
_cell_volume   6650.31428162
_cell_formula_units_Z   36
loop_
 _symmetry_equiv_pos_site_id
 _symmetry_equiv_pos_as_xyz
  1  'x, y, z'
loop_
 _atom_site_type_symbol
 _atom_site_label
 _atom_site_symmetry_multiplicity
 _atom_site_fract_x
 _atom_site_fract_y
 _atom_site_fract_z
 _atom_site_occupancy
  In  In0  1  0.00270236  0.49420544  0.82757872  1
  In  In1  1  0.17011897  0.85008988  0.30584570  1
  In  In2  1  0.85126699  0.16804258  0.34164668  1
  In  In3  1  0.67014832  -0.00281002  0.65200702  1
  In  In4  1  0.83197735  0.66439745  0.83006807  1
  In  In5  1  0.49445759  0.81901210  0.01578019  1
  In  In6  1  0.17636917  0.51808443  0.66290797  1
  In  In7  1  0.17074418  0.83325919  0.67577406  1
  In  In8  1  0.85327678  0.01160056  0.82367591  1
  In  In9  1  0.47043764  0.33302034  0.83524576  1
  In  In10  1  0.48176350  0.48193039  0.34648912  1
  In  In11  1  0.82466866  0.50809071  0.64942758  1
  In  In12  1  0.33694474  0.49478990  0.50424107  1
  In  In13  1  0.17041948  0.18748557  0.33688171  1
  In  In14  1  0.50853939  0.63579746  0.48391857  1
  In  In15  1  0.48185519  0.63260820  0.85315798  1
  In  In16  1  0.85617290  0.83982985  0.33948788  1
  In  In17  1  0.49012472  0.20342502  0.31956220  1
  In  In18  1  0.82538071  0.65749212  0.48888392  1
  In  In19  1  0.66761268  0.17582820  0.49676291  1
  In  In20  1  0.66916647  0.02790777  -0.00399763  1
  In  In21  1  0.20858002  0.30218267  0.82967854  1
  In  In22  1  -0.01566982  0.33522989  0.01433694  1
  In  In23  1  0.66365731  0.19490998  0.84697011  1
  In  In24  1  -0.00245080  0.85687160  0.50334767  1
  In  In25  1  0.83371933  0.01586500  0.16891273  1
  In  In26  1  -0.00695409  0.50351368  0.18119180  1
  In  In27  1  0.33834946  0.81891081  0.51253747  1
  In  In28  1  -0.00852431  0.68381278  -0.00547964  1
  In  In29  1  0.34753404  0.35016075  0.01147227  1
  In  In30  1  0.63193172  0.79501150  0.19427050  1
  In  In31  1  0.01071645  0.01732464  -0.02175524  1
  In  In32  1  0.36122000  0.65895073  0.33580957  1
  In  In33  1  0.68071864  0.81638353  0.82933062  1
  In  In34  1  0.48840466  0.00379915  0.16164142  1
  In  In35  1  0.80887466  0.30863683  0.83256113  1
  In  In36  1  0.32619643  0.17543945  0.18209792  1
  In  In37  1  0.82062399  0.32643244  0.16852852  1
  In  In38  1  0.82701484  0.80628964  0.00370302  1
  In  In39  1  0.00395473  0.15280988  0.83553714  1
  In  In40  1  0.49608838  0.49106038  0.66719296  1
  In  In41  1  0.61992054  0.61480308  0.02437294  1
  In  In42  1  0.33834860  0.01013718  0.01576036  1
  In  In43  1  0.81577301  0.33176311  0.48651634  1
  In  In44  1  0.67076373  0.01051860  0.31513829  1
  In  In45  1  0.49538543  0.82867863  0.65888295  1
  In  In46  1  0.65675010  0.34390765  0.34722907  1
  In  In47  1  0.85070177  0.84260278  0.67759069  1
  In  In48  1  0.15730062  0.67073174  0.50900843  1
  In  In49  1  0.00848043  0.33175971  0.33703292  1
  In  In50  1  0.86413403  0.13081724  0.64244183  1
  In  In51  1  0.17659777  0.16007828  0.00534026  1
  In  In52  1  0.80132473  0.47459224  0.02874489  1
  In  In53  1  0.33583848  0.82403198  0.14405739  1
  In  In54  1  0.17061572  0.83215154  -0.00220952  1
  In  In55  1  0.01299049  0.83984021  0.15881934  1
  In  In56  1  0.17687792  0.31003100  0.50798370  1
  In  In57  1  0.31984964  0.83759597  0.83250548  1
  In  In58  1  0.34349909  -0.00194666  0.33229066  1
  In  In59  1  0.66549797  0.83054709  0.48652347  1
  In  In60  1  0.19472088  0.50462594  0.03156188  1
  In  In61  1  0.49826132  0.02212442  0.49748197  1
  In  In62  1  0.63084138  0.49547080  0.85755110  1
  In  In63  1  0.17015354  0.02641814  0.81192653  1
  In  In64  1  0.47742892  0.02932333  0.80644377  1
  In  In65  1  0.17522506  0.66036908  0.82772835  1
  In  In66  1  0.18411014  0.03920898  0.50446255  1
  In  In67  1  0.65421552  0.35884971  0.65371942  1
  In  In68  1  0.01549122  0.33428444  0.65078135  1
  In  In69  1  0.00151585  0.65378677  0.32503323  1
  In  In70  1  0.79658611  0.63031598  0.19240501  1
  In  In71  1  0.19429573  0.46029839  0.31012036  1
  Te  Te72  1  0.08350677  0.08237677  0.08769511  1
  Te  Te73  1  0.08174807  0.09951270  0.41779753  1
  Te  Te74  1  0.08697298  0.10861855  0.71955434  1
  Te  Te75  1  0.08483380  0.41642978  0.09603689  1
  Te  Te76  1  0.10129671  0.41794723  0.42312110  1
  Te  Te77  1  0.10253034  0.40250980  0.75742795  1
  Te  Te78  1  0.10039894  0.73346465  0.09149458  1
  Te  Te79  1  0.08020600  0.76082932  0.40596052  1
  Te  Te80  1  0.08185656  0.74209040  0.74914775  1
  Te  Te81  1  0.42683630  0.11679586  0.08042967  1
  Te  Te82  1  0.40844604  0.11078550  0.41108846  1
  Te  Te83  1  0.40328759  0.12315719  0.71941024  1
  Te  Te84  1  0.46330327  0.44329143  0.05033978  1
  Te  Te85  1  0.39096591  0.38478207  0.41791658  1
  Te  Te86  1  0.39334242  0.43176416  0.75574367  1
  Te  Te87  1  0.42481351  0.71330380  0.09459021  1
  Te  Te88  1  0.44165215  0.76084024  0.41891826  1
  Te  Te89  1  0.42253859  0.74749877  0.76487154  1
  Te  Te90  1  0.73286450  0.10369045  0.10424986  1
  Te  Te91  1  0.75479616  0.07703678  0.42333907  1
  Te  Te92  1  0.74266566  0.08993320  0.75278733  1
  Te  Te93  1  0.70246725  0.40832583  0.11823514  1
  Te  Te94  1  0.74536679  0.44357381  0.41626526  1
  Te  Te95  1  0.74472256  0.42995255  0.76336397  1
  Te  Te96  1  0.72679164  0.72753009  0.08758890  1
  Te  Te97  1  0.74676056  0.74585228  0.38960873  1
  Te  Te98  1  0.74779454  0.73425283  0.72225165  1
  Te  Te99  1  0.08779066  0.25942076  0.23680268  1
  Te  Te100  1  0.08949046  0.21959185  0.59075302  1
  Te  Te101  1  0.08445242  0.25995496  0.91652355  1
  Te  Te102  1  0.10982147  0.57622621  0.24819235  1
  Te  Te103  1  0.07008540  0.57578707  0.57973919  1
  Te  Te104  1  0.08321330  0.57465123  0.93089076  1
  Te  Te105  1  0.06200213  0.93685961  0.25811430  1
  Te  Te106  1  0.10121622  0.93290103  0.58431283  1
  Te  Te107  1  0.09692949  0.91990989  0.89798743  1
  Te  Te108  1  0.41864316  0.29307687  0.21762924  1
  Te  Te109  1  0.38767692  0.23824921  0.61019896  1
  Te  Te110  1  0.39559922  0.24007641  0.92292426  1
  Te  Te111  1  0.38110316  0.53859734  0.24609736  1
  Te  Te112  1  0.41079238  0.59610971  0.59137121  1
  Te  Te113  1  0.40779815  0.56269044  0.96101545  1
  Te  Te114  1  0.42325722  0.89869996  0.24882232  1
  Te  Te115  1  0.41087509  0.93300989  0.58671010  1
  Te  Te116  1  0.42225838  0.92150179  0.92070962  1
  Te  Te117  1  0.73946336  0.24197673  0.26902917  1
  Te  Te118  1  0.75746338  0.24792049  0.60239970  1
  Te  Te119  1  0.74538499  0.25552865  0.96079986  1
  Te  Te120  1  0.72216710  0.54217478  0.28119642  1
  Te  Te121  1  0.72567283  0.57617663  0.56473263  1
  Te  Te122  1  0.74501609  0.58412484  0.92568352  1
  Te  Te123  1  0.74937962  0.90193501  0.23861563  1
  Te  Te124  1  0.76422730  0.91302705  0.56936116  1
  Te  Te125  1  0.75292610  0.91983753  0.91619616  1
  Te  Te126  1  0.24077516  0.26665067  0.09150359  1
  Te  Te127  1  0.27687976  0.27148771  0.40195087  1
  Te  Te128  1  0.27130202  0.22869913  0.71592140  1
  Te  Te129  1  0.30546832  0.58831092  0.08162353  1
  Te  Te130  1  0.24597125  0.58395632  0.41746196  1
  Te  Te131  1  0.27411399  0.57230057  0.76108016  1
  Te  Te132  1  0.23603103  0.93012843  0.09512253  1
  Te  Te133  1  0.24904839  0.91027780  0.42693877  1
  Te  Te134  1  0.26784169  0.93930194  0.73238128  1
  Te  Te135  1  0.62286526  0.27776480  0.05306179  1
  Te  Te136  1  0.56078019  0.26686269  0.44147784  1
  Te  Te137  1  0.57472246  0.26490887  0.74332294  1
  Te  Te138  1  0.54894584  0.54714959  0.13200910  1
  Te  Te139  1  0.59393993  0.59423295  0.36291945  1
  Te  Te140  1  0.58366347  0.59038421  0.74748915  1
  Te  Te141  1  0.59184892  0.91622943  0.08395720  1
  Te  Te142  1  0.57873090  0.92823292  0.40629131  1
  Te  Te143  1  0.58384951  0.91911148  0.75900167  1
  Te  Te144  1  0.92141052  0.23825944  0.10447179  1
  Te  Te145  1  0.93434269  0.24750371  0.44170963  1
  Te  Te146  1  0.91839274  0.24951380  0.74451677  1
  Te  Te147  1  0.90829152  0.58348824  0.07826421  1
  Te  Te148  1  0.91732579  0.57026864  0.41066714  1
  Te  Te149  1  0.92538577  0.58782744  0.73644848  1
  Te  Te150  1  0.91546283  0.91635430  0.06528554  1
  Te  Te151  1  0.92234819  0.95328577  0.41423712  1
  Te  Te152  1  0.94637675  0.93645107  0.73931758  1
  Te  Te153  1  0.24015542  0.07177606  0.25111095  1
  Te  Te154  1  0.28604248  0.12302997  0.57471341  1
  Te  Te155  1  0.27034941  0.09358332  0.90513839  1
  Te  Te156  1  0.29568643  0.39764139  0.22212640  1
  Te  Te157  1  0.25668193  0.40525926  0.59790096  1
  Te  Te158  1  0.25167431  0.42262303  0.91508424  1
  Te  Te159  1  0.26033861  0.74270008  0.25087146  1
  Te  Te160  1  0.25994920  0.73002222  0.60649463  1
  Te  Te161  1  0.26556838  0.73457671  0.93019382  1
  Te  Te162  1  0.57544109  0.10389924  0.24001910  1
  Te  Te163  1  0.57645126  0.10533182  0.59872997  1
  Te  Te164  1  0.56251350  0.09980215  0.91347165  1
  Te  Te165  1  0.55606988  0.39402694  0.24771596  1
  Te  Te166  1  0.57318817  0.43227145  0.55508019  1
  Te  Te167  1  0.58028720  0.38217273  0.94581570  1
  Te  Te168  1  0.54180308  0.70471345  0.26435474  1
  Te  Te169  1  0.58459940  0.73847703  0.57646287  1
  Te  Te170  1  0.58559189  0.73866831  0.92007073  1
  Te  Te171  1  0.93416748  0.09161204  0.24539384  1
  Te  Te172  1  0.92872388  0.04695140  0.54285208  1
  Te  Te173  1  0.89531708  0.10817830  0.93442326  1
  Te  Te174  1  0.90232632  0.41580076  0.26426779  1
  Te  Te175  1  0.91745292  0.41732384  0.56931965  1
  Te  Te176  1  0.90172780  0.42164130  0.91616226  1
  Te  Te177  1  0.91397516  0.74217441  0.22950443  1
  Te  Te178  1  0.91818031  0.74995800  0.57481726  1
  Te  Te179  1  0.92385507  0.77194680  0.88895262  1
