# generated using pymatgen
data_In2Te3
_symmetry_space_group_name_H-M   'P 1'
_cell_length_a   18.77717817
_cell_length_b   18.77765880
_cell_length_c   18.78017637
_cell_angle_alpha   89.94117126
_cell_angle_beta   89.98587975
_cell_angle_gamma   89.97254815
_symmetry_Int_Tables_number   1
_chemical_formula_structural   In2Te3
_chemical_formula_sum   'In72 Te108'
_cell_volume   6621.72506788
_cell_formula_units_Z   36
loop_
 _symmetry_equiv_pos_site_id
 _symmetry_equiv_pos_as_xyz
  1  'x, y, z'
loop_
 _atom_site_type_symbol
 _atom_site_label
 _atom_site_symmetry_multiplicity
 _atom_site_fract_x
 _atom_site_fract_y
 _atom_site_fract_z
 _atom_site_occupancy
  In  In0  1  0.00649199  -0.01398461  0.65657668  1
  In  In1  1  0.47716410  0.50245878  -0.00709174  1
  In  In2  1  0.33599112  0.01119880  0.35864919  1
  In  In3  1  0.47939156  0.80192594  0.35593681  1
  In  In4  1  0.17450188  0.16920761  0.01207258  1
  In  In5  1  0.35092427  0.79398349  0.80772778  1
  In  In6  1  0.84675900  0.01495456  0.84367059  1
  In  In7  1  0.66445786  0.00195072  0.00372907  1
  In  In8  1  0.33977398  0.18037177  0.49311015  1
  In  In9  1  0.15605882  -0.00266528  0.81199579  1
  In  In10  1  0.67010523  -0.00323522  0.34344357  1
  In  In11  1  0.81892964  0.14935962  0.32616253  1
  In  In12  1  0.83384562  0.84075879  -0.00377050  1
  In  In13  1  0.33872459  0.50744078  0.17524578  1
  In  In14  1  0.63356095  0.01269372  0.62901143  1
  In  In15  1  0.15731163  0.17108761  0.33312537  1
  In  In16  1  -0.01081980  0.83418972  0.49466306  1
  In  In17  1  0.01680093  0.80005960  0.82324705  1
  In  In18  1  0.02464549  0.35689050  0.33890683  1
  In  In19  1  0.62166755  0.81536983  0.83068247  1
  In  In20  1  0.17782359  0.52075540  0.66609188  1
  In  In21  1  0.84874666  0.83089322  0.32084542  1
  In  In22  1  0.66244571  0.18315970  0.16543643  1
  In  In23  1  0.00011554  0.51344794  0.16202028  1
  In  In24  1  0.49827596  0.66176692  0.16701757  1
  In  In25  1  0.65588402  0.33100095  0.66279086  1
  In  In26  1  0.69336546  0.19790184  0.82905445  1
  In  In27  1  0.33065947  0.82084659  0.17392435  1
  In  In28  1  0.18143516  0.32656920  0.18360035  1
  In  In29  1  0.81516895  0.82452521  0.66077620  1
  In  In30  1  0.30707297  -0.02420808  0.03369150  1
  In  In31  1  0.83623674  0.16094138  0.67087659  1
  In  In32  1  0.67255358  0.67417773  -0.01224457  1
  In  In33  1  0.84896354  0.65158766  0.48973287  1
  In  In34  1  0.34343744  -0.02761554  0.63709902  1
  In  In35  1  0.85352694  0.49583527  0.66690476  1
  In  In36  1  0.34611370  0.18593522  0.16881144  1
  In  In37  1  0.00024180  0.17130463  0.49593571  1
  In  In38  1  0.50443980  -0.01470676  0.81544492  1
  In  In39  1  0.83610786  0.34123186  0.86608101  1
  In  In40  1  0.50495366  0.33119978  0.49622381  1
  In  In41  1  0.50789383  0.00756928  0.16224669  1
  In  In42  1  0.00926257  0.15009644  0.83734620  1
  In  In43  1  0.85033546  0.66868453  0.16489121  1
  In  In44  1  0.84080177  0.49606063  0.34276992  1
  In  In45  1  0.49927945  0.35164714  0.81396631  1
  In  In46  1  0.64769883  0.33979782  0.33752342  1
  In  In47  1  0.34276482  0.16538711  0.82112119  1
  In  In48  1  0.16489869  0.82291969  0.30848439  1
  In  In49  1  0.84179299  0.33447660  0.52735137  1
  In  In50  1  0.18283860  0.35851038  0.83135221  1
  In  In51  1  -0.01588082  -0.00028674  -0.00802482  1
  In  In52  1  0.63645353  0.52366135  0.50407548  1
  In  In53  1  0.84647579  -0.00437763  0.17794879  1
  In  In54  1  0.49080377  0.82912469  -0.00823884  1
  In  In55  1  0.17885194  0.66075293  0.83368359  1
  In  In56  1  0.52168825  0.19497378  -0.00054954  1
  In  In57  1  0.34160313  0.34620187  0.32082230  1
  In  In58  1  0.16634157  -0.01291604  0.50633375  1
  In  In59  1  0.65645324  0.66293557  0.34016353  1
  In  In60  1  0.68207671  0.46047915  0.15241813  1
  In  In61  1  0.33891201  0.52622962  0.52514889  1
  In  In62  1  0.17167941  0.50663866  -0.01676310  1
  In  In63  1  0.33225284  0.36377826  0.67064785  1
  In  In64  1  0.64481217  0.51994189  0.81776045  1
  In  In65  1  -0.02225543  0.33945911  0.00661075  1
  In  In66  1  0.01348415  0.34065479  0.65599246  1
  In  In67  1  0.19285893  0.67670623  0.51703451  1
  In  In68  1  0.14858765  -0.01170076  0.16779342  1
  In  In69  1  0.15313891  0.65835258  0.17127799  1
  In  In70  1  0.63872598  0.81334898  0.52159883  1
  In  In71  1  0.83561171  0.66011818  0.83374809  1
  Te  Te72  1  0.06788223  0.09077964  0.08540136  1
  Te  Te73  1  0.07716860  0.06737395  0.41139751  1
  Te  Te74  1  0.09002799  0.09860543  0.71866440  1
  Te  Te75  1  0.09614971  0.41004388  0.08625027  1
  Te  Te76  1  0.07679278  0.41297814  0.46346781  1
  Te  Te77  1  0.07844677  0.43691154  0.75351850  1
  Te  Te78  1  0.08714707  0.76519866  0.09551173  1
  Te  Te79  1  0.09067894  0.74935177  0.42093393  1
  Te  Te80  1  0.10868507  0.73956189  0.72611540  1
  Te  Te81  1  0.41933740  0.08799638  0.06595416  1
  Te  Te82  1  0.43962972  0.07323422  0.44788310  1
  Te  Te83  1  0.42099890  0.07608657  0.72548247  1
  Te  Te84  1  0.42291265  0.41276573  0.09693623  1
  Te  Te85  1  0.41339724  0.42908610  0.42613382  1
  Te  Te86  1  0.40189287  0.45733436  0.76590003  1
  Te  Te87  1  0.40230935  0.73328818  0.07106437  1
  Te  Te88  1  0.38789901  0.74445257  0.45968613  1
  Te  Te89  1  0.44310509  0.73181337  0.70915136  1
  Te  Te90  1  0.75520493  0.08568385  0.09008127  1
  Te  Te91  1  0.75006917  0.07957020  0.43619189  1
  Te  Te92  1  0.73710070  0.06546817  0.74657220  1
  Te  Te93  1  0.78865264  0.38979469  0.07571378  1
  Te  Te94  1  0.74282646  0.42280869  0.43968438  1
  Te  Te95  1  0.75133275  0.41337310  0.74958520  1
  Te  Te96  1  0.74658603  0.75724945  0.09062362  1
  Te  Te97  1  0.74984651  0.75264543  0.42410793  1
  Te  Te98  1  0.73106912  0.73741656  0.75219663  1
  Te  Te99  1  0.06469829  0.24468515  0.23731402  1
  Te  Te100  1  0.09667841  0.24824078  0.57702246  1
  Te  Te101  1  0.09070619  0.25468205  0.91398985  1
  Te  Te102  1  0.07956647  0.57535763  0.27206353  1
  Te  Te103  1  0.08346811  0.60354263  0.58725975  1
  Te  Te104  1  0.07404859  0.59305029  0.91611813  1
  Te  Te105  1  0.06245482  0.92225166  0.26718891  1
  Te  Te106  1  0.10095301  0.88428250  0.59830704  1
  Te  Te107  1  0.07943216  0.91131963  0.91107914  1
  Te  Te108  1  0.43337021  0.24041320  0.27362929  1
  Te  Te109  1  0.41734990  0.25888103  0.59907736  1
  Te  Te110  1  0.41686349  0.26389196  0.91086384  1
  Te  Te111  1  0.42195934  0.58796413  0.27110497  1
  Te  Te112  1  0.43047302  0.60774699  0.61255557  1
  Te  Te113  1  0.42447372  0.60155583  0.89833005  1
  Te  Te114  1  0.41560476  0.92225447  0.25256801  1
  Te  Te115  1  0.41164903  0.86662333  0.55686856  1
  Te  Te116  1  0.40302477  0.92510474  0.91273465  1
  Te  Te117  1  0.75394833  0.26771644  0.25399605  1
  Te  Te118  1  0.73839468  0.23392574  0.57891084  1
  Te  Te119  1  0.73319260  0.27299040  0.95197829  1
  Te  Te120  1  0.74711774  0.57765157  0.24935460  1
  Te  Te121  1  0.75386465  0.58104073  0.58584479  1
  Te  Te122  1  0.75177405  0.56364557  0.91975591  1
  Te  Te123  1  0.74044520  0.90673549  0.24219344  1
  Te  Te124  1  0.74220777  0.92000204  0.56908890  1
  Te  Te125  1  0.73458714  0.90763263  0.89871210  1
  Te  Te126  1  0.26954505  0.27315382  0.06922740  1
  Te  Te127  1  0.24365110  0.26665103  0.41186152  1
  Te  Te128  1  0.24757025  0.25379526  0.74072090  1
  Te  Te129  1  0.25501753  0.59260489  0.07871265  1
  Te  Te130  1  0.25692449  0.58677036  0.41695883  1
  Te  Te131  1  0.28051176  0.57391352  0.76210675  1
  Te  Te132  1  0.20457842  0.86468862  0.08577483  1
  Te  Te133  1  0.25166926  0.90090760  0.41411252  1
  Te  Te134  1  0.25918458  0.90634095  0.74825374  1
  Te  Te135  1  0.56712588  0.28331434  0.10803032  1
  Te  Te136  1  0.59505033  0.23286842  0.42824695  1
  Te  Te137  1  0.57148050  0.23292917  0.74433024  1
  Te  Te138  1  0.59576280  0.57770245  0.08188548  1
  Te  Te139  1  0.54512359  0.58729181  0.40422394  1
  Te  Te140  1  0.57504877  0.60276851  0.71565034  1
  Te  Te141  1  0.58671578  0.89973675  0.08734151  1
  Te  Te142  1  0.56992723  0.90653432  0.42137050  1
  Te  Te143  1  0.57030141  0.89738353  0.71017942  1
  Te  Te144  1  0.88082972  0.26854251  0.09237988  1
  Te  Te145  1  0.91155710  0.26279993  0.41113802  1
  Te  Te146  1  0.91879579  0.25767458  0.75440476  1
  Te  Te147  1  0.90872155  0.57757562  0.06490822  1
  Te  Te148  1  0.94329028  0.59526261  0.38847497  1
  Te  Te149  1  0.93207624  0.59239915  0.74456596  1
  Te  Te150  1  0.93334811  0.89899084  0.09591142  1
  Te  Te151  1  0.90403473  0.92708632  0.41817190  1
  Te  Te152  1  0.91526935  0.90767469  0.75752273  1
  Te  Te153  1  0.25315996  0.08397029  0.24004441  1
  Te  Te154  1  0.25491033  0.08571674  0.58125955  1
  Te  Te155  1  0.24625789  0.07793923  0.91164195  1
  Te  Te156  1  0.23330252  0.44082899  0.26810196  1
  Te  Te157  1  0.23397892  0.41658443  0.56711347  1
  Te  Te158  1  0.27899670  0.42606836  0.91946976  1
  Te  Te159  1  0.26842429  0.71873560  0.26584219  1
  Te  Te160  1  0.29667477  0.76003848  0.58916503  1
  Te  Te161  1  0.26011336  0.75546226  0.91628858  1
  Te  Te162  1  0.58088927  0.09406823  0.26182362  1
  Te  Te163  1  0.55817135  0.10708069  0.54569163  1
  Te  Te164  1  0.58172595  0.08539620  0.90544970  1
  Te  Te165  1  0.57698451  0.43834860  0.25397141  1
  Te  Te166  1  0.56034166  0.43095561  0.60044296  1
  Te  Te167  1  0.58828476  0.41998923  0.91708406  1
  Te  Te168  1  0.58128878  0.76155772  0.24893156  1
  Te  Te169  1  0.57406764  0.69640050  0.58835983  1
  Te  Te170  1  0.54021839  0.70404482  0.90621601  1
  Te  Te171  1  0.93205999  0.08733917  0.25476798  1
  Te  Te172  1  0.91086008  0.07080347  0.57345512  1
  Te  Te173  1  0.89882560  0.11977400  0.93870131  1
  Te  Te174  1  0.91756305  0.41113931  0.24282555  1
  Te  Te175  1  0.94781716  0.44471344  0.55051613  1
  Te  Te176  1  0.93499662  0.44217246  0.90941886  1
  Te  Te177  1  0.94302576  0.73577690  0.25839572  1
  Te  Te178  1  0.92098074  0.73859923  0.59478049  1
  Te  Te179  1  0.92608146  0.73861373  0.93124447  1
