# generated using pymatgen
data_In2Te3
_symmetry_space_group_name_H-M   'P 1'
_cell_length_a   18.92806793
_cell_length_b   18.93741283
_cell_length_c   18.93865018
_cell_angle_alpha   89.89055787
_cell_angle_beta   89.93877386
_cell_angle_gamma   89.95016701
_symmetry_Int_Tables_number   1
_chemical_formula_structural   In2Te3
_chemical_formula_sum   'In72 Te108'
_cell_volume   6788.51451707
_cell_formula_units_Z   36
loop_
 _symmetry_equiv_pos_site_id
 _symmetry_equiv_pos_as_xyz
  1  'x, y, z'
loop_
 _atom_site_type_symbol
 _atom_site_label
 _atom_site_symmetry_multiplicity
 _atom_site_fract_x
 _atom_site_fract_y
 _atom_site_fract_z
 _atom_site_occupancy
  In  In0  1  0.34032525  -0.02927010  0.68670037  1
  In  In1  1  0.33963444  0.14725884  0.50102834  1
  In  In2  1  0.14761121  0.51493579  0.67441108  1
  In  In3  1  0.17595200  0.17887398  0.65579243  1
  In  In4  1  0.69044229  -0.02551406  0.01964766  1
  In  In5  1  0.31799380  0.51240151  0.52389173  1
  In  In6  1  0.17972475  0.67212321  0.51705774  1
  In  In7  1  0.51314604  0.16988508  0.65911991  1
  In  In8  1  0.84632494  0.32073091  0.52550627  1
  In  In9  1  0.66391376  0.64635000  -0.02267537  1
  In  In10  1  0.34170400  0.00560636  0.01190367  1
  In  In11  1  0.66232596  0.15489301  0.47327805  1
  In  In12  1  0.83143850  0.51495077  0.32548768  1
  In  In13  1  0.32397247  0.16520800  0.81526181  1
  In  In14  1  0.66592418  0.82685827  0.82601091  1
  In  In15  1  0.15632055  0.68513910  0.81492338  1
  In  In16  1  0.31101291  0.52077205  0.85848063  1
  In  In17  1  0.64853297  0.33273886  0.67874160  1
  In  In18  1  0.49312973  0.52490964  0.38565131  1
  In  In19  1  0.83124606  0.13667365  0.67525881  1
  In  In20  1  0.84746432  0.14337645  0.31088061  1
  In  In21  1  0.51482045  -0.01971720  0.86224053  1
  In  In22  1  0.66341052  0.82511867  0.17791151  1
  In  In23  1  0.86949267  0.83823336  0.00331777  1
  In  In24  1  0.31224873  0.66888679  0.31579265  1
  In  In25  1  0.48054434  0.13743401  0.00531340  1
  In  In26  1  0.47217886  0.15295133  0.33016669  1
  In  In27  1  0.65606426  0.69875484  0.62975170  1
  In  In28  1  0.69289246  0.48915732  0.17800462  1
  In  In29  1  0.02495357  0.10087374  0.47271106  1
  In  In30  1  0.49236369  0.37150933  0.17855497  1
  In  In31  1  0.50781086  0.52370802  0.63969649  1
  In  In32  1  0.89947750  0.52969413  0.68829104  1
  In  In33  1  0.15876754  -0.00895226  0.83246982  1
  In  In34  1  0.66069709  0.14386015  0.14617476  1
  In  In35  1  0.00548112  0.66549573  0.00055137  1
  In  In36  1  0.66613908  0.30267512  0.35153319  1
  In  In37  1  0.82458557  0.66353092  0.16816591  1
  In  In38  1  0.49011773  0.68821351  0.16885587  1
  In  In39  1  0.00334270  0.15231931  0.16276248  1
  In  In40  1  0.85531756  0.68002245  0.50961597  1
  In  In41  1  0.85053185  0.84819479  0.66959309  1
  In  In42  1  0.68450507  -0.02080061  0.64116528  1
  In  In43  1  0.17024095  0.83806011  0.31642897  1
  In  In44  1  -0.00251195  0.68409565  0.33501675  1
  In  In45  1  0.67721924  0.50019252  0.51426342  1
  In  In46  1  0.83093443  0.35223934  0.15440049  1
  In  In47  1  0.31118192  0.16266224  0.16617833  1
  In  In48  1  0.02084038  -0.02072086  0.64527296  1
  In  In49  1  0.47437458  0.84119221  0.01430481  1
  In  In50  1  0.48664711  0.31904845  0.81257016  1
  In  In51  1  0.30265182  0.33272783  0.35534494  1
  In  In52  1  0.16393884  0.31158020  0.16672737  1
  In  In53  1  0.47266115  0.86448423  0.33795906  1
  In  In54  1  -0.00642746  0.32213870  -0.02030244  1
  In  In55  1  0.32233194  0.36795728  0.65996259  1
  In  In56  1  0.67417069  0.49328723  0.81577008  1
  In  In57  1  0.86583475  0.85753891  0.35432307  1
  In  In58  1  -0.02295292  0.14394460  0.85070586  1
  In  In59  1  0.16865671  0.00616726  0.17330881  1
  In  In60  1  0.02178931  0.32935283  0.66282563  1
  In  In61  1  0.66317702  -0.02847229  0.34837056  1
  In  In62  1  0.82842890  0.32971666  0.84693023  1
  In  In63  1  0.31501359  0.51457066  0.15756411  1
  In  In64  1  0.49951001  0.51326307  -0.01003352  1
  In  In65  1  0.13227285  0.84107757  -0.01485096  1
  In  In66  1  0.02232343  0.33823617  0.37380097  1
  In  In67  1  0.66717890  0.30814621  -0.00212777  1
  In  In68  1  0.16462550  0.49466937  0.00862666  1
  In  In69  1  0.00129503  0.52287068  0.18075854  1
  In  In70  1  0.31386519  0.83974702  0.49797849  1
  In  In71  1  0.47764583  0.70797524  0.78532285  1
  Te  Te72  1  0.10252027  0.09288208  0.07319909  1
  Te  Te73  1  0.14585510  0.05031573  0.40374568  1
  Te  Te74  1  0.08054767  0.09283052  0.73978818  1
  Te  Te75  1  0.06518567  0.41132866  0.09787521  1
  Te  Te76  1  0.11291080  0.42694700  0.44206220  1
  Te  Te77  1  0.07148350  0.42510315  0.76280358  1
  Te  Te78  1  0.05821223  0.76799402  0.09006336  1
  Te  Te79  1  0.09333941  0.76086655  0.42525843  1
  Te  Te80  1  0.05686131  0.73258584  0.71108562  1
  Te  Te81  1  0.42648621  0.06682150  0.13169243  1
  Te  Te82  1  0.41777922  0.05133228  0.41995522  1
  Te  Te83  1  0.43533934  0.07810672  0.75937942  1
  Te  Te84  1  0.40335350  0.42588497  0.06848049  1
  Te  Te85  1  0.40324619  0.41695960  0.43721770  1
  Te  Te86  1  0.42597973  0.44058203  0.74572467  1
  Te  Te87  1  0.39116752  0.73407275  0.07228107  1
  Te  Te88  1  0.39962254  0.74931567  0.40941984  1
  Te  Te89  1  0.37726705  0.79033037  0.71658334  1
  Te  Te90  1  0.77466108  0.06213775  0.10328989  1
  Te  Te91  1  0.76732454  0.06461569  0.41375984  1
  Te  Te92  1  0.74394933  0.05215703  0.75480557  1
  Te  Te93  1  0.74787214  0.42611690  0.05145533  1
  Te  Te94  1  0.76014010  0.40634100  0.42214996  1
  Te  Te95  1  0.76677495  0.41352473  0.72533605  1
  Te  Te96  1  0.74287562  0.74902914  0.07097145  1
  Te  Te97  1  0.76970351  0.77308739  0.43116896  1
  Te  Te98  1  0.75399672  0.74599295  0.73441483  1
  Te  Te99  1  0.07378488  0.24355019  0.26805383  1
  Te  Te100  1  0.06640339  0.22060265  0.56071709  1
  Te  Te101  1  0.08051408  0.23174043  0.90503651  1
  Te  Te102  1  0.09335497  0.60838864  0.25235555  1
  Te  Te103  1  0.06634316  0.60872371  0.59184594  1
  Te  Te104  1  0.08952194  0.58051204  0.90805849  1
  Te  Te105  1  0.06862532  0.92525615  0.24981774  1
  Te  Te106  1  0.08238075  0.90314436  0.53356802  1
  Te  Te107  1  0.04702100  0.90126127  0.87661088  1
  Te  Te108  1  0.40394374  0.26941046  0.24938929  1
  Te  Te109  1  0.40385729  0.25279114  0.59757100  1
  Te  Te110  1  0.41108252  0.24149321  0.91911532  1
  Te  Te111  1  0.42635806  0.56979854  0.25609738  1
  Te  Te112  1  0.41731406  0.61190339  0.56687409  1
  Te  Te113  1  0.42793525  0.60835963  0.89703362  1
  Te  Te114  1  0.43737538  0.92945042  0.21177168  1
  Te  Te115  1  0.42471989  0.89691535  0.58633746  1
  Te  Te116  1  0.39090323  0.90673233  0.90484689  1
  Te  Te117  1  0.74778076  0.24782281  0.23548065  1
  Te  Te118  1  0.73310153  0.23734263  0.58524710  1
  Te  Te119  1  0.76392337  0.22504846  0.92705356  1
  Te  Te120  1  0.72717893  0.60825113  0.27088841  1
  Te  Te121  1  0.77129521  0.58530178  0.59779197  1
  Te  Te122  1  0.76262237  0.58007280  0.89333173  1
  Te  Te123  1  0.76311289  0.91317887  0.24957028  1
  Te  Te124  1  0.76603674  0.89129121  0.55369612  1
  Te  Te125  1  0.76538381  0.90545364  0.90780767  1
  Te  Te126  1  0.25485782  0.25348767  0.06704963  1
  Te  Te127  1  0.23603621  0.23027932  0.43530321  1
  Te  Te128  1  0.24145640  0.27632961  0.75212436  1
  Te  Te129  1  0.24276053  0.60456530  0.06841329  1
  Te  Te130  1  0.23710068  0.57799558  0.41136850  1
  Te  Te131  1  0.26014150  0.59316218  0.73820563  1
  Te  Te132  1  0.24009632  0.91489644  0.07311680  1
  Te  Te133  1  0.25323768  0.93570927  0.39846848  1
  Te  Te134  1  0.21964735  0.89888979  0.73380594  1
  Te  Te135  1  0.56291078  0.25925532  0.09877599  1
  Te  Te136  1  0.54806637  0.24507072  0.42623098  1
  Te  Te137  1  0.60021054  0.22550369  0.77341936  1
  Te  Te138  1  0.58686394  0.57877529  0.09829173  1
  Te  Te139  1  0.59882387  0.60512328  0.44592039  1
  Te  Te140  1  0.59084150  0.60100660  0.74274683  1
  Te  Te141  1  0.57012144  0.92100063  0.10323375  1
  Te  Te142  1  0.58006784  0.88963085  0.44174233  1
  Te  Te143  1  0.57993234  0.91781822  0.74221273  1
  Te  Te144  1  0.90926284  0.24674800  0.08184756  1
  Te  Te145  1  0.90989480  0.23529654  0.41754024  1
  Te  Te146  1  0.91205147  0.24733519  0.73836611  1
  Te  Te147  1  0.90279205  0.57187850  0.07896104  1
  Te  Te148  1  0.92885255  0.57742432  0.41988351  1
  Te  Te149  1  0.94681467  0.64371684  0.76984287  1
  Te  Te150  1  0.94234659  0.95163759  0.05805481  1
  Te  Te151  1  0.96551089  0.93162530  0.44411732  1
  Te  Te152  1  0.93778182  0.92950585  0.75996176  1
  Te  Te153  1  0.23190392  0.09940387  0.27532118  1
  Te  Te154  1  0.25471864  0.06412046  0.59838327  1
  Te  Te155  1  0.24847282  0.08113867  0.91537224  1
  Te  Te156  1  0.23718246  0.41817751  0.24751262  1
  Te  Te157  1  0.20604354  0.40719727  0.56562421  1
  Te  Te158  1  0.25098816  0.40728226  0.92600600  1
  Te  Te159  1  0.27207921  0.77759038  0.22706009  1
  Te  Te160  1  0.25619184  0.75875780  0.61278941  1
  Te  Te161  1  0.23302501  0.76039571  0.91311212  1
  Te  Te162  1  0.59582648  0.08424191  0.26932995  1
  Te  Te163  1  0.58058818  0.06971065  0.56879622  1
  Te  Te164  1  0.60111284  0.07682393  0.93978371  1
  Te  Te165  1  0.59698784  0.42081081  0.27811170  1
  Te  Te166  1  0.57152552  0.40439803  0.57075072  1
  Te  Te167  1  0.57866296  0.40907223  0.90830068  1
  Te  Te168  1  0.57058113  0.75662922  0.27506475  1
  Te  Te169  1  0.56613425  0.80073727  0.57787867  1
  Te  Te170  1  0.57415269  0.75813391  0.92612132  1
  Te  Te171  1  0.95469970  0.05190674  0.26371783  1
  Te  Te172  1  0.91206086  0.06347173  0.57314347  1
  Te  Te173  1  0.92174312  0.06175290  0.96029716  1
  Te  Te174  1  0.91976946  0.40650533  0.26543456  1
  Te  Te175  1  0.93887214  0.42592627  0.57816308  1
  Te  Te176  1  0.92219154  0.42585932  0.90348223  1
  Te  Te177  1  0.91149152  0.76363775  0.23881166  1
  Te  Te178  1  0.94846872  0.76225596  0.59226521  1
  Te  Te179  1  0.91558050  0.73818778  0.90402535  1
