# generated using pymatgen
data_In2Te3
_symmetry_space_group_name_H-M   'P 1'
_cell_length_a   18.81260385
_cell_length_b   18.80790122
_cell_length_c   18.82137955
_cell_angle_alpha   90.03233514
_cell_angle_beta   89.99473404
_cell_angle_gamma   90.05258681
_symmetry_Int_Tables_number   1
_chemical_formula_structural   In2Te3
_chemical_formula_sum   'In72 Te108'
_cell_volume   6659.48192160
_cell_formula_units_Z   36
loop_
 _symmetry_equiv_pos_site_id
 _symmetry_equiv_pos_as_xyz
  1  'x, y, z'
loop_
 _atom_site_type_symbol
 _atom_site_label
 _atom_site_symmetry_multiplicity
 _atom_site_fract_x
 _atom_site_fract_y
 _atom_site_fract_z
 _atom_site_occupancy
  In  In0  1  0.86140411  0.35901443  0.18762184  1
  In  In1  1  0.63703256  0.31471214  0.00936609  1
  In  In2  1  0.67717991  0.02215189  0.65816542  1
  In  In3  1  0.51696387  0.68144361  0.49982708  1
  In  In4  1  0.81111654  0.33711669  0.82410982  1
  In  In5  1  0.47458387  0.90353961  0.30311658  1
  In  In6  1  0.32563284  0.83044678  0.84078272  1
  In  In7  1  0.68211302  0.50492141  0.82628234  1
  In  In8  1  0.49990068  0.82732759  0.64270982  1
  In  In9  1  0.67543351  0.18641042  0.50272876  1
  In  In10  1  0.17586831  0.14144743  -0.01644337  1
  In  In11  1  0.82000705  0.51371649  -0.01652619  1
  In  In12  1  0.16570169  0.49690657  0.32736408  1
  In  In13  1  0.29208225  0.64044723  0.69760978  1
  In  In14  1  0.84644697  0.17668715  0.33697588  1
  In  In15  1  0.32980265  0.14816758  0.18755854  1
  In  In16  1  0.33145188  0.84399459  0.49081256  1
  In  In17  1  0.04113151  -0.03268371  0.30205749  1
  In  In18  1  0.67222236  0.67727818  0.32219763  1
  In  In19  1  0.00944844  0.50025603  0.81125640  1
  In  In20  1  0.33106637  -0.02511755  0.67461557  1
  In  In21  1  0.51363292  0.32702388  0.49229151  1
  In  In22  1  0.17634033  -0.00540945  0.49445014  1
  In  In23  1  0.50252096  0.66748109  0.84707234  1
  In  In24  1  0.36544422  0.13690835  0.47570046  1
  In  In25  1  -0.00216897  0.82199366  0.47629174  1
  In  In26  1  0.66830281  0.15557660  0.82296425  1
  In  In27  1  0.48584890  0.31687217  0.17654052  1
  In  In28  1  -0.02472211  0.49654637  0.52907270  1
  In  In29  1  0.70996766  0.49195963  0.49118063  1
  In  In30  1  0.00147235  -0.01048119  0.67128039  1
  In  In31  1  0.85607833  0.67735320  0.17054021  1
  In  In32  1  0.17448793  0.32964382  0.50536768  1
  In  In33  1  0.50345155  0.16708839  0.68338549  1
  In  In34  1  0.14056194  0.78695673  0.68824568  1
  In  In35  1  -0.01639830  0.65069167  -0.01682173  1
  In  In36  1  0.35123439  0.48599780  0.51361925  1
  In  In37  1  0.66792927  0.83506686  0.16733839  1
  In  In38  1  0.32689859  0.68909405  0.00026724  1
  In  In39  1  0.16031990  0.17017123  0.31514135  1
  In  In40  1  0.00167251  0.19775515  0.49049374  1
  In  In41  1  0.15584192  0.17707237  0.66970812  1
  In  In42  1  0.01039779  -0.01061378  0.00776043  1
  In  In43  1  0.30939541  0.33793886  0.67115323  1
  In  In44  1  0.32882624  0.66071229  0.31003011  1
  In  In45  1  0.47615730  0.17431384  0.01418486  1
  In  In46  1  0.50606227  0.48945509  0.66811209  1
  In  In47  1  0.85302051  0.82472491  -0.00313750  1
  In  In48  1  0.67310431  0.51639643  0.15687501  1
  In  In49  1  0.84207570  0.65730717  0.48950665  1
  In  In50  1  0.50498207  0.51804769  0.00465883  1
  In  In51  1  0.84792365  0.83439316  0.68033842  1
  In  In52  1  0.82541370  0.01448466  0.50771317  1
  In  In53  1  0.16063476  0.66018161  0.15577229  1
  In  In54  1  0.49318266  0.31535551  0.81488552  1
  In  In55  1  0.82949110  -0.00194089  0.15353223  1
  In  In56  1  0.00996616  0.17303386  0.15847194  1
  In  In57  1  0.29716090  0.35661821  -0.01768999  1
  In  In58  1  0.01391833  0.34082124  0.01162212  1
  In  In59  1  0.47907876  0.50997144  0.33171369  1
  In  In60  1  0.68006107  0.83357327  0.81659920  1
  In  In61  1  -0.01004107  0.15292453  0.85480875  1
  In  In62  1  0.67743605  0.33949216  0.34555374  1
  In  In63  1  0.82187097  0.19134039  0.67447768  1
  In  In64  1  0.46844170  -0.01931884  0.83799003  1
  In  In65  1  0.15620875  0.32647972  0.16807321  1
  In  In66  1  0.48190928  0.84513349  0.00800038  1
  In  In67  1  0.83990124  0.82459800  0.32591577  1
  In  In68  1  0.14418574  0.66012543  0.50423880  1
  In  In69  1  0.67010774  0.00060082  -0.00501884  1
  In  In70  1  0.16619757  0.84230594  0.00376441  1
  In  In71  1  0.32139906  0.49537715  0.17553305  1
  Te  Te72  1  0.10568833  0.07218642  0.09862251  1
  Te  Te73  1  0.07427555  0.08394553  0.41963260  1
  Te  Te74  1  0.08744203  0.07741931  0.76261916  1
  Te  Te75  1  0.09018332  0.43543460  0.09468909  1
  Te  Te76  1  0.08259020  0.42604347  0.43322246  1
  Te  Te77  1  0.11703933  0.41004824  0.76138042  1
  Te  Te78  1  0.06749225  0.74597697  0.07074708  1
  Te  Te79  1  0.10334684  0.75420575  0.39915710  1
  Te  Te80  1  0.03783948  0.70995006  0.76910515  1
  Te  Te81  1  0.42643758  0.06636965  0.10564740  1
  Te  Te82  1  0.43486389  0.03754772  0.38559092  1
  Te  Te83  1  0.39496816  0.08841852  0.75780247  1
  Te  Te84  1  0.41702875  0.40774204  0.07360631  1
  Te  Te85  1  0.40839218  0.39676927  0.40492840  1
  Te  Te86  1  0.40238788  0.42555884  0.75872660  1
  Te  Te87  1  0.41345222  0.75282011  0.10084769  1
  Te  Te88  1  0.41664120  0.74730783  0.40668404  1
  Te  Te89  1  0.41613784  0.74942263  0.74712792  1
  Te  Te90  1  0.74332680  0.09409502  0.08318731  1
  Te  Te91  1  0.74157822  0.08824250  0.40490854  1
  Te  Te92  1  0.77928725  0.07125442  0.76008519  1
  Te  Te93  1  0.74312338  0.40700973  0.07470883  1
  Te  Te94  1  0.79608147  0.42566018  0.38652648  1
  Te  Te95  1  0.78234066  0.44741442  0.72512223  1
  Te  Te96  1  0.75326089  0.74326521  0.07896101  1
  Te  Te97  1  0.74572207  0.76016119  0.42617094  1
  Te  Te98  1  0.76574125  0.73198517  0.75224442  1
  Te  Te99  1  0.05549660  0.27056635  0.26819919  1
  Te  Te100  1  0.06547460  0.27941695  0.60191764  1
  Te  Te101  1  0.09303885  0.25008449  0.91752858  1
  Te  Te102  1  0.07487075  0.57560863  0.24369962  1
  Te  Te103  1  0.07293950  0.58118638  0.60555598  1
  Te  Te104  1  0.08724017  0.55903281  0.92660351  1
  Te  Te105  1  0.13156029  0.89957939  0.20746009  1
  Te  Te106  1  0.09133427  0.90115229  0.58170748  1
  Te  Te107  1  0.08688172  0.91698964  0.90364081  1
  Te  Te108  1  0.41616482  0.23252631  0.27436739  1
  Te  Te109  1  0.41513502  0.25492453  0.58551525  1
  Te  Te110  1  0.39468519  0.25620796  0.91422084  1
  Te  Te111  1  0.43164075  0.59432022  0.21542589  1
  Te  Te112  1  0.42098306  0.59646957  0.59166966  1
  Te  Te113  1  0.39967772  0.57838526  0.91298546  1
  Te  Te114  1  0.38418877  0.92920901  0.18679328  1
  Te  Te115  1  0.42979551  0.93661438  0.56483646  1
  Te  Te116  1  0.36705924  0.93949997  0.94723425  1
  Te  Te117  1  0.75821145  0.25871446  0.24229201  1
  Te  Te118  1  0.77529703  0.28126694  0.56535844  1
  Te  Te119  1  0.74268611  0.24228598  0.92388350  1
  Te  Te120  1  0.76905615  0.58215058  0.25575010  1
  Te  Te121  1  0.75833789  0.58759849  0.59113889  1
  Te  Te122  1  0.74431443  0.61324811  0.90659352  1
  Te  Te123  1  0.74709492  0.92640346  0.26039190  1
  Te  Te124  1  0.74708096  0.91028233  0.58334117  1
  Te  Te125  1  0.76616120  0.91831202  0.91135087  1
  Te  Te126  1  0.25462126  0.24710159  0.08321253  1
  Te  Te127  1  0.25352465  0.23048853  0.42245467  1
  Te  Te128  1  0.24773517  0.24277453  0.76499939  1
  Te  Te129  1  0.24981994  0.57188465  0.06764252  1
  Te  Te130  1  0.26322920  0.58124594  0.42335876  1
  Te  Te131  1  0.20568699  0.55621343  0.78327273  1
  Te  Te132  1  0.24966899  0.91383516  0.10544834  1
  Te  Te133  1  0.25124198  0.92020585  0.39057787  1
  Te  Te134  1  0.22321019  0.90304398  0.75159090  1
  Te  Te135  1  0.58555882  0.21779463  0.11584300  1
  Te  Te136  1  0.57792817  0.23215599  0.39157599  1
  Te  Te137  1  0.61169116  0.26507483  0.73171106  1
  Te  Te138  1  0.59322046  0.61045871  0.07624897  1
  Te  Te139  1  0.59002221  0.57047584  0.41741853  1
  Te  Te140  1  0.58757098  0.59423716  0.74336163  1
  Te  Te141  1  0.57689485  0.93262535  0.09288900  1
  Te  Te142  1  0.57238405  0.93150337  0.41211451  1
  Te  Te143  1  0.57767233  0.93232230  0.74308113  1
  Te  Te144  1  0.90803083  0.25609103  0.08276402  1
  Te  Te145  1  0.90633778  0.28465770  0.41933296  1
  Te  Te146  1  0.92711905  0.25845741  0.76163550  1
  Te  Te147  1  0.91697987  0.56243096  0.08955384  1
  Te  Te148  1  0.93565913  0.57667375  0.40586556  1
  Te  Te149  1  0.92872996  0.60658072  0.74894594  1
  Te  Te150  1  0.93149053  0.89791071  0.10454595  1
  Te  Te151  1  0.91728702  0.93637527  0.41273341  1
  Te  Te152  1  0.93465261  0.91004428  0.77552195  1
  Te  Te153  1  0.24915049  0.05804855  0.27646175  1
  Te  Te154  1  0.25777421  0.08572682  0.58582357  1
  Te  Te155  1  0.27510534  0.06272342  0.91344630  1
  Te  Te156  1  0.25739753  0.39136222  0.26491379  1
  Te  Te157  1  0.22995761  0.44322695  0.59331730  1
  Te  Te158  1  0.21377786  0.43307686  0.88361522  1
  Te  Te159  1  0.23718930  0.75543975  0.24271227  1
  Te  Te160  1  0.25632119  0.74989814  0.58827952  1
  Te  Te161  1  0.22328337  0.73617897  0.90067769  1
  Te  Te162  1  0.56209697  0.02975987  0.29309005  1
  Te  Te163  1  0.57503209  0.09223483  0.57045510  1
  Te  Te164  1  0.56165819  0.08846377  0.91051051  1
  Te  Te165  1  0.58333363  0.42293780  0.24735014  1
  Te  Te166  1  0.60275105  0.41574406  0.57672635  1
  Te  Te167  1  0.58019766  0.41520049  0.90524990  1
  Te  Te168  1  0.57115390  0.76307089  0.25705764  1
  Te  Te169  1  0.61209648  0.75007926  0.58866331  1
  Te  Te170  1  0.58489907  0.77121014  0.92138793  1
  Te  Te171  1  0.93060757  0.07758199  0.25037336  1
  Te  Te172  1  0.92506758  0.09718978  0.59027520  1
  Te  Te173  1  0.90776456  0.08236099  0.95400709  1
  Te  Te174  1  0.91442293  0.45879096  0.28208601  1
  Te  Te175  1  0.88023183  0.41080629  0.60793589  1
  Te  Te176  1  0.91290008  0.41328297  0.91348071  1
  Te  Te177  1  0.94816980  0.75102854  0.25975916  1
  Te  Te178  1  0.92823020  0.74347190  0.58356509  1
  Te  Te179  1  0.92794151  0.75276854  0.88780622  1
