# generated using pymatgen
data_In2Te3
_symmetry_space_group_name_H-M   'P 1'
_cell_length_a   19.00734855
_cell_length_b   19.00071163
_cell_length_c   19.01541680
_cell_angle_alpha   90.02721151
_cell_angle_beta   90.09715831
_cell_angle_gamma   89.80693799
_symmetry_Int_Tables_number   1
_chemical_formula_structural   In2Te3
_chemical_formula_sum   'In72 Te108'
_cell_volume   6867.42803486
_cell_formula_units_Z   36
loop_
 _symmetry_equiv_pos_site_id
 _symmetry_equiv_pos_as_xyz
  1  'x, y, z'
loop_
 _atom_site_type_symbol
 _atom_site_label
 _atom_site_symmetry_multiplicity
 _atom_site_fract_x
 _atom_site_fract_y
 _atom_site_fract_z
 _atom_site_occupancy
  In  In0  1  0.02201187  0.16948623  0.15706032  1
  In  In1  1  0.52563189  0.33910994  0.78763201  1
  In  In2  1  0.46093555  0.63312669  0.83977734  1
  In  In3  1  0.33336495  0.00604447  0.32572474  1
  In  In4  1  -0.00613431  0.82071556  0.51136852  1
  In  In5  1  -0.00203790  -0.00949378  0.68206222  1
  In  In6  1  0.86621284  0.34645606  0.15616009  1
  In  In7  1  0.01138634  0.65767651  0.33405144  1
  In  In8  1  0.65861039  0.84113950  0.53693284  1
  In  In9  1  0.15838886  0.82529985  0.67808325  1
  In  In10  1  0.82760531  0.15651028  0.69405393  1
  In  In11  1  0.48014665  0.31333841  0.49218075  1
  In  In12  1  0.02301382  0.32598633  0.65208334  1
  In  In13  1  0.65734597  0.14488431  0.15128433  1
  In  In14  1  0.18297320  0.16141730  0.01284292  1
  In  In15  1  0.33105255  0.66639222  0.36402066  1
  In  In16  1  -0.02178649  0.17018931  0.84847972  1
  In  In17  1  -0.00754745  0.51849939  0.84243653  1
  In  In18  1  0.82810463  0.65641282  0.15215239  1
  In  In19  1  0.02430692  0.66076555  -0.00333569  1
  In  In20  1  0.65820468  0.66720518  0.29994368  1
  In  In21  1  0.04304817  0.12872081  0.46843474  1
  In  In22  1  0.18934313  0.15978575  0.66784538  1
  In  In23  1  0.67637586  0.50353693  0.50116003  1
  In  In24  1  0.03032017  0.35000723  0.33082418  1
  In  In25  1  0.84349648  -0.00402982  0.51478517  1
  In  In26  1  0.64624844  0.37250263  -0.01985119  1
  In  In27  1  0.49521364  0.50623831  0.64842293  1
  In  In28  1  0.79870829  0.38065230  0.78807444  1
  In  In29  1  0.49511997  0.84249988  -0.01618618  1
  In  In30  1  0.32114956  0.33518501  0.32298232  1
  In  In31  1  0.68585113  0.10456202  0.57194399  1
  In  In32  1  -0.00822206  0.83441398  0.82696859  1
  In  In33  1  0.49921844  0.68917845  0.13052129  1
  In  In34  1  -0.00701319  0.81144395  0.18014713  1
  In  In35  1  0.80104563  0.14888562  -0.08010269  1
  In  In36  1  0.19174059  0.84953639  0.32931643  1
  In  In37  1  0.31862570  0.16875464  0.50026299  1
  In  In38  1  0.02384932  0.34371271  0.03977045  1
  In  In39  1  0.50300384  0.66949011  0.51195704  1
  In  In40  1  0.47266957  0.47871345  0.35454634  1
  In  In41  1  0.34995846  0.84107480  0.51636870  1
  In  In42  1  0.82432071  0.83777524  0.00694120  1
  In  In43  1  0.18451359  0.34990914  0.86172599  1
  In  In44  1  0.86016256  0.19863150  0.31564229  1
  In  In45  1  0.67757281  0.01350839  0.36800594  1
  In  In46  1  0.17973580  0.65922930  0.17443804  1
  In  In47  1  0.50254597  0.00470963  0.53345170  1
  In  In48  1  0.35103486  0.16506710  0.80821799  1
  In  In49  1  0.33436459  0.50918300  0.15796973  1
  In  In50  1  0.44285636  -0.01946250  0.12667422  1
  In  In51  1  0.34909560  0.83210999  0.83409360  1
  In  In52  1  0.67221099  0.33613773  0.34714554  1
  In  In53  1  0.83677024  0.32013694  0.51525353  1
  In  In54  1  0.82876771  0.66460961  0.53278927  1
  In  In55  1  0.67241910  0.66179855  0.00688685  1
  In  In56  1  0.16905787  0.64891406  0.50788617  1
  In  In57  1  0.82757361  0.00972945  0.18017890  1
  In  In58  1  0.62171734  0.83407399  0.80788257  1
  In  In59  1  0.50910313  0.18243845  0.33156059  1
  In  In60  1  0.16548363  -0.01670068  0.84313097  1
  In  In61  1  0.84014304  0.49886555  0.00584023  1
  In  In62  1  0.16967014  0.50598519  0.66166272  1
  In  In63  1  0.64269247  -0.00519074  -0.04086776  1
  In  In64  1  0.19399292  -0.03787632  0.14087043  1
  In  In65  1  0.80886115  0.67477470  0.82189326  1
  In  In66  1  0.49180302  0.32375510  0.16357430  1
  In  In67  1  0.01007845  0.49515322  0.50505810  1
  In  In68  1  0.81869243  0.83784944  0.37527133  1
  In  In69  1  0.49154993  0.14093121  -0.01289052  1
  In  In70  1  0.20412096  0.66525696  0.84691181  1
  In  In71  1  0.33866375  0.33499506  -0.00772274  1
  Te  Te72  1  0.09117288  0.06168729  0.07597224  1
  Te  Te73  1  0.13793759  0.10419852  0.35888947  1
  Te  Te74  1  0.08243973  0.09458970  0.75640318  1
  Te  Te75  1  0.14821786  0.40128678  0.09028728  1
  Te  Te76  1  0.11930444  0.41994211  0.43490333  1
  Te  Te77  1  0.08239842  0.41477216  0.76076829  1
  Te  Te78  1  0.09792075  0.75572137  0.08709116  1
  Te  Te79  1  0.09682433  0.75806693  0.41138972  1
  Te  Te80  1  0.08455605  0.73207991  0.76939290  1
  Te  Te81  1  0.38231878  0.10252229  0.07549552  1
  Te  Te82  1  0.43097462  0.08597335  0.41971889  1
  Te  Te83  1  0.43939712  0.04748076  0.77939450  1
  Te  Te84  1  0.43013075  0.42639623  0.07376858  1
  Te  Te85  1  0.37297361  0.41188778  0.44377890  1
  Te  Te86  1  0.41513751  0.40136911  0.71364031  1
  Te  Te87  1  0.39363472  0.77419460  0.06876632  1
  Te  Te88  1  0.43355674  0.76461759  0.41626205  1
  Te  Te89  1  0.41371636  0.73457466  0.74677201  1
  Te  Te90  1  0.75073722  0.06792780  0.06150501  1
  Te  Te91  1  0.78621210  0.10405952  0.41748837  1
  Te  Te92  1  0.75055772  0.08519918  0.79586085  1
  Te  Te93  1  0.74801649  0.41455922  0.09053068  1
  Te  Te94  1  0.77528068  0.41948010  0.41837035  1
  Te  Te95  1  0.69199947  0.46314893  0.73022600  1
  Te  Te96  1  0.73370343  0.76401329  0.10149154  1
  Te  Te97  1  0.72510256  0.73820841  0.43783677  1
  Te  Te98  1  0.71308836  0.74467937  0.73127867  1
  Te  Te99  1  0.10262072  0.24644388  0.25393153  1
  Te  Te100  1  0.10354005  0.23268021  0.56594580  1
  Te  Te101  1  0.08725346  0.24551581  0.92405072  1
  Te  Te102  1  0.08155330  0.57229290  0.23965281  1
  Te  Te103  1  0.06097494  0.60146165  0.59926993  1
  Te  Te104  1  0.11180798  0.56441859  0.92252209  1
  Te  Te105  1  0.08567285  0.91333784  0.24358220  1
  Te  Te106  1  0.08627076  0.91916595  0.58197824  1
  Te  Te107  1  0.06293822  0.91768232  0.92235001  1
  Te  Te108  1  0.40051668  0.23243612  0.23996626  1
  Te  Te109  1  0.39852666  0.24871876  0.59537342  1
  Te  Te110  1  0.43194733  0.25709177  0.89999344  1
  Te  Te111  1  0.41593272  0.58388491  0.26266541  1
  Te  Te112  1  0.40057628  0.58013695  0.56234117  1
  Te  Te113  1  0.35859128  0.59352894  0.93753312  1
  Te  Te114  1  0.41122234  0.90926150  0.24882133  1
  Te  Te115  1  0.44519634  0.89682974  0.61729196  1
  Te  Te116  1  0.42723008  0.94508899  0.89736575  1
  Te  Te117  1  0.73573676  0.24421093  0.24108687  1
  Te  Te118  1  0.73947487  0.24881195  0.60561656  1
  Te  Te119  1  0.74512069  0.29230092  0.89872998  1
  Te  Te120  1  0.75366902  0.57284505  0.24538377  1
  Te  Te121  1  0.75016352  0.56708959  0.61301738  1
  Te  Te122  1  0.74545389  0.56880939  0.91208259  1
  Te  Te123  1  0.74488865  0.91893779  0.26891201  1
  Te  Te124  1  0.72629654  0.96129710  0.60383067  1
  Te  Te125  1  0.73478292  0.89195434  0.89844956  1
  Te  Te126  1  0.24046795  0.27609044  0.09007216  1
  Te  Te127  1  0.23743743  0.23093740  0.39143023  1
  Te  Te128  1  0.25289117  0.26870706  0.75186059  1
  Te  Te129  1  0.26531633  0.60354559  0.06316046  1
  Te  Te130  1  0.22516194  0.57163403  0.39753286  1
  Te  Te131  1  0.26341574  0.58703574  0.73838881  1
  Te  Te132  1  0.27594760  0.88795720  0.04302251  1
  Te  Te133  1  0.25748756  0.93149121  0.43719664  1
  Te  Te134  1  0.25587778  0.92003164  0.74160092  1
  Te  Te135  1  0.58643152  0.25000114  0.06798471  1
  Te  Te136  1  0.60349575  0.23602726  0.43521354  1
  Te  Te137  1  0.59828379  0.23803232  0.70972549  1
  Te  Te138  1  0.58020864  0.57831515  0.08242149  1
  Te  Te139  1  0.57960411  0.57590262  0.40730148  1
  Te  Te140  1  0.57560360  0.56193664  0.76686036  1
  Te  Te141  1  0.57814343  0.93079172  0.07892636  1
  Te  Te142  1  0.58042393  0.91773832  0.43215737  1
  Te  Te143  1  0.54853101  0.94219850  0.73963498  1
  Te  Te144  1  0.91512648  0.23471038  0.07035933  1
  Te  Te145  1  0.94472903  0.25777018  0.42703367  1
  Te  Te146  1  0.91483024  0.27164997  0.75377682  1
  Te  Te147  1  0.94009739  0.57514016  0.08973233  1
  Te  Te148  1  0.91719609  0.59137974  0.43140997  1
  Te  Te149  1  0.90434867  0.58828812  0.75029876  1
  Te  Te150  1  0.91571368  0.91457181  0.09836227  1
  Te  Te151  1  0.93504019  0.92558883  0.41581000  1
  Te  Te152  1  0.89649298  0.89987815  0.73565476  1
  Te  Te153  1  0.23570318  0.07240949  0.23365927  1
  Te  Te154  1  0.27411720  0.06598742  0.59560463  1
  Te  Te155  1  0.25623817  0.08888650  0.90288111  1
  Te  Te156  1  0.24035960  0.42225042  0.23283807  1
  Te  Te157  1  0.20368206  0.40459387  0.56305933  1
  Te  Te158  1  0.29168779  0.44387315  0.90172091  1
  Te  Te159  1  0.27335946  0.75154686  0.25067266  1
  Te  Te160  1  0.25180042  0.74752500  0.58675273  1
  Te  Te161  1  0.23837091  0.78934409  0.92664839  1
  Te  Te162  1  0.58264349  0.07166653  0.25845408  1
  Te  Te163  1  0.54444354  0.12409597  0.61852657  1
  Te  Te164  1  0.59723201  0.11511715  0.88740447  1
  Te  Te165  1  0.57069748  0.40906096  0.26123908  1
  Te  Te166  1  0.57754502  0.40831793  0.56136941  1
  Te  Te167  1  0.55114955  0.44211890  0.89333040  1
  Te  Te168  1  0.56902832  0.76227945  0.23723112  1
  Te  Te169  1  0.59094380  0.73335902  0.61291509  1
  Te  Te170  1  0.57079122  0.73072347  0.91344217  1
  Te  Te171  1  0.93628476  0.08456260  0.25375970  1
  Te  Te172  1  0.92645595  0.09821531  0.59230916  1
  Te  Te173  1  0.91370608  0.05595067  0.91228615  1
  Te  Te174  1  0.92972232  0.42830233  0.25719376  1
  Te  Te175  1  0.91598490  0.41937772  0.59745722  1
  Te  Te176  1  0.93681919  0.40928729  0.93242177  1
  Te  Te177  1  0.89271282  0.74579607  0.27368240  1
  Te  Te178  1  0.89102114  0.77698894  0.60569157  1
  Te  Te179  1  0.90614356  0.73314847  0.93216216  1
