# generated using pymatgen
data_In2Te3
_symmetry_space_group_name_H-M   'P 1'
_cell_length_a   18.99934986
_cell_length_b   18.95892284
_cell_length_c   18.97069046
_cell_angle_alpha   90.09559036
_cell_angle_beta   89.84761626
_cell_angle_gamma   89.99813368
_symmetry_Int_Tables_number   1
_chemical_formula_structural   In2Te3
_chemical_formula_sum   'In72 Te108'
_cell_volume   6833.34576208
_cell_formula_units_Z   36
loop_
 _symmetry_equiv_pos_site_id
 _symmetry_equiv_pos_as_xyz
  1  'x, y, z'
loop_
 _atom_site_type_symbol
 _atom_site_label
 _atom_site_symmetry_multiplicity
 _atom_site_fract_x
 _atom_site_fract_y
 _atom_site_fract_z
 _atom_site_occupancy
  In  In0  1  0.82249043  0.16623157  0.33004104  1
  In  In1  1  0.84526690  0.64865965  0.17414702  1
  In  In2  1  -0.00902156  0.32294332  0.68680825  1
  In  In3  1  0.84281373  0.32116470  0.83942765  1
  In  In4  1  0.65488523  0.82308483  0.48312742  1
  In  In5  1  -0.00760903  0.82809881  0.18593904  1
  In  In6  1  0.00010112  0.84616021  0.49989293  1
  In  In7  1  0.81113552  0.48962795  0.03100522  1
  In  In8  1  0.67657561  0.47944112  0.17051139  1
  In  In9  1  0.82288787  0.00091762  0.19019734  1
  In  In10  1  0.29981601  -0.01890084  0.37256149  1
  In  In11  1  0.31297874  0.63675140  0.03811154  1
  In  In12  1  0.53082727  0.15911841  0.33531684  1
  In  In13  1  0.16774531  0.33833385  0.51358470  1
  In  In14  1  -0.00043242  0.00949148  0.34647589  1
  In  In15  1  0.16542173  0.15613866  0.66924995  1
  In  In16  1  0.84331076  0.67193782  0.81387661  1
  In  In17  1  0.33060567  0.50285578  0.49661518  1
  In  In18  1  0.15823752  0.85438505  0.65276819  1
  In  In19  1  0.03242962  0.67001288  0.35305092  1
  In  In20  1  -0.01339412  0.85170276  0.81623606  1
  In  In21  1  0.01522542  0.50818187  0.51591753  1
  In  In22  1  0.31998374  0.65277809  0.30550317  1
  In  In23  1  0.70397726  0.34056181  0.35178511  1
  In  In24  1  0.64655728  0.66407075  0.32475277  1
  In  In25  1  0.50436580  0.01785141  0.49585567  1
  In  In26  1  0.51156013  0.32377510  0.83354631  1
  In  In27  1  0.16957659  0.20334617  -0.00477956  1
  In  In28  1  0.84554318  0.51140261  0.66045735  1
  In  In29  1  0.82322928  -0.00546793  0.80063707  1
  In  In30  1  0.35009104  0.15997353  0.80971571  1
  In  In31  1  0.49172997  0.85312582  0.67584509  1
  In  In32  1  0.02663168  0.50254564  0.84902117  1
  In  In33  1  0.67948830  0.79764969  0.83386449  1
  In  In34  1  0.62707758  0.91772105  0.19983175  1
  In  In35  1  0.49350114  0.15361527  0.01870777  1
  In  In36  1  0.13543479  0.17496278  0.33685098  1
  In  In37  1  0.48603442  -0.00015831  0.86106653  1
  In  In38  1  0.66559106  0.31972326  0.55430177  1
  In  In39  1  0.48364600  0.82378606  0.32480041  1
  In  In40  1  0.35339987  0.32805520  0.33671574  1
  In  In41  1  0.31635951  0.81877551  0.16219495  1
  In  In42  1  0.66169602  -0.00443266  0.65743197  1
  In  In43  1  0.65194029  0.65624206  -0.00377769  1
  In  In44  1  0.66169672  0.01310892  -0.00746994  1
  In  In45  1  -0.06846122  0.34789423  0.32838217  1
  In  In46  1  0.49417151  0.66021979  0.50592799  1
  In  In47  1  0.02908834  0.69368186  0.63477552  1
  In  In48  1  0.52156940  0.67205075  0.83458054  1
  In  In49  1  0.65932960  0.48724382  0.83231443  1
  In  In50  1  0.15714096  0.00251460  0.17759088  1
  In  In51  1  0.51779525  0.18455916  0.65454616  1
  In  In52  1  0.83048780  0.02710636  0.49309968  1
  In  In53  1  0.32966996  0.00894283  0.62114808  1
  In  In54  1  0.25663722  0.64195840  0.65496163  1
  In  In55  1  0.50717597  0.33358298  0.15542809  1
  In  In56  1  0.17319788  0.34509542  0.17433609  1
  In  In57  1  -0.00653301  0.65873712  0.01698296  1
  In  In58  1  0.68643697  0.65166300  0.67040889  1
  In  In59  1  0.48526163  0.51316656  0.33888881  1
  In  In60  1  0.49496059  0.48955955  -0.01328678  1
  In  In61  1  0.02893784  0.01598370  -0.01440388  1
  In  In62  1  0.01557541  0.34637059  0.01300263  1
  In  In63  1  0.30414760  0.80670500  0.84608447  1
  In  In64  1  0.32275400  0.01504642  0.01290849  1
  In  In65  1  0.83306041  0.84147188  0.03173083  1
  In  In66  1  0.16124132  -0.00632730  0.81512238  1
  In  In67  1  0.30703500  0.35260993  -0.01011005  1
  In  In68  1  0.16691964  0.34938968  0.84297206  1
  In  In69  1  0.15313958  0.50025375  0.32122282  1
  In  In70  1  0.84940352  0.17167790  -0.00636332  1
  In  In71  1  0.40963485  0.36248275  0.65033836  1
  Te  Te72  1  0.09340682  0.10716479  0.08678430  1
  Te  Te73  1  0.08457637  0.08314645  0.44154708  1
  Te  Te74  1  0.06661305  0.08068178  0.74784284  1
  Te  Te75  1  0.12680375  0.43597654  0.06226644  1
  Te  Te76  1  0.07681995  0.40677845  0.41291397  1
  Te  Te77  1  0.09186637  0.42601850  0.73594469  1
  Te  Te78  1  0.07431423  0.75761785  0.08753920  1
  Te  Te79  1  0.11232963  0.77318087  0.42976910  1
  Te  Te80  1  0.09217425  0.76167207  0.75405744  1
  Te  Te81  1  0.42063352  0.06400478  0.10872613  1
  Te  Te82  1  0.41092624  0.08756806  0.40275846  1
  Te  Te83  1  0.43853619  0.06741947  0.72690648  1
  Te  Te84  1  0.40309020  0.42081102  0.08516751  1
  Te  Te85  1  0.43268356  0.40867941  0.43618079  1
  Te  Te86  1  0.41729978  0.42384398  0.78336080  1
  Te  Te87  1  0.41259705  0.72810924  0.09732164  1
  Te  Te88  1  0.40228417  0.73191330  0.41162509  1
  Te  Te89  1  0.41658811  0.75086742  0.75737245  1
  Te  Te90  1  0.75631934  0.08541122  0.08525957  1
  Te  Te91  1  0.73109535  0.06515230  0.38848601  1
  Te  Te92  1  0.72990448  0.09327855  0.74507590  1
  Te  Te93  1  0.76377318  0.37477816  0.11197585  1
  Te  Te94  1  0.81956479  0.42038772  0.39386913  1
  Te  Te95  1  0.76523466  0.41812384  0.74936422  1
  Te  Te96  1  0.74936176  0.73003930  0.08880541  1
  Te  Te97  1  0.74161557  0.72677295  0.41663118  1
  Te  Te98  1  0.77430321  0.76665961  0.71928050  1
  Te  Te99  1  0.06506423  0.27212963  0.24682036  1
  Te  Te100  1  0.07283328  0.24487217  0.58473564  1
  Te  Te101  1  0.06353715  0.25419770  0.90096632  1
  Te  Te102  1  0.10353490  0.60948452  0.23087786  1
  Te  Te103  1  0.12252448  0.58778171  0.58586800  1
  Te  Te104  1  0.09564242  0.61215259  0.91922308  1
  Te  Te105  1  0.08697910  0.90911991  0.27297260  1
  Te  Te106  1  0.05066331  0.94214701  0.60274977  1
  Te  Te107  1  0.09402022  0.89984679  0.91344792  1
  Te  Te108  1  0.43221224  0.23629467  0.24719135  1
  Te  Te109  1  0.40038677  0.23217325  0.58422952  1
  Te  Te110  1  0.40379434  0.24802763  0.92245497  1
  Te  Te111  1  0.42984355  0.59185798  0.22897371  1
  Te  Te112  1  0.39743762  0.59256516  0.59847335  1
  Te  Te113  1  0.42242956  0.60479502  0.92609263  1
  Te  Te114  1  0.38234288  0.91491757  0.26102127  1
  Te  Te115  1  0.41911354  0.90564926  0.55492281  1
  Te  Te116  1  0.39089523  0.90625983  0.92810552  1
  Te  Te117  1  0.74763176  0.25633351  0.23840174  1
  Te  Te118  1  0.79487535  0.24491736  0.53723461  1
  Te  Te119  1  0.74753607  0.24841985  0.92178824  1
  Te  Te120  1  0.75418577  0.56825724  0.26398721  1
  Te  Te121  1  0.74894122  0.56955076  0.56766496  1
  Te  Te122  1  0.75480879  0.58705894  0.90681569  1
  Te  Te123  1  0.76197225  0.87880337  0.23977372  1
  Te  Te124  1  0.74570788  0.91551245  0.56253443  1
  Te  Te125  1  0.75625376  0.90644847  0.91800185  1
  Te  Te126  1  0.26678876  0.24962408  0.09961087  1
  Te  Te127  1  0.24455203  0.25586170  0.41146447  1
  Te  Te128  1  0.24783686  0.25324329  0.75218709  1
  Te  Te129  1  0.21004707  0.55800004  0.11123835  1
  Te  Te130  1  0.23666637  0.58655078  0.41565801  1
  Te  Te131  1  0.25311464  0.56649666  0.77775741  1
  Te  Te132  1  0.23047040  0.91479244  0.07899091  1
  Te  Te133  1  0.22471531  0.88019845  0.45011531  1
  Te  Te134  1  0.27468093  0.92519108  0.74216911  1
  Te  Te135  1  0.59099412  0.23154841  0.09407136  1
  Te  Te136  1  0.59969205  0.26131080  0.42932709  1
  Te  Te137  1  0.60795063  0.27804088  0.72801662  1
  Te  Te138  1  0.57990109  0.56504416  0.09022588  1
  Te  Te139  1  0.58881679  0.56798149  0.43438233  1
  Te  Te140  1  0.57701155  0.57020362  0.73690059  1
  Te  Te141  1  0.56572328  0.93259472  0.06815625  1
  Te  Te142  1  0.57347989  0.91935073  0.40187987  1
  Te  Te143  1  0.59018278  0.91197591  0.77520743  1
  Te  Te144  1  0.92830873  0.25560856  0.08693643  1
  Te  Te145  1  0.91253773  0.23517677  0.42749251  1
  Te  Te146  1  0.89822036  0.22197491  0.74316770  1
  Te  Te147  1  0.93576063  0.54202723  0.11083701  1
  Te  Te148  1  0.93768109  0.57130608  0.40811354  1
  Te  Te149  1  0.94744648  0.59105439  0.74169900  1
  Te  Te150  1  0.93675926  0.93770150  0.08473493  1
  Te  Te151  1  0.89931113  0.91763396  0.41062716  1
  Te  Te152  1  0.91809618  0.92618163  0.70885281  1
  Te  Te153  1  0.24020219  0.08406717  0.27209259  1
  Te  Te154  1  0.22222522  0.08062863  0.55359083  1
  Te  Te155  1  0.24244813  0.09512846  0.90618107  1
  Te  Te156  1  0.27128161  0.42671950  0.25788142  1
  Te  Te157  1  0.26718114  0.41095397  0.59846861  1
  Te  Te158  1  0.26241408  0.45775622  0.88957185  1
  Te  Te159  1  0.21844629  0.73688465  0.23858768  1
  Te  Te160  1  0.25598799  0.77035892  0.57846177  1
  Te  Te161  1  0.23292665  0.72101411  0.94184945  1
  Te  Te162  1  0.61396454  0.05921411  0.26398786  1
  Te  Te163  1  0.60840123  0.10227921  0.56380502  1
  Te  Te164  1  0.58327555  0.10655133  0.90173871  1
  Te  Te165  1  0.57939972  0.41053892  0.26842255  1
  Te  Te166  1  0.55624059  0.39684910  0.61333480  1
  Te  Te167  1  0.60255129  0.39534766  0.93715836  1
  Te  Te168  1  0.58269424  0.76290934  0.23160412  1
  Te  Te169  1  0.57961395  0.75122120  0.60207246  1
  Te  Te170  1  0.57267156  0.77104964  0.93904296  1
  Te  Te171  1  0.92826331  0.09323282  0.24420859  1
  Te  Te172  1  0.84948266  0.12006160  0.60898032  1
  Te  Te173  1  0.91442289  0.06639711  0.90384616  1
  Te  Te174  1  0.94956180  0.41387500  0.19899412  1
  Te  Te175  1  0.92134114  0.40756831  0.58139969  1
  Te  Te176  1  0.91322342  0.43480542  0.92416896  1
  Te  Te177  1  0.91470118  0.73594510  0.27577383  1
  Te  Te178  1  0.91611177  0.73973807  0.55800699  1
  Te  Te179  1  0.90981605  0.75693998  0.92047719  1
