# generated using pymatgen
data_In2Te3
_symmetry_space_group_name_H-M   'P 1'
_cell_length_a   18.80611386
_cell_length_b   18.80244585
_cell_length_c   18.79944611
_cell_angle_alpha   89.96488025
_cell_angle_beta   90.03488248
_cell_angle_gamma   89.91039666
_symmetry_Int_Tables_number   1
_chemical_formula_structural   In2Te3
_chemical_formula_sum   'In72 Te108'
_cell_volume   6647.49115597
_cell_formula_units_Z   36
loop_
 _symmetry_equiv_pos_site_id
 _symmetry_equiv_pos_as_xyz
  1  'x, y, z'
loop_
 _atom_site_type_symbol
 _atom_site_label
 _atom_site_symmetry_multiplicity
 _atom_site_fract_x
 _atom_site_fract_y
 _atom_site_fract_z
 _atom_site_occupancy
  In  In0  1  0.82766052  0.50281673  0.67332767  1
  In  In1  1  0.16487122  0.65059823  0.15544186  1
  In  In2  1  0.50574550  0.33900994  0.50251336  1
  In  In3  1  0.48236936  0.65614128  0.51568172  1
  In  In4  1  0.33244211  0.49307051  0.17482372  1
  In  In5  1  0.00721125  0.81088835  0.18269173  1
  In  In6  1  0.86599698  0.17211892  0.67095114  1
  In  In7  1  0.01910825  0.19532218  0.82106664  1
  In  In8  1  0.01302586  0.84664730  0.48036937  1
  In  In9  1  0.00220154  0.82662919  0.81055442  1
  In  In10  1  0.00463965  0.17056842  0.15755428  1
  In  In11  1  0.17516978  0.49419229  0.35142683  1
  In  In12  1  0.51644817  0.33322616  0.15894146  1
  In  In13  1  0.50044439  0.48014157  0.32772790  1
  In  In14  1  0.16000119  0.00006182  0.16016852  1
  In  In15  1  0.48381308  0.33853808  0.84837895  1
  In  In16  1  0.64170815  0.00236760  -0.00580726  1
  In  In17  1  0.17994974  0.81609104  -0.01744873  1
  In  In18  1  0.82163733  0.83354860  0.67184569  1
  In  In19  1  0.17553931  0.33254318  0.50558745  1
  In  In20  1  0.81195705  0.49660076  0.32694109  1
  In  In21  1  0.03682319  0.66397972  0.66068786  1
  In  In22  1  0.16623424  -0.00029721  0.51423420  1
  In  In23  1  0.80997372  0.81325910  0.01604836  1
  In  In24  1  0.15658805  0.83485236  0.34702075  1
  In  In25  1  0.66191498  0.66289532  0.31349600  1
  In  In26  1  0.33791705  0.65958450  0.33210736  1
  In  In27  1  0.34228891  0.16172776  0.11851795  1
  In  In28  1  0.01138312  0.50773518  0.50852500  1
  In  In29  1  0.15998510  0.17874838  0.32039553  1
  In  In30  1  0.65583028  0.16765053  0.49597451  1
  In  In31  1  0.33468452  0.34526236  0.68514774  1
  In  In32  1  0.66120329  0.16960183  0.85415808  1
  In  In33  1  0.35140874  0.83007878  0.15285497  1
  In  In34  1  -0.02826944  0.49621173  0.16065347  1
  In  In35  1  0.48384586  0.16564285  0.67673827  1
  In  In36  1  0.50014439  0.65522796  0.83039421  1
  In  In37  1  0.64899219  0.84514346  0.49419724  1
  In  In38  1  0.50252434  0.15142881  0.33845029  1
  In  In39  1  0.31223790  0.33752765  -0.01340853  1
  In  In40  1  0.65564391  -0.01834283  0.67007452  1
  In  In41  1  0.33302318  0.82717609  0.84381113  1
  In  In42  1  0.18822347  0.17531533  0.68734885  1
  In  In43  1  0.85019630  0.83957629  0.32491076  1
  In  In44  1  0.19125313  0.80244582  0.65638505  1
  In  In45  1  0.68265158  0.81714221  0.15291247  1
  In  In46  1  0.01164527  -0.00327038  0.01613297  1
  In  In47  1  0.83714893  0.18784310  -0.00777781  1
  In  In48  1  0.65827660  0.17766381  0.17791156  1
  In  In49  1  0.50127471  0.84223781  0.67290541  1
  In  In50  1  0.34056321  0.33249791  0.34170862  1
  In  In51  1  0.83577126  0.34561533  0.48318879  1
  In  In52  1  0.82403078  0.50453457  0.00687392  1
  In  In53  1  0.51445485  0.53874777  0.00949473  1
  In  In54  1  0.34513165  -0.00847214  0.66572137  1
  In  In55  1  0.82692388  0.66532405  0.51751442  1
  In  In56  1  0.02300799  0.16919192  0.51305606  1
  In  In57  1  0.81487794  -0.00065915  0.18213069  1
  In  In58  1  0.82453033  0.00088804  0.84338188  1
  In  In59  1  0.19828346  0.03620880  0.85483028  1
  In  In60  1  0.67428525  0.63690226  0.68449443  1
  In  In61  1  0.66915403  0.32791338  0.01087931  1
  In  In62  1  0.66927763  0.35877655  0.65947205  1
  In  In63  1  0.51000530  0.84837782  0.33192058  1
  In  In64  1  0.02809312  0.48204499  0.81732358  1
  In  In65  1  0.81598838  0.17649082  0.33199523  1
  In  In66  1  0.01430332  0.33403316  -0.00813911  1
  In  In67  1  -0.00677391  0.69645098  0.32610359  1
  In  In68  1  0.82038170  0.65934444  0.84811491  1
  In  In69  1  0.32606605  -0.00101273  0.35838608  1
  In  In70  1  0.49943913  0.81990573  -0.00379250  1
  In  In71  1  0.17030376  0.49603725  -0.02074816  1
  Te  Te72  1  0.10649487  0.10603212  0.06255238  1
  Te  Te73  1  0.08687543  0.07598586  0.40873828  1
  Te  Te74  1  0.08882264  0.07902458  0.75129882  1
  Te  Te75  1  0.08832284  0.42650409  0.08817407  1
  Te  Te76  1  0.07251525  0.40147321  0.41619345  1
  Te  Te77  1  0.08508330  0.39162565  0.71716610  1
  Te  Te78  1  0.07663717  0.73945914  0.06768767  1
  Te  Te79  1  0.09596849  0.72608567  0.43667501  1
  Te  Te80  1  0.11652189  0.73275921  0.77190541  1
  Te  Te81  1  0.40270714  0.04876588  0.04602800  1
  Te  Te82  1  0.41031790  0.09143739  0.43621434  1
  Te  Te83  1  0.40360453  0.08203173  0.76740292  1
  Te  Te84  1  0.42051244  0.41716301  0.07422608  1
  Te  Te85  1  0.40123245  0.43461114  0.43476735  1
  Te  Te86  1  0.42635736  0.44057792  0.75554936  1
  Te  Te87  1  0.41308711  0.72471696  0.07204496  1
  Te  Te88  1  0.42031060  0.75590321  0.41667644  1
  Te  Te89  1  0.40873572  0.74230844  0.74067367  1
  Te  Te90  1  0.75349967  0.08557028  0.06914412  1
  Te  Te91  1  0.73931329  0.07994918  0.41201058  1
  Te  Te92  1  0.74480163  0.09096299  0.74613818  1
  Te  Te93  1  0.75533690  0.40866037  0.09903906  1
  Te  Te94  1  0.72607971  0.42297463  0.42282934  1
  Te  Te95  1  0.73698088  0.43440832  0.76843806  1
  Te  Te96  1  0.70431125  0.70589988  0.04895376  1
  Te  Te97  1  0.75068742  0.74818438  0.41425035  1
  Te  Te98  1  0.73153092  0.75494284  0.76329947  1
  Te  Te99  1  0.07353040  0.26918842  0.24391738  1
  Te  Te100  1  0.08057981  0.26984477  0.61589723  1
  Te  Te101  1  0.11548168  0.25859749  0.91267603  1
  Te  Te102  1  0.07892878  0.58303813  0.26143561  1
  Te  Te103  1  0.11507248  0.54554231  0.61154608  1
  Te  Te104  1  0.08225229  0.58810213  0.90255938  1
  Te  Te105  1  0.06955139  0.92618051  0.25970095  1
  Te  Te106  1  0.08755956  0.90281640  0.60125089  1
  Te  Te107  1  0.08607081  0.92038259  0.90752950  1
  Te  Te108  1  0.41523020  0.24703867  0.24013844  1
  Te  Te109  1  0.40572968  0.25594135  0.58178007  1
  Te  Te110  1  0.39972751  0.23595287  0.91648130  1
  Te  Te111  1  0.43352983  0.58677132  0.23835266  1
  Te  Te112  1  0.39316779  0.57997383  0.61012671  1
  Te  Te113  1  0.40616349  0.57809187  0.91701682  1
  Te  Te114  1  0.41136827  0.93151739  0.24864473  1
  Te  Te115  1  0.41765497  0.90601828  0.56989223  1
  Te  Te116  1  0.41391119  0.92210030  0.92622269  1
  Te  Te117  1  0.75477973  0.27168576  0.23562036  1
  Te  Te118  1  0.75372875  0.24899685  0.58339070  1
  Te  Te119  1  0.76052842  0.27732487  0.89665153  1
  Te  Te120  1  0.73774664  0.57392368  0.21923108  1
  Te  Te121  1  0.73278502  0.55847840  0.56453090  1
  Te  Te122  1  0.72685720  0.56276601  0.90819927  1
  Te  Te123  1  0.72772876  0.91132807  0.26837727  1
  Te  Te124  1  0.75660331  0.92535569  0.56906421  1
  Te  Te125  1  0.73434641  0.90536935  0.91822958  1
  Te  Te126  1  0.24240008  0.26656820  0.09636230  1
  Te  Te127  1  0.25794265  0.23400857  0.42427241  1
  Te  Te128  1  0.25298557  0.26678297  0.78545108  1
  Te  Te129  1  0.26562853  0.57993039  0.06865429  1
  Te  Te130  1  0.25305726  0.59031260  0.43125860  1
  Te  Te131  1  0.27656456  0.61866592  0.69912788  1
  Te  Te132  1  0.25245246  0.91590184  0.07208355  1
  Te  Te133  1  0.25541139  0.89467402  0.44587266  1
  Te  Te134  1  0.23985590  0.91967346  0.75510848  1
  Te  Te135  1  0.56857326  0.22559484  0.06306370  1
  Te  Te136  1  0.58792881  0.26445730  0.39828108  1
  Te  Te137  1  0.58348656  0.25948225  0.74856678  1
  Te  Te138  1  0.62159163  0.58381339  0.10232637  1
  Te  Te139  1  0.57323425  0.58725767  0.41234553  1
  Te  Te140  1  0.56348464  0.55284157  0.73774340  1
  Te  Te141  1  0.57734245  0.91345850  0.09749136  1
  Te  Te142  1  0.57106978  0.94749883  0.42345306  1
  Te  Te143  1  0.57262910  0.92122014  0.77498547  1
  Te  Te144  1  0.91188012  0.27349273  0.09033839  1
  Te  Te145  1  0.92627660  0.24286641  0.41737810  1
  Te  Te146  1  0.91092794  0.27690434  0.76319004  1
  Te  Te147  1  0.91789381  0.60008463  0.07206564  1
  Te  Te148  1  0.91478736  0.59067156  0.41617522  1
  Te  Te149  1  0.92002505  0.60225039  0.74372967  1
  Te  Te150  1  0.90985765  0.91160273  0.09168448  1
  Te  Te151  1  0.91364914  0.93448792  0.41746592  1
  Te  Te152  1  0.91572433  0.93259198  0.74129246  1
  Te  Te153  1  0.25905594  0.08266355  0.24415892  1
  Te  Te154  1  0.26260942  0.09378874  0.58354151  1
  Te  Te155  1  0.29475237  0.10476484  0.95336176  1
  Te  Te156  1  0.23818432  0.40040038  0.24888978  1
  Te  Te157  1  0.24128397  0.42793578  0.59919669  1
  Te  Te158  1  0.24945339  0.41994384  0.87779780  1
  Te  Te159  1  0.23919054  0.75568121  0.24368618  1
  Te  Te160  1  0.27736000  0.70828960  0.57861147  1
  Te  Te161  1  0.26469197  0.71612036  0.91523159  1
  Te  Te162  1  0.57394963  0.07309730  0.23583674  1
  Te  Te163  1  0.56999183  0.07741382  0.58628822  1
  Te  Te164  1  0.55565108  0.07848519  0.89999048  1
  Te  Te165  1  0.60334855  0.41876324  0.24150360  1
  Te  Te166  1  0.56251032  0.44077016  0.59513976  1
  Te  Te167  1  0.58104787  0.42295945  0.92987775  1
  Te  Te168  1  0.56733188  0.74939247  0.23135539  1
  Te  Te169  1  0.59575652  0.73885094  0.58997117  1
  Te  Te170  1  0.59272045  0.74121121  0.91054501  1
  Te  Te171  1  0.91788346  0.08618009  0.25034803  1
  Te  Te172  1  0.92987277  0.07639146  0.58059348  1
  Te  Te173  1  0.92888076  0.08774548  0.91747182  1
  Te  Te174  1  0.91907025  0.41284619  0.26961141  1
  Te  Te175  1  0.91989292  0.41540003  0.58934413  1
  Te  Te176  1  0.92355046  0.42587481  0.91225310  1
  Te  Te177  1  0.88379663  0.72941834  0.22321276  1
  Te  Te178  1  0.92717031  0.75500624  0.58840923  1
  Te  Te179  1  0.91531465  0.75885251  0.91667346  1
