# generated using pymatgen
data_In2Te3
_symmetry_space_group_name_H-M   'P 1'
_cell_length_a   18.74526537
_cell_length_b   18.74327213
_cell_length_c   18.74328044
_cell_angle_alpha   90.06597466
_cell_angle_beta   90.04635346
_cell_angle_gamma   89.95353550
_symmetry_Int_Tables_number   1
_chemical_formula_structural   In2Te3
_chemical_formula_sum   'In72 Te108'
_cell_volume   6585.39810667
_cell_formula_units_Z   36
loop_
 _symmetry_equiv_pos_site_id
 _symmetry_equiv_pos_as_xyz
  1  'x, y, z'
loop_
 _atom_site_type_symbol
 _atom_site_label
 _atom_site_symmetry_multiplicity
 _atom_site_fract_x
 _atom_site_fract_y
 _atom_site_fract_z
 _atom_site_occupancy
  In  In0  1  0.80586756  0.68563330  0.15693424  1
  In  In1  1  0.82598136  0.01359404  0.82432141  1
  In  In2  1  0.17949750  0.16358172  0.34333459  1
  In  In3  1  0.34477760  -0.02395159  -0.01046360  1
  In  In4  1  0.49777990  0.32923643  0.16328213  1
  In  In5  1  0.66928220  0.32106035  -0.00214348  1
  In  In6  1  0.16631997  0.85487870  -0.00582599  1
  In  In7  1  0.18327009  0.68632017  0.84692215  1
  In  In8  1  0.67289132  0.33237379  0.33055773  1
  In  In9  1  0.85289771  0.18937268  0.36070442  1
  In  In10  1  0.82569395  0.15924493  -0.01447500  1
  In  In11  1  0.35089942  0.81428035  0.48660973  1
  In  In12  1  0.37503588  -0.01633916  0.31547335  1
  In  In13  1  0.50112259  0.86175836  0.66615541  1
  In  In14  1  0.64959717  0.86825477  0.48077938  1
  In  In15  1  0.82682699  0.83774114  0.64797418  1
  In  In16  1  0.50965584  0.68503616  0.83193770  1
  In  In17  1  0.16453526  -0.00254609  0.50323246  1
  In  In18  1  0.36031760  0.32374317  0.00230974  1
  In  In19  1  0.51873851  0.12117732  0.32406275  1
  In  In20  1  0.82078095  0.31295352  0.16750988  1
  In  In21  1  0.83287868  0.66161092  0.50535226  1
  In  In22  1  0.00666960  0.49325847  0.18234266  1
  In  In23  1  0.83033508  -0.00411173  0.50057142  1
  In  In24  1  0.34151687  0.52089542  0.50385094  1
  In  In25  1  0.64093326  -0.01449183  0.01334093  1
  In  In26  1  0.51058813  0.31302405  0.83770928  1
  In  In27  1  0.67738903  0.32415684  0.68316355  1
  In  In28  1  0.64851911  0.84144700  0.83723056  1
  In  In29  1  0.49850079  0.52585872  0.31203933  1
  In  In30  1  -0.00275463  0.67772283  0.32540689  1
  In  In31  1  -0.01054716  0.31047839  0.65471490  1
  In  In32  1  0.00024887  -0.01027024  0.34609919  1
  In  In33  1  0.81786033  0.49900711  -0.01742120  1
  In  In34  1  0.81422899  0.81088012  0.02724031  1
  In  In35  1  0.64873599  0.67625700  0.67406350  1
  In  In36  1  0.18190730  0.81711504  0.31482502  1
  In  In37  1  0.34013507  -0.01038913  0.67608365  1
  In  In38  1  0.17184644  0.30377737  0.82348954  1
  In  In39  1  0.15562156  0.31807145  0.50196953  1
  In  In40  1  0.34164497  0.15713071  0.16645187  1
  In  In41  1  0.50920213  0.68128049  0.14916973  1
  In  In42  1  0.17688276  0.51579012  0.67049418  1
  In  In43  1  0.16835972  0.68522981  0.50996304  1
  In  In44  1  0.01713402  -0.00437986  -0.01822766  1
  In  In45  1  0.32314733  0.30031262  0.67559787  1
  In  In46  1  0.83100588  0.46396143  0.67366481  1
  In  In47  1  -0.01913911  0.48344591  0.83777303  1
  In  In48  1  0.65038722  0.14849784  0.51883824  1
  In  In49  1  0.82781546  0.50439955  0.32995283  1
  In  In50  1  0.00372284  0.14896465  0.16128586  1
  In  In51  1  0.48560539  0.32151709  0.52018110  1
  In  In52  1  0.83121075  0.16855734  0.67318889  1
  In  In53  1  0.02271798  0.66541535  0.66179857  1
  In  In54  1  0.65078852  0.67408286  0.33687995  1
  In  In55  1  0.33743584  0.51218801  0.83221989  1
  In  In56  1  0.34211170  0.68277863  -0.00037187  1
  In  In57  1  0.15341206  0.49500448  0.35078866  1
  In  In58  1  0.30595682  0.33601060  0.34631649  1
  In  In59  1  0.14179871  0.33805239  0.16222183  1
  In  In60  1  0.66536326  0.50337517  0.46849622  1
  In  In61  1  0.17760267  0.49229695  0.02103402  1
  In  In62  1  0.03038511  0.02838024  0.67376732  1
  In  In63  1  0.49424848  0.51801572  0.66029486  1
  In  In64  1  0.81039150  0.63233555  0.85361636  1
  In  In65  1  0.50228178  0.16627263  -0.01606879  1
  In  In66  1  0.00223365  0.82615377  0.17169980  1
  In  In67  1  0.01605603  0.83663507  0.83719839  1
  In  In68  1  0.80444437  -0.03221817  0.18110173  1
  In  In69  1  0.00465458  0.66574435  0.00775814  1
  In  In70  1  0.16968892  0.15185101  -0.03063171  1
  In  In71  1  0.36579146  0.52158842  0.17534854  1
  Te  Te72  1  0.10828690  0.06920130  0.08299846  1
  Te  Te73  1  0.07128834  0.09637297  0.42799689  1
  Te  Te74  1  0.10236507  0.10458775  0.77778219  1
  Te  Te75  1  0.05356196  0.41209958  0.06044538  1
  Te  Te76  1  0.06093895  0.38934207  0.40685104  1
  Te  Te77  1  0.08900255  0.41679349  0.74737845  1
  Te  Te78  1  0.10408221  0.74831169  0.08734896  1
  Te  Te79  1  0.07863800  0.76878411  0.41693099  1
  Te  Te80  1  0.10932970  0.76612094  0.73726454  1
  Te  Te81  1  0.43312653  0.07135633  0.08378060  1
  Te  Te82  1  0.41068518  0.08683624  0.41718047  1
  Te  Te83  1  0.44597128  0.08814270  0.72175610  1
  Te  Te84  1  0.43974930  0.43644243  0.06952204  1
  Te  Te85  1  0.42269358  0.42230505  0.40946076  1
  Te  Te86  1  0.41108504  0.41062159  0.74156990  1
  Te  Te87  1  0.41950872  0.78204125  0.08161121  1
  Te  Te88  1  0.43989542  0.73921801  0.39620132  1
  Te  Te89  1  0.41701384  0.77179711  0.75280355  1
  Te  Te90  1  0.74768320  0.07265485  0.08489747  1
  Te  Te91  1  0.74733815  0.09051759  0.41415124  1
  Te  Te92  1  0.72797003  0.08610587  0.74201367  1
  Te  Te93  1  0.74340309  0.41896329  0.09224808  1
  Te  Te94  1  0.76889035  0.40076653  0.42820484  1
  Te  Te95  1  0.73753137  0.42143009  0.77890126  1
  Te  Te96  1  0.69090519  0.75931050  0.09434283  1
  Te  Te97  1  0.74541556  0.75723429  0.42466846  1
  Te  Te98  1  0.75587617  0.75278999  0.75631927  1
  Te  Te99  1  0.07551355  0.24290758  0.25945323  1
  Te  Te100  1  0.09126404  0.22163817  0.59382915  1
  Te  Te101  1  0.07755015  0.25917889  0.92746986  1
  Te  Te102  1  0.09920858  0.59550218  0.24558967  1
  Te  Te103  1  0.08265248  0.56592324  0.56151207  1
  Te  Te104  1  0.08871728  0.58047806  0.90632584  1
  Te  Te105  1  0.09262106  0.92487934  0.24362645  1
  Te  Te106  1  0.07647336  0.91564306  0.59043984  1
  Te  Te107  1  0.12482089  0.94880914  0.87094676  1
  Te  Te108  1  0.41385104  0.25148947  0.26467588  1
  Te  Te109  1  0.42357937  0.21145120  0.60340612  1
  Te  Te110  1  0.39033206  0.22784903  0.88705511  1
  Te  Te111  1  0.39426804  0.64182985  0.27682135  1
  Te  Te112  1  0.41161483  0.61827761  0.59053449  1
  Te  Te113  1  0.43243010  0.58462643  0.92536170  1
  Te  Te114  1  0.44071972  0.88456971  0.22434647  1
  Te  Te115  1  0.42435627  0.93148651  0.55309638  1
  Te  Te116  1  0.40886628  0.88506616  0.88701819  1
  Te  Te117  1  0.73869719  0.21898781  0.25298278  1
  Te  Te118  1  0.75110739  0.25181036  0.57038103  1
  Te  Te119  1  0.73694041  0.23641592  0.89690646  1
  Te  Te120  1  0.73037591  0.58187085  0.24380892  1
  Te  Te121  1  0.73857541  0.57710987  0.59208762  1
  Te  Te122  1  0.70485717  0.59774675  0.95478547  1
  Te  Te123  1  0.70447318  0.91379877  0.27749475  1
  Te  Te124  1  0.72447888  0.93789367  0.59646451  1
  Te  Te125  1  0.76111384  0.91635823  0.92452646  1
  Te  Te126  1  0.25168042  0.25705094  0.08818305  1
  Te  Te127  1  0.27156005  0.22878799  0.44731940  1
  Te  Te128  1  0.22500378  0.19496848  0.73042312  1
  Te  Te129  1  0.25605806  0.59810622  0.09467922  1
  Te  Te130  1  0.24838248  0.59879722  0.41084786  1
  Te  Te131  1  0.27031571  0.61364726  0.74011852  1
  Te  Te132  1  0.25356547  0.92060195  0.09343198  1
  Te  Te133  1  0.25654194  0.91939651  0.40595446  1
  Te  Te134  1  0.24979608  0.92988524  0.77870714  1
  Te  Te135  1  0.58897556  0.22940766  0.09429908  1
  Te  Te136  1  0.57526213  0.24956415  0.41644524  1
  Te  Te137  1  0.58059947  0.22685588  0.73956430  1
  Te  Te138  1  0.61012137  0.59734612  0.08331257  1
  Te  Te139  1  0.55637404  0.60286766  0.43758362  1
  Te  Te140  1  0.59134648  0.56952396  0.76656653  1
  Te  Te141  1  0.55306339  0.92925471  0.11992114  1
  Te  Te142  1  0.58285510  0.95920806  0.38159877  1
  Te  Te143  1  0.58042090  0.94884789  0.76034034  1
  Te  Te144  1  0.91997387  0.24316915  0.07493220  1
  Te  Te145  1  0.94288633  0.28205550  0.42983617  1
  Te  Te146  1  0.90842636  0.25639010  0.76547811  1
  Te  Te147  1  0.90916894  0.58179232  0.09295150  1
  Te  Te148  1  0.92822339  0.57762683  0.41859631  1
  Te  Te149  1  0.91458774  0.58989920  0.74027467  1
  Te  Te150  1  0.92258601  0.92117864  0.07802690  1
  Te  Te151  1  0.90364605  0.90128053  0.41348914  1
  Te  Te152  1  0.92155979  0.91684504  0.74321020  1
  Te  Te153  1  0.25502141  0.06744442  0.25276393  1
  Te  Te154  1  0.24950376  0.07951087  0.59492993  1
  Te  Te155  1  0.29159826  0.09239791  0.90866013  1
  Te  Te156  1  0.25073980  0.42771355  0.23575967  1
  Te  Te157  1  0.25865435  0.41275263  0.58145564  1
  Te  Te158  1  0.25232555  0.41240502  0.91303518  1
  Te  Te159  1  0.27756941  0.74092810  0.23447087  1
  Te  Te160  1  0.25558660  0.77086221  0.59218882  1
  Te  Te161  1  0.28538091  0.79399731  0.89975976  1
  Te  Te162  1  0.60044642  0.02974304  0.23542013  1
  Te  Te163  1  0.54220585  0.08248399  0.59682789  1
  Te  Te164  1  0.57819132  0.06518935  0.90500125  1
  Te  Te165  1  0.59092073  0.42460092  0.24005189  1
  Te  Te166  1  0.58878304  0.41963877  0.58001356  1
  Te  Te167  1  0.57591940  0.41199216  0.92427242  1
  Te  Te168  1  0.56093783  0.77044071  0.26349812  1
  Te  Te169  1  0.57904908  0.76447336  0.57416866  1
  Te  Te170  1  0.57060561  0.76953996  0.93939079  1
  Te  Te171  1  0.90451304  0.07464084  0.25177197  1
  Te  Te172  1  0.92227788  0.08815371  0.58045104  1
  Te  Te173  1  0.93443848  0.09282080  0.89815793  1
  Te  Te174  1  0.91232078  0.39938736  0.25591212  1
  Te  Te175  1  0.92275124  0.41374642  0.57003637  1
  Te  Te176  1  0.88954054  0.39133933  0.90797990  1
  Te  Te177  1  0.89081643  0.76577872  0.25758057  1
  Te  Te178  1  0.93300103  0.75560573  0.57382797  1
  Te  Te179  1  0.91483402  0.74727288  0.91454448  1
