# generated using pymatgen
data_In2Te3
_symmetry_space_group_name_H-M   'P 1'
_cell_length_a   18.96464210
_cell_length_b   18.96881275
_cell_length_c   18.98844985
_cell_angle_alpha   90.01586970
_cell_angle_beta   90.06572967
_cell_angle_gamma   89.95001017
_symmetry_Int_Tables_number   1
_chemical_formula_structural   In2Te3
_chemical_formula_sum   'In72 Te108'
_cell_volume   6830.83578439
_cell_formula_units_Z   36
loop_
 _symmetry_equiv_pos_site_id
 _symmetry_equiv_pos_as_xyz
  1  'x, y, z'
loop_
 _atom_site_type_symbol
 _atom_site_label
 _atom_site_symmetry_multiplicity
 _atom_site_fract_x
 _atom_site_fract_y
 _atom_site_fract_z
 _atom_site_occupancy
  In  In0  1  0.65720108  -0.01979979  0.33172194  1
  In  In1  1  0.67063261  0.65071527  0.66409357  1
  In  In2  1  0.88831013  0.91454136  -0.01695074  1
  In  In3  1  0.17523623  -0.00180786  0.83862260  1
  In  In4  1  0.68882266  0.82790359  0.17364587  1
  In  In5  1  0.51501289  0.84262737  0.66547126  1
  In  In6  1  0.31642659  0.65958399  0.63520023  1
  In  In7  1  0.48553066  0.00357743  0.15366321  1
  In  In8  1  0.01516123  0.51399975  0.81409947  1
  In  In9  1  0.30892577  0.49609277  0.18660052  1
  In  In10  1  0.16134282  0.02335222  0.15296442  1
  In  In11  1  -0.00201968  -0.00891434  0.66873151  1
  In  In12  1  0.82060919  0.49304266  0.64730637  1
  In  In13  1  0.66657963  0.82977721  0.51180966  1
  In  In14  1  0.49368516  0.33217370  0.16024768  1
  In  In15  1  0.83496290  0.50542503  0.02845732  1
  In  In16  1  0.47801244  0.17768960  0.01517891  1
  In  In17  1  0.31478465  0.32849513  0.01257476  1
  In  In18  1  0.66988067  0.47816636  0.85378964  1
  In  In19  1  0.69478258  0.00774506  -0.00693415  1
  In  In20  1  0.52350329  0.00355126  0.82320217  1
  In  In21  1  0.50221868  0.33594464  0.81899667  1
  In  In22  1  0.82941675  0.32131853  0.19115974  1
  In  In23  1  0.15636294  0.68337244  0.15004640  1
  In  In24  1  0.00221395  0.16515892  0.16486533  1
  In  In25  1  0.30023994  0.63476409  0.36635264  1
  In  In26  1  0.85923059  0.81129087  0.66547658  1
  In  In27  1  0.35102629  0.18232418  0.50019809  1
  In  In28  1  0.15490267  0.51257775  -0.01272197  1
  In  In29  1  0.66184329  0.34406166  0.34205592  1
  In  In30  1  0.31632444  0.81806962  0.50743772  1
  In  In31  1  0.16122275  0.17356789  -0.02342940  1
  In  In32  1  0.16028165  0.50031395  0.65643848  1
  In  In33  1  0.83750983  0.65076457  0.17540781  1
  In  In34  1  0.54458026  0.14718782  0.66551030  1
  In  In35  1  0.02581989  0.33391108  -0.00733694  1
  In  In36  1  0.67759655  0.30578780  -0.01066482  1
  In  In37  1  0.50845608  0.17862500  0.32375201  1
  In  In38  1  -0.00405814  0.63726670  0.36101464  1
  In  In39  1  0.87506075  0.13320974  -0.00839523  1
  In  In40  1  0.49888806  0.01720459  0.49119507  1
  In  In41  1  -0.00346657  0.50561720  0.16589758  1
  In  In42  1  0.17650155  0.17698566  0.65657634  1
  In  In43  1  0.64812804  0.69085285  -0.00252692  1
  In  In44  1  0.01156759  0.02219901  0.32722252  1
  In  In45  1  0.00901771  0.67035005  0.67278712  1
  In  In46  1  0.32884854  0.32788206  0.64807506  1
  In  In47  1  0.47819013  0.67113064  0.16824936  1
  In  In48  1  0.66691607  0.65853830  0.33510365  1
  In  In49  1  0.66442574  0.30065189  0.66167379  1
  In  In50  1  0.84802285  -0.00483354  0.48167932  1
  In  In51  1  0.32508045  0.85356556  0.16904229  1
  In  In52  1  0.49223731  0.84058604  -0.00705118  1
  In  In53  1  0.35767404  0.37033135  0.36925406  1
  In  In54  1  0.32413391  -0.00802770  0.70034860  1
  In  In55  1  0.31059166  0.83530279  0.84268031  1
  In  In56  1  0.85089168  0.69783069  0.84817437  1
  In  In57  1  0.85475004  0.31958930  0.84747551  1
  In  In58  1  0.16482509  -0.03444472  0.52479587  1
  In  In59  1  0.14873169  0.81979126  0.33622850  1
  In  In60  1  0.02640708  0.34834976  0.36021128  1
  In  In61  1  0.49136833  0.52675678  0.65501044  1
  In  In62  1  0.32042829  0.51671835  0.84552726  1
  In  In63  1  0.84991910  0.84415948  0.32106805  1
  In  In64  1  0.68261616  0.18532480  0.49056573  1
  In  In65  1  0.16974776  0.17557391  0.33562994  1
  In  In66  1  0.46857359  0.67559159  0.82969154  1
  In  In67  1  0.65611449  0.51521083  0.17933680  1
  In  In68  1  0.66910256  0.49379433  0.49408585  1
  In  In69  1  0.15914423  0.83135514  -0.00058671  1
  In  In70  1  -0.00207985  0.17538685  0.51425771  1
  In  In71  1  -0.00933798  0.33115066  0.67502583  1
  Te  Te72  1  0.06032175  0.08021999  0.05636298  1
  Te  Te73  1  0.09858440  0.07920284  0.44515353  1
  Te  Te74  1  0.09360581  0.08309705  0.74222807  1
  Te  Te75  1  0.09876972  0.41943475  0.09376813  1
  Te  Te76  1  0.08181639  0.46299290  0.43762945  1
  Te  Te77  1  0.09772437  0.40307881  0.75668769  1
  Te  Te78  1  0.05305389  0.77938201  0.09399098  1
  Te  Te79  1  0.10021430  0.71849066  0.43332507  1
  Te  Te80  1  0.08001457  0.79166382  0.71762488  1
  Te  Te81  1  0.39088508  0.10373879  0.10558651  1
  Te  Te82  1  0.40731152  0.08807775  0.39514896  1
  Te  Te83  1  0.42537104  0.09169148  0.74822135  1
  Te  Te84  1  0.40225475  0.42753410  0.08676509  1
  Te  Te85  1  0.44292190  0.46531631  0.44293603  1
  Te  Te86  1  0.40991517  0.43379004  0.74483610  1
  Te  Te87  1  0.39696746  0.75578869  0.07253292  1
  Te  Te88  1  0.39526241  0.73665099  0.41576252  1
  Te  Te89  1  0.39820301  0.75712508  0.72349449  1
  Te  Te90  1  0.77972227  0.07933712  0.08769614  1
  Te  Te91  1  0.74955915  0.07795415  0.40236411  1
  Te  Te92  1  0.67105957  0.09342797  0.72725396  1
  Te  Te93  1  0.73207584  0.41197864  0.08930255  1
  Te  Te94  1  0.76563220  0.40563783  0.42714449  1
  Te  Te95  1  0.75437979  0.39945991  0.75649154  1
  Te  Te96  1  0.76777811  0.74383699  0.07643123  1
  Te  Te97  1  0.75229008  0.76258359  0.40478255  1
  Te  Te98  1  0.74499507  0.74813759  0.75129497  1
  Te  Te99  1  0.08604030  0.26180167  0.24431528  1
  Te  Te100  1  0.09508399  0.27342041  0.57483148  1
  Te  Te101  1  0.05478821  0.23252882  0.89213265  1
  Te  Te102  1  0.09054313  0.58969343  0.24864296  1
  Te  Te103  1  0.04340090  0.55439770  0.58102739  1
  Te  Te104  1  0.08545694  0.60870546  0.90007311  1
  Te  Te105  1  0.08518523  0.92108229  0.24043797  1
  Te  Te106  1  0.06171361  0.87879685  0.58968014  1
  Te  Te107  1  0.07827370  0.90367154  0.89708858  1
  Te  Te108  1  0.40243342  0.26680286  0.26040592  1
  Te  Te109  1  0.44583068  0.24776762  0.59638377  1
  Te  Te110  1  0.40696741  0.26023076  0.90974768  1
  Te  Te111  1  0.40599170  0.58180503  0.26524949  1
  Te  Te112  1  0.40590541  0.57875612  0.54366893  1
  Te  Te113  1  0.42196635  0.58061960  0.92882608  1
  Te  Te114  1  0.42910123  0.91193412  0.25242805  1
  Te  Te115  1  0.41820938  0.93243332  0.58877761  1
  Te  Te116  1  0.41130731  0.92990437  0.90198603  1
  Te  Te117  1  0.72893124  0.24259895  0.25913970  1
  Te  Te118  1  0.77578582  0.24947372  0.58364380  1
  Te  Te119  1  0.76776990  0.21362265  0.91294206  1
  Te  Te120  1  0.77147586  0.55273741  0.27494627  1
  Te  Te121  1  0.76339998  0.60124687  0.55741275  1
  Te  Te122  1  0.74645650  0.58558457  0.93086121  1
  Te  Te123  1  0.77080927  0.93875065  0.23486125  1
  Te  Te124  1  0.77262751  0.90924022  0.58137050  1
  Te  Te125  1  0.75305643  0.89329712  0.92471724  1
  Te  Te126  1  0.22312179  0.24575863  0.08937329  1
  Te  Te127  1  0.25205233  0.26671642  0.42573072  1
  Te  Te128  1  0.26223741  0.24875193  0.75022802  1
  Te  Te129  1  0.25012529  0.58782504  0.07943730  1
  Te  Te130  1  0.22484795  0.52097349  0.43012821  1
  Te  Te131  1  0.23660313  0.59695896  0.74717904  1
  Te  Te132  1  0.24961952  0.93347372  0.06630875  1
  Te  Te133  1  0.24661583  0.91152492  0.40930576  1
  Te  Te134  1  0.22584072  0.88032043  0.72555926  1
  Te  Te135  1  0.59325597  0.23799259  0.09577515  1
  Te  Te136  1  0.56695310  0.26448620  0.43327914  1
  Te  Te137  1  0.60908249  0.23375855  0.78872968  1
  Te  Te138  1  0.57037850  0.58830695  0.07808117  1
  Te  Te139  1  0.57296121  0.57025835  0.40874065  1
  Te  Te140  1  0.58520175  0.57767892  0.77191715  1
  Te  Te141  1  0.59342992  0.90669543  0.08363060  1
  Te  Te142  1  0.56573099  0.89881085  0.42068084  1
  Te  Te143  1  0.61396617  0.92522395  0.73615140  1
  Te  Te144  1  0.91206464  0.27009090  0.07559903  1
  Te  Te145  1  0.93145189  0.24004499  0.39948894  1
  Te  Te146  1  0.91863846  0.22843469  0.75255704  1
  Te  Te147  1  0.94043650  0.60568078  0.06665313  1
  Te  Te148  1  0.87664180  0.55864502  0.38901159  1
  Te  Te149  1  0.89052086  0.58120292  0.75655862  1
  Te  Te150  1  0.96137299  0.90200817  0.11008716  1
  Te  Te151  1  0.95119918  0.90875294  0.41293145  1
  Te  Te152  1  0.89656735  0.92526682  0.75518542  1
  Te  Te153  1  0.24577239  0.07579916  0.26126758  1
  Te  Te154  1  0.26723670  0.07521992  0.57895942  1
  Te  Te155  1  0.26206178  0.08577536  0.91502300  1
  Te  Te156  1  0.23960385  0.41736915  0.29044155  1
  Te  Te157  1  0.25998044  0.43246619  0.56813061  1
  Te  Te158  1  0.23534926  0.40948464  0.91010210  1
  Te  Te159  1  0.25438722  0.74216559  0.25352098  1
  Te  Te160  1  0.20989664  0.72509286  0.55473153  1
  Te  Te161  1  0.24106187  0.73555237  0.92147576  1
  Te  Te162  1  0.58667629  0.07904812  0.24097655  1
  Te  Te163  1  0.62428180  0.06184236  0.56081168  1
  Te  Te164  1  0.57528502  0.08298955  0.94060723  1
  Te  Te165  1  0.56410854  0.42556010  0.25704309  1
  Te  Te166  1  0.59203627  0.42515492  0.60606908  1
  Te  Te167  1  0.57029840  0.40297427  0.93844800  1
  Te  Te168  1  0.58227898  0.74967310  0.24786140  1
  Te  Te169  1  0.57228667  0.73090618  0.57954732  1
  Te  Te170  1  0.57469624  0.76748631  0.88870851  1
  Te  Te171  1  0.91295922  0.11596836  0.27165745  1
  Te  Te172  1  0.90451722  0.08426728  0.59044882  1
  Te  Te173  1  0.90628677  0.03140753  0.88892127  1
  Te  Te174  1  0.92415000  0.41413948  0.26152966  1
  Te  Te175  1  0.92199363  0.41625839  0.57532924  1
  Te  Te176  1  0.92217343  0.43499300  0.92287185  1
  Te  Te177  1  0.93152445  0.73544690  0.25748159  1
  Te  Te178  1  0.92155608  0.72316684  0.56574564  1
  Te  Te179  1  0.94516340  0.79235145  0.90720118  1
