# generated using pymatgen
data_In2Te3
_symmetry_space_group_name_H-M   'P 1'
_cell_length_a   18.76309659
_cell_length_b   18.76940570
_cell_length_c   18.75939905
_cell_angle_alpha   90.00637407
_cell_angle_beta   90.03202701
_cell_angle_gamma   90.07141558
_symmetry_Int_Tables_number   1
_chemical_formula_structural   In2Te3
_chemical_formula_sum   'In72 Te108'
_cell_volume   6606.53210499
_cell_formula_units_Z   36
loop_
 _symmetry_equiv_pos_site_id
 _symmetry_equiv_pos_as_xyz
  1  'x, y, z'
loop_
 _atom_site_type_symbol
 _atom_site_label
 _atom_site_symmetry_multiplicity
 _atom_site_fract_x
 _atom_site_fract_y
 _atom_site_fract_z
 _atom_site_occupancy
  In  In0  1  0.00999313  0.50702476  0.16632124  1
  In  In1  1  0.83814849  0.31768701  0.49044981  1
  In  In2  1  0.32694366  0.01472306  -0.01635754  1
  In  In3  1  0.49902343  0.16728320  -0.00869056  1
  In  In4  1  0.00952827  0.82668467  0.52194407  1
  In  In5  1  0.84747355  0.49717112  0.67002959  1
  In  In6  1  0.35149328  -0.01162077  0.67516580  1
  In  In7  1  0.31264608  0.18256719  0.83784642  1
  In  In8  1  0.01729389  0.33962126  0.72023014  1
  In  In9  1  0.16520861  0.32212627  0.16080128  1
  In  In10  1  0.01015002  0.48641567  0.48689075  1
  In  In11  1  0.19917165  0.63694852  0.49112304  1
  In  In12  1  0.67753992  0.84404610  0.51128416  1
  In  In13  1  0.16360177  -0.01974721  0.52100414  1
  In  In14  1  0.84099257  0.00014614  0.52089860  1
  In  In15  1  0.85597596  0.00643674  0.84195560  1
  In  In16  1  0.83747001  0.01036451  0.14995292  1
  In  In17  1  0.14916295  0.82277377  0.32825516  1
  In  In18  1  0.49485159  0.33857570  0.82353026  1
  In  In19  1  0.13505703  0.15844789  0.70364031  1
  In  In20  1  0.50900256  -0.00031627  0.51679114  1
  In  In21  1  0.66197103  0.46457216  0.15839094  1
  In  In22  1  -0.01818394  0.00567342  0.32274026  1
  In  In23  1  0.70022132  0.30360446  -0.03279828  1
  In  In24  1  0.69117741  0.16588868  0.14976566  1
  In  In25  1  0.49135900  0.50755791  0.69277689  1
  In  In26  1  -0.02063101  0.31097148  -0.04343076  1
  In  In27  1  0.67733911  0.65588278  -0.01164281  1
  In  In28  1  0.65579136  0.33909000  0.29615777  1
  In  In29  1  0.30674506  0.65199568  0.68783767  1
  In  In30  1  -0.00507047  0.16667024  0.51581836  1
  In  In31  1  0.34095570  0.16873156  0.51447678  1
  In  In32  1  0.14999384  0.83434715  0.68409154  1
  In  In33  1  0.70141504  0.81187893  0.82381026  1
  In  In34  1  0.68359058  0.50083128  0.83524035  1
  In  In35  1  0.69245592  0.00196711  0.32075979  1
  In  In36  1  0.17110875  0.64563717  0.16684727  1
  In  In37  1  0.18088174  0.37298131  0.51946536  1
  In  In38  1  0.49136796  0.80665360  0.33410301  1
  In  In39  1  0.50763989  0.84179789  0.66014112  1
  In  In40  1  0.46824283  0.64911387  0.18666119  1
  In  In41  1  0.14468151  0.85690948  -0.02989436  1
  In  In42  1  0.47487772  0.50133367  -0.00200077  1
  In  In43  1  0.51053358  0.67025826  0.85070732  1
  In  In44  1  0.65060022  0.87522545  0.13429854  1
  In  In45  1  0.85398109  0.67306421  0.16741031  1
  In  In46  1  0.15256260  0.17864474  0.32283980  1
  In  In47  1  0.31581740  0.83175648  0.84223414  1
  In  In48  1  0.85922063  0.83452456  -0.01142658  1
  In  In49  1  0.48004731  0.34735692  0.15260536  1
  In  In50  1  0.31966527  0.48868583  0.84159431  1
  In  In51  1  0.32645621  -0.01892258  0.31598862  1
  In  In52  1  0.47622402  0.67125244  0.50652722  1
  In  In53  1  0.47068475  0.33252021  0.50019920  1
  In  In54  1  -0.01282953  0.83664605  0.16962407  1
  In  In55  1  0.84696374  0.66611926  0.51229918  1
  In  In56  1  0.01341063  0.65853317  0.67904083  1
  In  In57  1  0.33801086  0.82543261  0.15339355  1
  In  In58  1  0.65688685  0.52079093  0.50650142  1
  In  In59  1  0.83281118  0.49357576  0.32450478  1
  In  In60  1  0.66857307  0.33067575  0.69021079  1
  In  In61  1  0.16704481  0.49927497  -0.00675834  1
  In  In62  1  0.66546502  0.67226722  0.34621649  1
  In  In63  1  0.32930674  0.17750883  0.14008423  1
  In  In64  1  0.49864448  0.00779457  0.86388279  1
  In  In65  1  0.00683220  0.66464680  -0.01581812  1
  In  In66  1  0.83047174  0.33437440  0.14832535  1
  In  In67  1  0.67756768  0.02058791  0.68255829  1
  In  In68  1  0.31705582  0.34842463  0.32012518  1
  In  In69  1  0.13555833  0.04065954  0.11564934  1
  In  In70  1  0.68281511  0.15292180  0.51029790  1
  In  In71  1  0.52572663  0.16090755  0.33315573  1
  Te  Te72  1  0.05194596  0.14014455  0.03681029  1
  Te  Te73  1  0.09037048  0.07281180  0.42233527  1
  Te  Te74  1  0.04834267  0.06931848  0.78627158  1
  Te  Te75  1  0.06323952  0.40499997  0.06568662  1
  Te  Te76  1  0.09926467  0.40565344  0.40138796  1
  Te  Te77  1  0.10335347  0.44483969  0.77845243  1
  Te  Te78  1  0.08554708  0.75457801  0.08380710  1
  Te  Te79  1  0.08739029  0.73108203  0.43332682  1
  Te  Te80  1  0.08904571  0.73951095  0.78105317  1
  Te  Te81  1  0.42746659  0.07090791  0.08970769  1
  Te  Te82  1  0.41635033  0.07570134  0.41236098  1
  Te  Te83  1  0.41706154  0.09125988  0.76491718  1
  Te  Te84  1  0.37820715  0.43189344  0.08739207  1
  Te  Te85  1  0.39609833  0.43223434  0.41864523  1
  Te  Te86  1  0.38721164  0.39959683  0.73231848  1
  Te  Te87  1  0.42552941  0.73562000  0.07540386  1
  Te  Te88  1  0.38602966  0.74700214  0.41753383  1
  Te  Te89  1  0.41833607  0.75084621  0.74709181  1
  Te  Te90  1  0.75486565  0.08092184  0.04733191  1
  Te  Te91  1  0.77905612  0.08961832  0.41017099  1
  Te  Te92  1  0.76294071  0.10525210  0.77182786  1
  Te  Te93  1  0.75825019  0.42357902  0.04762425  1
  Te  Te94  1  0.73721838  0.42103182  0.42146820  1
  Te  Te95  1  0.78137188  0.39672402  0.77554063  1
  Te  Te96  1  0.75816312  0.75693203  0.08022264  1
  Te  Te97  1  0.76672031  0.76020247  0.41887531  1
  Te  Te98  1  0.77286502  0.74703303  0.71611050  1
  Te  Te99  1  0.05966999  0.23780251  0.22576253  1
  Te  Te100  1  0.08961951  0.26114201  0.59280157  1
  Te  Te101  1  0.09157226  0.22110735  0.91010667  1
  Te  Te102  1  0.08066574  0.58766059  0.26793892  1
  Te  Te103  1  0.09456972  0.57029483  0.58290731  1
  Te  Te104  1  0.06052161  0.55074945  0.89809075  1
  Te  Te105  1  0.09200325  0.93453169  0.23960858  1
  Te  Te106  1  0.05274083  0.93937437  0.61652879  1
  Te  Te107  1  0.05274605  0.93405467  0.87745915  1
  Te  Te108  1  0.41908345  0.24220369  0.25779284  1
  Te  Te109  1  0.42883538  0.24121962  0.60790532  1
  Te  Te110  1  0.40645432  0.26842322  0.92741356  1
  Te  Te111  1  0.37141201  0.57668841  0.26886351  1
  Te  Te112  1  0.39483859  0.56868461  0.58834707  1
  Te  Te113  1  0.39269721  0.60269322  0.91701765  1
  Te  Te114  1  0.43552570  0.91250261  0.23746151  1
  Te  Te115  1  0.40378091  0.89836238  0.56283179  1
  Te  Te116  1  0.41817910  0.89850842  0.93487295  1
  Te  Te117  1  0.76435524  0.24280101  0.26038382  1
  Te  Te118  1  0.76450887  0.24438566  0.60272724  1
  Te  Te119  1  0.79292679  0.22060281  0.88646111  1
  Te  Te120  1  0.73959555  0.57972955  0.23830797  1
  Te  Te121  1  0.74721144  0.59422832  0.60476056  1
  Te  Te122  1  0.77681343  0.59926392  0.89583590  1
  Te  Te123  1  0.76756003  0.90228677  0.23589533  1
  Te  Te124  1  0.76254940  0.91041077  0.61953673  1
  Te  Te125  1  0.75260964  0.91910573  0.91762865  1
  Te  Te126  1  0.24097163  0.25402624  0.05114001  1
  Te  Te127  1  0.24802868  0.24891327  0.42268638  1
  Te  Te128  1  0.23097132  0.26339353  0.74442648  1
  Te  Te129  1  0.26556553  0.57440245  0.07787602  1
  Te  Te130  1  0.28034986  0.55635243  0.39551419  1
  Te  Te131  1  0.21176474  0.55912285  0.75834521  1
  Te  Te132  1  0.24057993  0.91965092  0.07888513  1
  Te  Te133  1  0.24654304  0.90163845  0.41923054  1
  Te  Te134  1  0.23861408  0.93631004  0.76252978  1
  Te  Te135  1  0.58842376  0.26531222  0.08305689  1
  Te  Te136  1  0.59519257  0.25763767  0.42889746  1
  Te  Te137  1  0.59240069  0.23864104  0.77657315  1
  Te  Te138  1  0.58186662  0.57726710  0.08159614  1
  Te  Te139  1  0.55839476  0.58318213  0.40899149  1
  Te  Te140  1  0.59901784  0.59839428  0.75005502  1
  Te  Te141  1  0.55584743  0.95144333  0.05447735  1
  Te  Te142  1  0.58876607  0.92220860  0.40914824  1
  Te  Te143  1  0.58530748  0.92360104  0.76197363  1
  Te  Te144  1  0.90195626  0.23573353  0.06325966  1
  Te  Te145  1  0.93873825  0.25074238  0.40752531  1
  Te  Te146  1  0.91716051  0.25708824  0.79500293  1
  Te  Te147  1  0.91272452  0.57495234  0.06807809  1
  Te  Te148  1  0.92309160  0.58437453  0.40750955  1
  Te  Te149  1  0.92786529  0.57328200  0.76962957  1
  Te  Te150  1  0.94282668  0.93688875  0.06477880  1
  Te  Te151  1  0.92150444  0.91026739  0.42566849  1
  Te  Te152  1  0.94287367  0.90948628  0.76940673  1
  Te  Te153  1  0.24733691  0.08818013  0.23845737  1
  Te  Te154  1  0.24399966  0.08503364  0.60065216  1
  Te  Te155  1  0.22006030  0.09594087  0.91924960  1
  Te  Te156  1  0.22837219  0.43330729  0.23778029  1
  Te  Te157  1  0.28921850  0.43452393  0.59502930  1
  Te  Te158  1  0.24233412  0.39044822  0.92262898  1
  Te  Te159  1  0.25568971  0.74317304  0.25299436  1
  Te  Te160  1  0.24063836  0.75066888  0.59299069  1
  Te  Te161  1  0.22100128  0.74260279  0.91340907  1
  Te  Te162  1  0.59397747  0.07472341  0.22883816  1
  Te  Te163  1  0.57256453  0.10382140  0.60604804  1
  Te  Te164  1  0.60783080  0.08425454  0.93218330  1
  Te  Te165  1  0.54700360  0.43737561  0.25825761  1
  Te  Te166  1  0.57990203  0.41911276  0.59295595  1
  Te  Te167  1  0.58285599  0.42070199  0.92111886  1
  Te  Te168  1  0.59400948  0.75067153  0.23472281  1
  Te  Te169  1  0.59073999  0.74004820  0.58305538  1
  Te  Te170  1  0.59395555  0.76954645  0.92826880  1
  Te  Te171  1  0.92553733  0.10296603  0.22810020  1
  Te  Te172  1  0.90512565  0.09862115  0.61097505  1
  Te  Te173  1  0.95964191  0.08668245  0.92105492  1
  Te  Te174  1  0.92566990  0.40413627  0.24731930  1
  Te  Te175  1  0.93080713  0.39867622  0.58773148  1
  Te  Te176  1  0.90332547  0.40983811  0.87523969  1
  Te  Te177  1  0.93059415  0.74504651  0.27034567  1
  Te  Te178  1  0.90741509  0.76068097  0.61829743  1
  Te  Te179  1  0.93299044  0.75316669  0.88845565  1
