# generated using pymatgen
data_In2Te3
_symmetry_space_group_name_H-M   'P 1'
_cell_length_a   18.77993044
_cell_length_b   18.78593649
_cell_length_c   18.78354283
_cell_angle_alpha   89.98473141
_cell_angle_beta   89.95312580
_cell_angle_gamma   90.03658046
_symmetry_Int_Tables_number   1
_chemical_formula_structural   In2Te3
_chemical_formula_sum   'In72 Te108'
_cell_volume   6626.80344472
_cell_formula_units_Z   36
loop_
 _symmetry_equiv_pos_site_id
 _symmetry_equiv_pos_as_xyz
  1  'x, y, z'
loop_
 _atom_site_type_symbol
 _atom_site_label
 _atom_site_symmetry_multiplicity
 _atom_site_fract_x
 _atom_site_fract_y
 _atom_site_fract_z
 _atom_site_occupancy
  In  In0  1  0.18675997  0.33334520  0.49583709  1
  In  In1  1  0.34836970  0.81969434  0.48656600  1
  In  In2  1  0.49621391  0.17263166  0.00401293  1
  In  In3  1  0.17165531  0.48492640  0.65691766  1
  In  In4  1  0.85030347  0.79164810  -0.01681121  1
  In  In5  1  0.82365092  0.82233768  0.68066465  1
  In  In6  1  0.50216404  0.34372890  0.48531012  1
  In  In7  1  0.33005498  0.35242004  0.33370794  1
  In  In8  1  0.64509792  0.00681235  0.00734082  1
  In  In9  1  0.17082039  0.51723461  0.30510364  1
  In  In10  1  0.50294698  0.51326574  0.66199822  1
  In  In11  1  0.50410193  0.83428297  0.64436302  1
  In  In12  1  0.00747841  -0.01091047  -0.00043437  1
  In  In13  1  0.84047093  0.15883050  0.32201330  1
  In  In14  1  0.66963553  0.69771757  0.67505621  1
  In  In15  1  0.65193918  0.51525627  0.49296802  1
  In  In16  1  0.84300771  -0.01737197  0.17924131  1
  In  In17  1  0.49457643  0.67396526  0.86580004  1
  In  In18  1  0.49611573  -0.03738652  0.16765516  1
  In  In19  1  0.18037012  0.00198366  0.51755912  1
  In  In20  1  0.35295617  0.33408503  0.66741949  1
  In  In21  1  0.01273683  0.35852633  0.02309760  1
  In  In22  1  0.31918620  0.14874877  0.83266521  1
  In  In23  1  0.51824077  0.35849511  0.85076734  1
  In  In24  1  0.01171966  0.51402220  0.87722379  1
  In  In25  1  0.33718834  0.35127623  0.01802762  1
  In  In26  1  0.83849019  0.49848017  0.70301388  1
  In  In27  1  0.15590709  0.81842163  0.01566594  1
  In  In28  1  0.16466258  0.67198367  0.83826805  1
  In  In29  1  0.32832214  0.65750112  0.65888023  1
  In  In30  1  0.49298903  0.16173165  0.34340289  1
  In  In31  1  0.51950392  0.39178255  0.20776052  1
  In  In32  1  0.67075003  -0.01267979  0.34014900  1
  In  In33  1  0.17957516  0.34102842  0.86414520  1
  In  In34  1  0.33436029  0.85042182  0.83240640  1
  In  In35  1  -0.03368537  0.12572510  0.53421804  1
  In  In36  1  0.17968838  0.80685202  0.30878037  1
  In  In37  1  0.85047013  0.34831237  0.80899782  1
  In  In38  1  0.66109986  0.17846931  0.50782078  1
  In  In39  1  0.01190766  0.17725843  0.81758222  1
  In  In40  1  -0.00090855  0.32938283  0.31525102  1
  In  In41  1  0.85691831  0.18742290  -0.00029791  1
  In  In42  1  0.81109640  0.54715484  -0.02108473  1
  In  In43  1  0.36423112  0.65977451  0.29628352  1
  In  In44  1  0.81642994  0.33670812  0.49105009  1
  In  In45  1  0.15700853  0.14690742  0.66984996  1
  In  In46  1  0.67393589  0.17403083  0.16453607  1
  In  In47  1  -0.00075213  0.33446518  0.66406809  1
  In  In48  1  0.32429793  0.17490721  0.16944844  1
  In  In49  1  0.01453941  -0.01636562  0.33090901  1
  In  In50  1  0.16400925  0.64195100  0.49728848  1
  In  In51  1  -0.01573493  0.84474921  0.49569065  1
  In  In52  1  0.81936236  -0.00890408  0.81213313  1
  In  In53  1  0.50046578  0.14815943  0.67821193  1
  In  In54  1  0.32440302  -0.01492442  -0.01873740  1
  In  In55  1  0.16322017  -0.01627492  0.15406306  1
  In  In56  1  0.65883604  0.83454619  0.49653629  1
  In  In57  1  0.35414632  -0.00408142  0.32476875  1
  In  In58  1  0.15742664  0.83404322  0.69470647  1
  In  In59  1  0.00708718  0.50260293  0.15632209  1
  In  In60  1  0.65782844  0.15155741  0.82971810  1
  In  In61  1  0.63239954  0.66017977  0.32079088  1
  In  In62  1  0.82079534  0.36107593  0.14506550  1
  In  In63  1  0.66819248  0.36211318  -0.00966532  1
  In  In64  1  0.33966471  0.64575504  0.03581858  1
  In  In65  1  0.66334348  -0.02822382  0.65853653  1
  In  In66  1  0.65531276  0.81759255  0.85065417  1
  In  In67  1  0.15651527  0.19082317  0.33741322  1
  In  In68  1  -0.02257711  0.66335022  0.32030466  1
  In  In69  1  0.82180889  0.68058802  0.49317868  1
  In  In70  1  0.82032711  0.67573921  0.17588036  1
  In  In71  1  0.01630905  0.52870681  0.49801266  1
  Te  Te72  1  0.08181307  0.08493656  0.08474819  1
  Te  Te73  1  0.08060395  0.08833870  0.42457786  1
  Te  Te74  1  0.07731525  0.05997961  0.75752695  1
  Te  Te75  1  0.12498520  0.44203328  0.07924574  1
  Te  Te76  1  0.09232597  0.42350037  0.41342094  1
  Te  Te77  1  0.07409705  0.41842562  0.76733960  1
  Te  Te78  1  0.06922008  0.71347146  0.07146087  1
  Te  Te79  1  0.07876640  0.74262918  0.41739437  1
  Te  Te80  1  0.05589591  0.76510241  0.78496165  1
  Te  Te81  1  0.41509332  0.07610152  0.09173834  1
  Te  Te82  1  0.42219175  0.06908608  0.43290265  1
  Te  Te83  1  0.40625832  0.06103975  0.75265798  1
  Te  Te84  1  0.43659579  0.43884129  0.09170114  1
  Te  Te85  1  0.43540099  0.44130399  0.39323219  1
  Te  Te86  1  0.41695423  0.43352163  0.76206641  1
  Te  Te87  1  0.44807996  0.72814267  0.10056401  1
  Te  Te88  1  0.43844800  0.75204523  0.39084917  1
  Te  Te89  1  0.42123217  0.74415997  0.74421145  1
  Te  Te90  1  0.76407188  0.08583719  0.07759177  1
  Te  Te91  1  0.75312098  0.08597302  0.42232189  1
  Te  Te92  1  0.74407730  0.08823601  0.72003649  1
  Te  Te93  1  0.72911286  0.46665590  0.08410352  1
  Te  Te94  1  0.73576493  0.42622785  0.40322625  1
  Te  Te95  1  0.72894533  0.41873986  0.76321871  1
  Te  Te96  1  0.73908176  0.72828712  0.06065927  1
  Te  Te97  1  0.73680847  0.75425655  0.39266783  1
  Te  Te98  1  0.76696135  0.72904700  0.79110936  1
  Te  Te99  1  0.10584466  0.27585846  0.22862887  1
  Te  Te100  1  0.08291009  0.24843496  0.57039619  1
  Te  Te101  1  0.07853484  0.25017713  0.93350522  1
  Te  Te102  1  0.08829722  0.61675399  0.22528482  1
  Te  Te103  1  0.07783208  0.60016874  0.61871158  1
  Te  Te104  1  0.10019516  0.60540300  0.96251004  1
  Te  Te105  1  0.07391069  0.88479347  0.22985895  1
  Te  Te106  1  0.07655817  0.91904521  0.59239867  1
  Te  Te107  1  0.10005673  0.91072939  0.91526494  1
  Te  Te108  1  0.43082267  0.26068187  0.24014702  1
  Te  Te109  1  0.43023190  0.24203185  0.57543422  1
  Te  Te110  1  0.41114059  0.25568386  0.90731575  1
  Te  Te111  1  0.42685588  0.54442183  0.21700507  1
  Te  Te112  1  0.41595440  0.58454641  0.56605537  1
  Te  Te113  1  0.40690665  0.56899926  0.92515189  1
  Te  Te114  1  0.41119839  0.87802299  0.25582442  1
  Te  Te115  1  0.40060254  0.91833493  0.58284568  1
  Te  Te116  1  0.43235792  0.89720396  0.93279169  1
  Te  Te117  1  0.75752271  0.26582181  0.25210909  1
  Te  Te118  1  0.74860664  0.25950125  0.59568651  1
  Te  Te119  1  0.74273224  0.24729726  0.91662556  1
  Te  Te120  1  0.73991455  0.57474142  0.25591235  1
  Te  Te121  1  0.75200096  0.58557598  0.59614395  1
  Te  Te122  1  0.71273676  0.58240530  0.87527141  1
  Te  Te123  1  0.72707544  0.90554892  0.22851716  1
  Te  Te124  1  0.77217448  0.91345055  0.56559804  1
  Te  Te125  1  0.75038877  0.91863876  0.92728651  1
  Te  Te126  1  0.24625159  0.24528113  0.06678663  1
  Te  Te127  1  0.27713347  0.23671886  0.41935519  1
  Te  Te128  1  0.23715536  0.26492712  0.74286372  1
  Te  Te129  1  0.23072782  0.55920521  0.08702293  1
  Te  Te130  1  0.26621326  0.58825432  0.39967931  1
  Te  Te131  1  0.24952859  0.57169648  0.75721793  1
  Te  Te132  1  0.26825820  0.89398931  0.09104806  1
  Te  Te133  1  0.23859045  0.90955223  0.40743308  1
  Te  Te134  1  0.25257777  0.93536364  0.74363590  1
  Te  Te135  1  0.58294684  0.26911531  0.08508509  1
  Te  Te136  1  0.59609507  0.26073497  0.39625644  1
  Te  Te137  1  0.57984601  0.25693289  0.75114801  1
  Te  Te138  1  0.54254566  0.60602750  0.13670260  1
  Te  Te139  1  0.54398257  0.57324755  0.40657329  1
  Te  Te140  1  0.58768048  0.59694066  0.75944356  1
  Te  Te141  1  0.60423849  0.89257253  0.09258101  1
  Te  Te142  1  0.56620243  0.91433437  0.41394108  1
  Te  Te143  1  0.57174150  0.90951445  0.76180125  1
  Te  Te144  1  0.93158069  0.25808991  0.10958909  1
  Te  Te145  1  0.92493529  0.24623591  0.42129963  1
  Te  Te146  1  0.90301100  0.23250482  0.72497183  1
  Te  Te147  1  0.91478529  0.59880589  0.07896080  1
  Te  Te148  1  0.89729625  0.57343693  0.41268331  1
  Te  Te149  1  0.92833991  0.59095013  0.78012720  1
  Te  Te150  1  0.91684203  0.89416887  0.07814411  1
  Te  Te151  1  0.90054575  0.91757990  0.39841868  1
  Te  Te152  1  0.92396711  0.90666014  0.75203962  1
  Te  Te153  1  0.23977603  0.07770970  0.25910043  1
  Te  Te154  1  0.26766110  0.09900574  0.58506446  1
  Te  Te155  1  0.22883157  0.08458650  0.92942827  1
  Te  Te156  1  0.25063452  0.41900584  0.22851861  1
  Te  Te157  1  0.28199292  0.42892705  0.56718953  1
  Te  Te158  1  0.26812726  0.44387925  0.92165870  1
  Te  Te159  1  0.26610164  0.73573530  0.21267200  1
  Te  Te160  1  0.23598943  0.75587412  0.58187581  1
  Te  Te161  1  0.26996776  0.74478906  0.92459791  1
  Te  Te162  1  0.58019286  0.07987006  0.23970939  1
  Te  Te163  1  0.57843854  0.06641399  0.57356054  1
  Te  Te164  1  0.55183712  0.07053751  0.90410486  1
  Te  Te165  1  0.63486964  0.45459878  0.27435187  1
  Te  Te166  1  0.59176046  0.41126356  0.58939736  1
  Te  Te167  1  0.57456163  0.46557790  0.93739483  1
  Te  Te168  1  0.56232894  0.74068744  0.21368252  1
  Te  Te169  1  0.57218717  0.72596350  0.56180691  1
  Te  Te170  1  0.60285195  0.72420201  0.95636979  1
  Te  Te171  1  0.94276136  0.08431571  0.23751645  1
  Te  Te172  1  0.88253942  0.03634087  0.61102970  1
  Te  Te173  1  0.91145043  0.08332234  0.90303455  1
  Te  Te174  1  0.90858742  0.43290329  0.25110390  1
  Te  Te175  1  0.91940046  0.43023601  0.57636087  1
  Te  Te176  1  0.89609814  0.41646734  0.93830292  1
  Te  Te177  1  0.90293142  0.77123094  0.25476067  1
  Te  Te178  1  0.92130764  0.74112360  0.59077940  1
  Te  Te179  1  0.94546768  0.72536528  0.89213575  1
