# generated using pymatgen
data_In2Te3
_symmetry_space_group_name_H-M   'P 1'
_cell_length_a   19.05254542
_cell_length_b   19.02667127
_cell_length_c   19.05586979
_cell_angle_alpha   90.26509533
_cell_angle_beta   89.61032078
_cell_angle_gamma   90.18252705
_symmetry_Int_Tables_number   1
_chemical_formula_structural   In2Te3
_chemical_formula_sum   'In72 Te108'
_cell_volume   6907.60894783
_cell_formula_units_Z   36
loop_
 _symmetry_equiv_pos_site_id
 _symmetry_equiv_pos_as_xyz
  1  'x, y, z'
loop_
 _atom_site_type_symbol
 _atom_site_label
 _atom_site_symmetry_multiplicity
 _atom_site_fract_x
 _atom_site_fract_y
 _atom_site_fract_z
 _atom_site_occupancy
  In  In0  1  0.31728957  0.31173453  0.35317180  1
  In  In1  1  0.49260373  0.15932596  0.67267097  1
  In  In2  1  -0.01289283  0.50250962  0.52076962  1
  In  In3  1  0.34316722  0.68525741  -0.01210057  1
  In  In4  1  0.68632425  0.01518742  0.01054410  1
  In  In5  1  0.65881270  0.83054287  0.80227680  1
  In  In6  1  0.81235109  0.48800680  0.69312874  1
  In  In7  1  0.90314148  0.46272716  -0.00124659  1
  In  In8  1  0.15195302  0.31390645  0.53552411  1
  In  In9  1  0.00162959  0.85501913  0.83961381  1
  In  In10  1  0.30839898  0.47854032  0.19619677  1
  In  In11  1  0.84222682  0.84113017  0.00879278  1
  In  In12  1  0.00714179  0.17091748  0.17902644  1
  In  In13  1  0.84136506  0.68132690  0.47654810  1
  In  In14  1  0.48885841  0.52317816  0.66026059  1
  In  In15  1  0.81454094  0.16519892  0.65472753  1
  In  In16  1  0.50005932  -0.00103763  0.81377831  1
  In  In17  1  -0.00794570  0.32870690  0.34484991  1
  In  In18  1  0.02824482  0.50934868  0.15306748  1
  In  In19  1  0.66529217  0.35908010  0.33140420  1
  In  In20  1  0.67548180  0.50724396  0.49239124  1
  In  In21  1  0.68107503  0.69787019  -0.01978739  1
  In  In22  1  0.52661976  0.00380700  0.16029384  1
  In  In23  1  0.83991080  0.17229126  0.02082900  1
  In  In24  1  0.83661667  0.34368827  0.17416137  1
  In  In25  1  0.18930557  0.82159577  -0.01968605  1
  In  In26  1  0.48477579  0.36921181  0.51399813  1
  In  In27  1  0.65305390  -0.02886654  0.35122492  1
  In  In28  1  0.49238112  0.50001680  0.02967303  1
  In  In29  1  0.52363168  0.66985918  0.17989579  1
  In  In30  1  0.31818527  0.51195579  0.54293665  1
  In  In31  1  0.65975108  -0.00727104  0.64097033  1
  In  In32  1  0.33463350  0.82788500  0.19203147  1
  In  In33  1  0.16607054  0.66498924  0.16000935  1
  In  In34  1  0.16071663  0.02306433  0.13304922  1
  In  In35  1  0.00221574  0.18559506  0.85194999  1
  In  In36  1  0.31179109  0.19150219  0.11402832  1
  In  In37  1  -0.01191471  0.85878565  0.47949699  1
  In  In38  1  0.82182362  0.02103448  0.83185259  1
  In  In39  1  -0.01743476  0.67402497  0.65669472  1
  In  In40  1  0.47610514  0.65663183  0.79559368  1
  In  In41  1  0.52696039  0.51110737  0.32150180  1
  In  In42  1  0.33461639  0.84097968  0.47925218  1
  In  In43  1  0.65444168  0.31457780  0.69486712  1
  In  In44  1  0.16572337  0.64162587  0.51201912  1
  In  In45  1  0.30918164  0.49151718  0.81932148  1
  In  In46  1  0.48907114  0.17665298  -0.00817172  1
  In  In47  1  0.50527417  0.86370064  -0.01256107  1
  In  In48  1  0.67496702  0.31729088  0.01717341  1
  In  In49  1  0.83332698  0.67768279  0.82173466  1
  In  In50  1  -0.00768854  -0.01348305  0.66075396  1
  In  In51  1  0.50673367  0.32916018  0.18589868  1
  In  In52  1  0.81912630  -0.01733196  0.46902776  1
  In  In53  1  0.17026832  0.02683775  0.84717762  1
  In  In54  1  -0.00189467  0.83327400  0.15310154  1
  In  In55  1  0.64443757  0.48400430  0.86355103  1
  In  In56  1  0.00068835  0.34735206  0.72132642  1
  In  In57  1  -0.00357516  0.16929173  0.48403440  1
  In  In58  1  0.15244517  0.83292434  0.65043050  1
  In  In59  1  0.29962865  0.03115682  -0.01334108  1
  In  In60  1  0.33626007  0.31919861  0.69793602  1
  In  In61  1  0.83867595  0.64131979  0.19094339  1
  In  In62  1  0.83625102  0.84254292  0.32074501  1
  In  In63  1  0.32785770  0.82302678  0.80612594  1
  In  In64  1  0.49651817  0.17825234  0.35537309  1
  In  In65  1  0.82576900  0.34273466  0.47875462  1
  In  In66  1  0.14211447  0.81449004  0.33339754  1
  In  In67  1  0.32109810  0.01808548  0.31270636  1
  In  In68  1  0.51363413  0.81172648  0.34450109  1
  In  In69  1  0.49074211  -0.00914405  0.49543307  1
  In  In70  1  0.19230904  0.47798056  -0.00866090  1
  In  In71  1  0.17614665  0.11136173  0.53694771  1
  Te  Te72  1  0.09351959  0.12795205  0.05148169  1
  Te  Te73  1  0.10091550  0.09325717  0.41451587  1
  Te  Te74  1  0.06156380  0.08017133  0.75568226  1
  Te  Te75  1  0.10048093  0.40137122  0.08023706  1
  Te  Te76  1  0.07686988  0.40599325  0.44397710  1
  Te  Te77  1  0.10379199  0.41629573  0.80571214  1
  Te  Te78  1  0.08749947  0.74510961  0.06178199  1
  Te  Te79  1  0.07041456  0.73788138  0.44019213  1
  Te  Te80  1  0.07241414  0.75317039  0.75085784  1
  Te  Te81  1  0.41517152  0.07014333  0.08377650  1
  Te  Te82  1  0.39677058  0.08740257  0.42329108  1
  Te  Te83  1  0.39437255  0.07437330  0.74511226  1
  Te  Te84  1  0.40306155  0.40245451  0.10427918  1
  Te  Te85  1  0.42353974  0.41464052  0.38540758  1
  Te  Te86  1  0.43207379  0.42146220  0.75633833  1
  Te  Te87  1  0.43266687  0.76288513  0.08583094  1
  Te  Te88  1  0.40507115  0.73619800  0.40464785  1
  Te  Te89  1  0.40893502  0.74977376  0.70805741  1
  Te  Te90  1  0.76790808  0.08036023  0.11094703  1
  Te  Te91  1  0.72647520  0.08033707  0.41742773  1
  Te  Te92  1  0.71950104  0.08748948  0.74390695  1
  Te  Te93  1  0.77279320  0.42719908  0.06366321  1
  Te  Te94  1  0.77802438  0.45823360  0.38456821  1
  Te  Te95  1  0.74317441  0.39449038  0.79048419  1
  Te  Te96  1  0.76793261  0.74181760  0.09460163  1
  Te  Te97  1  0.74502765  0.74948508  0.39061114  1
  Te  Te98  1  0.74818501  0.74378374  0.71833225  1
  Te  Te99  1  0.09207790  0.25481014  0.26594869  1
  Te  Te100  1  0.04167295  0.24306347  0.60787204  1
  Te  Te101  1  0.11313521  0.23577054  0.93622854  1
  Te  Te102  1  0.09821709  0.58222523  0.25809736  1
  Te  Te103  1  0.08311271  0.56804178  0.61674254  1
  Te  Te104  1  0.09594705  0.53741221  0.90009889  1
  Te  Te105  1  0.10509436  0.91374941  0.22622157  1
  Te  Te106  1  0.09383476  0.93784342  0.55893032  1
  Te  Te107  1  0.09309322  0.92819558  0.93461501  1
  Te  Te108  1  0.40523814  0.23295902  0.24661150  1
  Te  Te109  1  0.41362641  0.25727160  0.58183417  1
  Te  Te110  1  0.37474994  0.24327744  0.93156951  1
  Te  Te111  1  0.41941040  0.57915386  0.23954182  1
  Te  Te112  1  0.44479446  0.59088033  0.53865825  1
  Te  Te113  1  0.42116841  0.57540976  0.91442351  1
  Te  Te114  1  0.43281762  0.92367168  0.25817046  1
  Te  Te115  1  0.38063725  0.94006320  0.57630214  1
  Te  Te116  1  0.39299610  0.92210280  0.90613113  1
  Te  Te117  1  0.74291077  0.26383551  0.25300908  1
  Te  Te118  1  0.73553618  0.26326227  0.57294190  1
  Te  Te119  1  0.74552184  0.22934475  0.92549379  1
  Te  Te120  1  0.75208761  0.54900759  0.26097891  1
  Te  Te121  1  0.77419222  0.58314496  0.58130310  1
  Te  Te122  1  0.75211509  0.58484808  0.90996505  1
  Te  Te123  1  0.75312899  0.93741136  0.24824450  1
  Te  Te124  1  0.75817445  0.90597906  0.57747665  1
  Te  Te125  1  0.74011630  0.90613272  0.90614208  1
  Te  Te126  1  0.19162319  0.26377034  0.06776431  1
  Te  Te127  1  0.24374764  0.22713977  0.45322031  1
  Te  Te128  1  0.20904269  0.25023211  0.72761583  1
  Te  Te129  1  0.27221478  0.58784176  0.08021183  1
  Te  Te130  1  0.24030353  0.55152098  0.42593867  1
  Te  Te131  1  0.28652762  0.55437728  0.68857028  1
  Te  Te132  1  0.26327225  0.90725652  0.08548751  1
  Te  Te133  1  0.23926605  0.91759686  0.39108645  1
  Te  Te134  1  0.22636690  0.91912356  0.75063858  1
  Te  Te135  1  0.58166875  0.22978364  0.09960798  1
  Te  Te136  1  0.57914549  0.28127782  0.42825963  1
  Te  Te137  1  0.55320532  0.24645367  0.77342528  1
  Te  Te138  1  0.59815667  0.60046484  0.06803187  1
  Te  Te139  1  0.57836065  0.59777186  0.42991737  1
  Te  Te140  1  0.60988410  0.58435121  0.75018015  1
  Te  Te141  1  0.60986441  0.90135081  0.08697567  1
  Te  Te142  1  0.58549437  0.88029967  0.45728843  1
  Te  Te143  1  0.56002037  0.90095123  0.71442854  1
  Te  Te144  1  0.93481551  0.26829595  0.08626108  1
  Te  Te145  1  0.88889506  0.22968840  0.39798844  1
  Te  Te146  1  0.89516580  0.24047896  0.75666617  1
  Te  Te147  1  0.92886456  0.58979968  0.07334384  1
  Te  Te148  1  0.93232708  0.58485467  0.41514882  1
  Te  Te149  1  0.92141414  0.57398734  0.75472173  1
  Te  Te150  1  0.92547930  0.93642255  0.08043715  1
  Te  Te151  1  0.94282454  0.95445719  0.37037229  1
  Te  Te152  1  0.89481755  0.91446630  0.75201168  1
  Te  Te153  1  0.24024078  0.10958335  0.22691294  1
  Te  Te154  1  0.25387788  0.12757901  0.65908596  1
  Te  Te155  1  0.26640721  0.13897709  0.88864218  1
  Te  Te156  1  0.22347380  0.37834082  0.26202529  1
  Te  Te157  1  0.23441713  0.40801431  0.61855675  1
  Te  Te158  1  0.28702160  0.38607319  0.92024326  1
  Te  Te159  1  0.25137255  0.73036079  0.26885202  1
  Te  Te160  1  0.25078816  0.74856726  0.57564963  1
  Te  Te161  1  0.24304786  0.71870864  0.88128556  1
  Te  Te162  1  0.58342817  0.08703105  0.27155013  1
  Te  Te163  1  0.57809201  0.09391284  0.56617603  1
  Te  Te164  1  0.57554453  0.07204862  0.92304742  1
  Te  Te165  1  0.60731637  0.43853310  0.21495270  1
  Te  Te166  1  0.60112069  0.42726981  0.60097219  1
  Te  Te167  1  0.55959847  0.39244014  0.94667908  1
  Te  Te168  1  0.61661379  0.74319044  0.26470924  1
  Te  Te169  1  0.63843375  0.67351698  0.63427744  1
  Te  Te170  1  0.55998767  0.75147480  0.89552756  1
  Te  Te171  1  0.97397704  0.04669221  0.24868017  1
  Te  Te172  1  0.90378596  0.07209464  0.57305005  1
  Te  Te173  1  0.91995698  0.07990853  0.92609126  1
  Te  Te174  1  0.93721040  0.42784246  0.24728687  1
  Te  Te175  1  0.90059016  0.39945279  0.59877028  1
  Te  Te176  1  0.96263909  0.40807442  0.87503214  1
  Te  Te177  1  0.93197110  0.74429276  0.25552367  1
  Te  Te178  1  0.90673877  0.77653374  0.57771527  1
  Te  Te179  1  0.92421817  0.75078578  0.91791817  1
