# generated using pymatgen
data_In2Te3
_symmetry_space_group_name_H-M   'P 1'
_cell_length_a   18.97965075
_cell_length_b   18.97078051
_cell_length_c   18.98264490
_cell_angle_alpha   89.85488782
_cell_angle_beta   89.98594028
_cell_angle_gamma   90.04115695
_symmetry_Int_Tables_number   1
_chemical_formula_structural   In2Te3
_chemical_formula_sum   'In72 Te108'
_cell_volume   6834.84423001
_cell_formula_units_Z   36
loop_
 _symmetry_equiv_pos_site_id
 _symmetry_equiv_pos_as_xyz
  1  'x, y, z'
loop_
 _atom_site_type_symbol
 _atom_site_label
 _atom_site_symmetry_multiplicity
 _atom_site_fract_x
 _atom_site_fract_y
 _atom_site_fract_z
 _atom_site_occupancy
  In  In0  1  0.64728186  0.50314679  0.52504089  1
  In  In1  1  0.66487586  0.33051148  0.32312498  1
  In  In2  1  0.82505697  0.83096779  0.33468687  1
  In  In3  1  0.81171120  0.66773586  0.14389560  1
  In  In4  1  0.20258614  0.49240836  0.66977148  1
  In  In5  1  0.34056566  0.16130959  0.86136056  1
  In  In6  1  0.67106123  0.16232739  0.84884744  1
  In  In7  1  0.32639458  0.01226348  0.66233910  1
  In  In8  1  0.15709306  0.83985743  0.66281482  1
  In  In9  1  0.34195533  0.17632758  0.19097444  1
  In  In10  1  0.46861559  0.47529621  0.35454311  1
  In  In11  1  0.18907285  0.01406845  0.16466955  1
  In  In12  1  0.18613968  0.69695433  0.50334271  1
  In  In13  1  0.82055331  0.15982790  0.01191309  1
  In  In14  1  0.33491113  -0.00605454  0.01776579  1
  In  In15  1  -0.00383902  0.50636569  0.14430762  1
  In  In16  1  0.13474818  0.03856819  0.77944938  1
  In  In17  1  0.66610117  0.17644700  0.15870973  1
  In  In18  1  0.34393059  0.31614088  0.67241356  1
  In  In19  1  -0.00001995  0.15987378  0.49597225  1
  In  In20  1  0.00040209  0.51580531  0.47751605  1
  In  In21  1  0.32408115  0.66276611  0.01222714  1
  In  In22  1  0.33746795  0.48223321  0.18612386  1
  In  In23  1  -0.04322444  0.04458165  0.30595783  1
  In  In24  1  0.67883353  -0.01179159  0.66859110  1
  In  In25  1  0.14945313  0.85242612  -0.02366652  1
  In  In26  1  0.81532308  0.49802460  0.67794830  1
  In  In27  1  0.67797179  0.85082533  0.15799255  1
  In  In28  1  0.48467254  0.64806420  0.53462808  1
  In  In29  1  0.33920715  0.48666020  0.82890403  1
  In  In30  1  0.01452642  0.84235566  0.13274415  1
  In  In31  1  0.34501132  0.64782898  0.33906507  1
  In  In32  1  0.66980667  0.48459364  0.14486863  1
  In  In33  1  0.53093140  0.83907472  0.33063883  1
  In  In34  1  0.14713047  0.66549631  0.14839007  1
  In  In35  1  0.51919050  0.81875048  0.00136273  1
  In  In36  1  0.16342118  0.32826408  0.81465875  1
  In  In37  1  0.02304276  0.51056531  0.85982497  1
  In  In38  1  0.85071155  -0.00582194  0.81683561  1
  In  In39  1  0.84993392  0.84192248  -0.01658780  1
  In  In40  1  0.34817441  0.82831385  0.20165964  1
  In  In41  1  -0.00796511  0.67648715  0.33050471  1
  In  In42  1  0.66966958  0.82670596  0.83686419  1
  In  In43  1  0.82173378  0.65724508  0.84120242  1
  In  In44  1  0.15715615  0.16296917  -0.01313120  1
  In  In45  1  0.33673232  0.83304762  0.51450886  1
  In  In46  1  0.00409492  -0.00883794  -0.01470440  1
  In  In47  1  0.65604911  0.33952819  0.64854302  1
  In  In48  1  0.18028357  0.19237742  0.37071415  1
  In  In49  1  0.19465164  0.49559962  0.34637045  1
  In  In50  1  -0.02290506  0.34002120  0.00723117  1
  In  In51  1  0.49635188  0.82700655  0.68312837  1
  In  In52  1  0.83405320  0.33689032  0.50048311  1
  In  In53  1  0.67183582  0.17653165  0.49595480  1
  In  In54  1  0.48182248  0.18217375  0.34758642  1
  In  In55  1  0.01167659  0.28236651  0.67549717  1
  In  In56  1  0.83391235  0.00327078  0.51298728  1
  In  In57  1  0.52589100  0.48501652  -0.01079977  1
  In  In58  1  0.50195484  0.16021938  0.67174633  1
  In  In59  1  0.00158355  0.67800258  0.65264697  1
  In  In60  1  0.67312316  0.66454418  0.33742172  1
  In  In61  1  0.33620209  0.32717193  -0.00480854  1
  In  In62  1  0.01374811  0.32831253  0.31389748  1
  In  In63  1  0.50838768  0.19506048  -0.00429299  1
  In  In64  1  0.18812630  0.85848269  0.33469742  1
  In  In65  1  0.80888218  0.48085134  -0.01184190  1
  In  In66  1  0.36301027  -0.01742846  0.36849142  1
  In  In67  1  0.86671399  0.49028644  0.34228932  1
  In  In68  1  0.64636248  0.63641557  0.69443536  1
  In  In69  1  0.01154254  0.86978588  0.52044793  1
  In  In70  1  0.66587555  0.01882048  0.34218245  1
  In  In71  1  0.34771583  0.81374261  0.82646876  1
  Te  Te72  1  0.07847223  0.07988052  0.08699699  1
  Te  Te73  1  0.07537300  0.07881620  0.39072933  1
  Te  Te74  1  0.02247993  0.13586414  0.73559041  1
  Te  Te75  1  0.08436762  0.41274011  0.07671125  1
  Te  Te76  1  0.09098886  0.41036571  0.41861536  1
  Te  Te77  1  0.07574629  0.42497819  0.73782770  1
  Te  Te78  1  0.06350987  0.73073574  0.03798832  1
  Te  Te79  1  0.08213969  0.76681848  0.41262770  1
  Te  Te80  1  0.09112985  0.74094995  0.74906395  1
  Te  Te81  1  0.41756775  0.10067631  0.08184688  1
  Te  Te82  1  0.42595899  0.08729736  0.44838106  1
  Te  Te83  1  0.41942375  0.07344357  0.76761609  1
  Te  Te84  1  0.42288906  0.41447356  0.08121089  1
  Te  Te85  1  0.35657663  0.39297041  0.40436688  1
  Te  Te86  1  0.43430113  0.41691274  0.73800053  1
  Te  Te87  1  0.41794032  0.74768482  0.09670611  1
  Te  Te88  1  0.42000349  0.75918926  0.41038833  1
  Te  Te89  1  0.44534388  0.71744287  0.76992825  1
  Te  Te90  1  0.71238487  0.07429778  0.06406304  1
  Te  Te91  1  0.77221456  0.10003390  0.41344335  1
  Te  Te92  1  0.75848276  0.09089656  0.74499581  1
  Te  Te93  1  0.73334527  0.37621514  0.06438767  1
  Te  Te94  1  0.74262230  0.43077175  0.42018877  1
  Te  Te95  1  0.74931166  0.39121572  0.75132138  1
  Te  Te96  1  0.73962515  0.75900836  0.05050733  1
  Te  Te97  1  0.72622205  0.77086301  0.42346051  1
  Te  Te98  1  0.74868135  0.74290440  0.73985926  1
  Te  Te99  1  0.11014694  0.23724030  0.25113689  1
  Te  Te100  1  0.09663901  0.25004718  0.56207886  1
  Te  Te101  1  0.07010222  0.25851161  0.91218117  1
  Te  Te102  1  0.08098156  0.57439621  0.26323098  1
  Te  Te103  1  0.09927897  0.58839705  0.56806181  1
  Te  Te104  1  0.08379364  0.59146829  0.96338080  1
  Te  Te105  1  0.08724324  0.92190868  0.24026266  1
  Te  Te106  1  0.08370653  0.96420227  0.61261751  1
  Te  Te107  1  0.06112250  0.91514646  0.86545110  1
  Te  Te108  1  0.42907503  0.27760442  0.24864076  1
  Te  Te109  1  0.39936900  0.21395307  0.57835145  1
  Te  Te110  1  0.43248887  0.27766017  0.89080969  1
  Te  Te111  1  0.43588691  0.58245069  0.24168678  1
  Te  Te112  1  0.37272968  0.56910801  0.57845526  1
  Te  Te113  1  0.41343437  0.57311053  0.93038457  1
  Te  Te114  1  0.44184766  0.93467716  0.24732550  1
  Te  Te115  1  0.42893513  0.92574039  0.58907701  1
  Te  Te116  1  0.41575696  0.90641763  0.92644896  1
  Te  Te117  1  0.76158158  0.24514435  0.25301146  1
  Te  Te118  1  0.76539784  0.24287541  0.59449765  1
  Te  Te119  1  0.74087064  0.26016311  0.93610569  1
  Te  Te120  1  0.76585309  0.57153433  0.25168830  1
  Te  Te121  1  0.74798481  0.59702614  0.58513060  1
  Te  Te122  1  0.71995255  0.57308461  0.91058489  1
  Te  Te123  1  0.75858956  0.93851971  0.25133105  1
  Te  Te124  1  0.77090268  0.90029030  0.59552441  1
  Te  Te125  1  0.74957552  0.93052636  0.91251922  1
  Te  Te126  1  0.25103250  0.23565139  0.08005871  1
  Te  Te127  1  0.30553072  0.24739486  0.42337170  1
  Te  Te128  1  0.25175207  0.22258598  0.75439824  1
  Te  Te129  1  0.24296582  0.56385621  0.09473963  1
  Te  Te130  1  0.27694833  0.57762052  0.45639820  1
  Te  Te131  1  0.24187997  0.58284402  0.77514216  1
  Te  Te132  1  0.24448578  0.88594427  0.09462863  1
  Te  Te133  1  0.23928207  0.93333400  0.45329564  1
  Te  Te134  1  0.25543222  0.91389402  0.75714296  1
  Te  Te135  1  0.58914918  0.28098498  0.08463178  1
  Te  Te136  1  0.57524986  0.27256597  0.43043399  1
  Te  Te137  1  0.58800926  0.25123459  0.75372961  1
  Te  Te138  1  0.59167195  0.58481030  0.07529993  1
  Te  Te139  1  0.56615245  0.58637734  0.41564203  1
  Te  Te140  1  0.56281990  0.52084309  0.73517950  1
  Te  Te141  1  0.57614702  0.92555648  0.08431998  1
  Te  Te142  1  0.59837847  0.92173909  0.42957535  1
  Te  Te143  1  0.57928482  0.92445190  0.76346716  1
  Te  Te144  1  0.92446443  0.23083236  0.09676329  1
  Te  Te145  1  0.91767732  0.25466620  0.40762392  1
  Te  Te146  1  0.92246280  0.23893340  0.78034200  1
  Te  Te147  1  0.89974632  0.58301545  0.05570964  1
  Te  Te148  1  0.89468997  0.61428588  0.42728497  1
  Te  Te149  1  0.92239263  0.58013497  0.75134160  1
  Te  Te150  1  0.90544578  0.93635146  0.08941583  1
  Te  Te151  1  0.92635398  0.92500915  0.39934841  1
  Te  Te152  1  0.94044898  0.88676021  0.77284201  1
  Te  Te153  1  0.27167886  0.07074031  0.27695290  1
  Te  Te154  1  0.20692258  0.05696222  0.59151602  1
  Te  Te155  1  0.23657090  0.05523732  0.91603142  1
  Te  Te156  1  0.24285778  0.39229853  0.25471829  1
  Te  Te157  1  0.26109513  0.39568248  0.57891263  1
  Te  Te158  1  0.23845885  0.41124199  0.91672873  1
  Te  Te159  1  0.23593114  0.73076672  0.25958356  1
  Te  Te160  1  0.27215129  0.74460426  0.61733411  1
  Te  Te161  1  0.24373276  0.74815178  0.91572496  1
  Te  Te162  1  0.57371976  0.10142401  0.25702115  1
  Te  Te163  1  0.59357476  0.07915672  0.58073336  1
  Te  Te164  1  0.56378223  0.08671225  0.91491873  1
  Te  Te165  1  0.57664305  0.43080642  0.25456115  1
  Te  Te166  1  0.55006989  0.40230218  0.56554229  1
  Te  Te167  1  0.61006985  0.45814484  0.86826378  1
  Te  Te168  1  0.59674245  0.74397567  0.23355968  1
  Te  Te169  1  0.58382216  0.74103268  0.59391652  1
  Te  Te170  1  0.56492225  0.73396286  0.88802020  1
  Te  Te171  1  0.88878171  0.14183013  0.22166229  1
  Te  Te172  1  0.91912293  0.08812420  0.59864771  1
  Te  Te173  1  0.91789049  0.09087810  0.91383652  1
  Te  Te174  1  0.91257506  0.40693072  0.22751928  1
  Te  Te175  1  0.91810883  0.43558402  0.57685866  1
  Te  Te176  1  0.90903093  0.41657008  0.89473149  1
  Te  Te177  1  0.91714301  0.75371695  0.22289923  1
  Te  Te178  1  0.91895335  0.77010084  0.57315707  1
  Te  Te179  1  0.92230783  0.75811651  0.88537474  1
