# generated using pymatgen
data_In2Te3
_symmetry_space_group_name_H-M   'P 1'
_cell_length_a   18.80525721
_cell_length_b   18.79700751
_cell_length_c   18.79472940
_cell_angle_alpha   90.01480244
_cell_angle_beta   89.95992388
_cell_angle_gamma   90.08004260
_symmetry_Int_Tables_number   1
_chemical_formula_structural   In2Te3
_chemical_formula_sum   'In72 Te108'
_cell_volume   6643.60075357
_cell_formula_units_Z   36
loop_
 _symmetry_equiv_pos_site_id
 _symmetry_equiv_pos_as_xyz
  1  'x, y, z'
loop_
 _atom_site_type_symbol
 _atom_site_label
 _atom_site_symmetry_multiplicity
 _atom_site_fract_x
 _atom_site_fract_y
 _atom_site_fract_z
 _atom_site_occupancy
  In  In0  1  0.82576528  0.83169127  0.01495985  1
  In  In1  1  0.65960893  0.36091999  0.35165274  1
  In  In2  1  0.47261795  0.82386116  0.35122044  1
  In  In3  1  0.83220675  0.13600886  -0.02022399  1
  In  In4  1  0.82770169  0.67074987  0.48697656  1
  In  In5  1  0.20543695  0.34671057  0.20882831  1
  In  In6  1  0.83461395  -0.01856596  0.17591793  1
  In  In7  1  0.63860951  -0.05241947  0.02798928  1
  In  In8  1  0.48151655  -0.02088586  0.53187126  1
  In  In9  1  0.66249806  0.52381460  0.47776067  1
  In  In10  1  0.33798955  0.83616212  0.17722304  1
  In  In11  1  -0.00261892  0.65040869  0.01591915  1
  In  In12  1  0.32010272  0.33660155  0.62905098  1
  In  In13  1  0.84152447  0.83592457  0.64577108  1
  In  In14  1  0.34400973  -0.00051013  0.00055817  1
  In  In15  1  0.00959641  0.30440183  0.00624362  1
  In  In16  1  0.83794386  0.52170681  0.01928086  1
  In  In17  1  0.17596157  0.34280365  0.48541576  1
  In  In18  1  0.16831667  0.16285356  -0.01011256  1
  In  In19  1  0.02486771  0.33115274  0.66501976  1
  In  In20  1  0.48083791  0.53437812  0.34373220  1
  In  In21  1  0.33248099  0.15513246  0.50253643  1
  In  In22  1  0.18370208  0.64648973  0.49028826  1
  In  In23  1  -0.00411359  0.15285287  0.83897547  1
  In  In24  1  0.66778671  0.34707928  0.67669573  1
  In  In25  1  0.47282826  0.35695798  0.46962382  1
  In  In26  1  0.83448854  0.67014433  0.83369958  1
  In  In27  1  0.67125811  0.69959855  0.32428323  1
  In  In28  1  0.66149270  0.69954555  0.01297173  1
  In  In29  1  0.35026798  0.14130763  0.82576690  1
  In  In30  1  0.02460666  0.34826415  0.32161689  1
  In  In31  1  0.84009013  0.50226088  0.64057087  1
  In  In32  1  0.01054434  0.84244542  0.50389185  1
  In  In33  1  0.49382011  0.49747340  0.00606048  1
  In  In34  1  0.19570473  0.15618467  0.65345592  1
  In  In35  1  0.49735259  -0.00710653  0.81509579  1
  In  In36  1  0.18771104  0.67033618  0.17918408  1
  In  In37  1  0.66895239  0.13218178  0.48475412  1
  In  In38  1  0.00762961  -0.01023707  0.66063078  1
  In  In39  1  0.17911683  0.01881177  0.19089566  1
  In  In40  1  0.32603033  0.52470151  0.82037093  1
  In  In41  1  0.15467929  0.81975258  -0.01124124  1
  In  In42  1  0.63820699  0.52749809  0.80276879  1
  In  In43  1  0.03579408  0.80637504  0.79676651  1
  In  In44  1  0.65156054  0.83648970  0.82126682  1
  In  In45  1  0.49288516  0.53070048  0.64721168  1
  In  In46  1  0.63999394  0.16319421  0.15642802  1
  In  In47  1  0.64523912  0.30114448  0.02278476  1
  In  In48  1  0.65779459  -0.02296451  0.34340624  1
  In  In49  1  0.85025725  0.33399253  0.51438621  1
  In  In50  1  0.32621923  0.34925049  0.01802877  1
  In  In51  1  0.48694589  0.17701099  0.31106699  1
  In  In52  1  0.34539790  0.68203675  0.00058002  1
  In  In53  1  0.86676245  0.32864781  0.83219403  1
  In  In54  1  0.31282705  0.83922360  0.81768334  1
  In  In55  1  0.15566418  0.50035896  -0.00476308  1
  In  In56  1  0.47090370  0.14338730  0.70062198  1
  In  In57  1  0.49687861  0.12552690  0.03295002  1
  In  In58  1  0.82909800  0.17280611  0.33454253  1
  In  In59  1  0.32608213  0.68165983  0.65263467  1
  In  In60  1  0.18697373  0.86420424  0.34901984  1
  In  In61  1  0.84312524  0.12616525  0.62772464  1
  In  In62  1  0.83562366  0.34888949  0.17867397  1
  In  In63  1  0.00750188  0.51768095  0.14852828  1
  In  In64  1  0.65404935  0.51683164  0.19454650  1
  In  In65  1  0.47088936  0.34694455  0.85908367  1
  In  In66  1  0.67072250  0.15582146  0.80884387  1
  In  In67  1  0.02605933  0.17898288  0.16884410  1
  In  In68  1  0.00919519  0.49189491  0.81192424  1
  In  In69  1  0.02113261  -0.00585137  0.35208928  1
  In  In70  1  0.67935097  -0.02019284  0.67582955  1
  In  In71  1  -0.02074479  0.68425142  0.32467016  1
  Te  Te72  1  0.08242282  0.07206390  0.07765147  1
  Te  Te73  1  0.09494397  0.07389438  0.45034989  1
  Te  Te74  1  0.09491175  0.08378234  0.74506915  1
  Te  Te75  1  0.09479120  0.39582600  0.09989577  1
  Te  Te76  1  0.09237066  0.44112316  0.41235972  1
  Te  Te77  1  0.11544171  0.41180411  0.74840392  1
  Te  Te78  1  0.08060477  0.74751210  0.10079719  1
  Te  Te79  1  0.09580619  0.75042365  0.40820241  1
  Te  Te80  1  0.12300864  0.72508400  0.70692763  1
  Te  Te81  1  0.39901612  0.06110686  0.12551087  1
  Te  Te82  1  0.44356034  0.08282124  0.42770115  1
  Te  Te83  1  0.36837834  0.02460138  0.71840353  1
  Te  Te84  1  0.41276295  0.42684701  0.10704910  1
  Te  Te85  1  0.37051351  0.44171642  0.40562159  1
  Te  Te86  1  0.41867372  0.42683706  0.73702378  1
  Te  Te87  1  0.43623962  0.76470028  0.08669658  1
  Te  Te88  1  0.42387682  0.72943876  0.45731545  1
  Te  Te89  1  0.41333152  0.75031628  0.75168067  1
  Te  Te90  1  0.73470226  0.06985906  0.08031097  1
  Te  Te91  1  0.77617000  0.05298216  0.41211156  1
  Te  Te92  1  0.78118483  0.06688783  0.75570009  1
  Te  Te93  1  0.73551127  0.42088961  0.08788291  1
  Te  Te94  1  0.77363762  0.43051547  0.42250792  1
  Te  Te95  1  0.76635729  0.43193075  0.76152161  1
  Te  Te96  1  0.74761925  0.75892422  0.12099676  1
  Te  Te97  1  0.74541099  0.77747463  0.42687517  1
  Te  Te98  1  0.74884475  0.75269965  0.73788727  1
  Te  Te99  1  0.11579746  0.23396525  0.27579248  1
  Te  Te100  1  0.09902812  0.24022204  0.56832644  1
  Te  Te101  1  0.09634228  0.25743511  0.89187346  1
  Te  Te102  1  0.08618283  0.58660565  0.25659114  1
  Te  Te103  1  0.10045228  0.60658319  0.60882388  1
  Te  Te104  1  0.08284852  0.59425563  0.90118193  1
  Te  Te105  1  0.08699351  0.90889992  0.24257613  1
  Te  Te106  1  0.10974167  0.89454251  0.60541828  1
  Te  Te107  1  0.09583292  0.90781909  0.88587186  1
  Te  Te108  1  0.35982464  0.24175838  0.27096261  1
  Te  Te109  1  0.43572118  0.24800344  0.58155974  1
  Te  Te110  1  0.41235399  0.22872858  0.93732421  1
  Te  Te111  1  0.37834694  0.59984633  0.25725700  1
  Te  Te112  1  0.40491722  0.60084605  0.54867834  1
  Te  Te113  1  0.43037884  0.59472235  0.90643758  1
  Te  Te114  1  0.38791962  0.92789706  0.28494356  1
  Te  Te115  1  0.37468619  0.87141619  0.54628096  1
  Te  Te116  1  0.42404033  0.90430527  0.91572203  1
  Te  Te117  1  0.72835101  0.25451779  0.25083003  1
  Te  Te118  1  0.74403031  0.24229592  0.57869249  1
  Te  Te119  1  0.74778281  0.25002651  0.91002625  1
  Te  Te120  1  0.75044833  0.57966637  0.28505502  1
  Te  Te121  1  0.73262874  0.59603136  0.59143379  1
  Te  Te122  1  0.73829946  0.58993897  0.92158809  1
  Te  Te123  1  0.73406663  0.89626024  0.24350778  1
  Te  Te124  1  0.75580428  0.92328389  0.56283366  1
  Te  Te125  1  0.73916110  0.91725570  0.91807554  1
  Te  Te126  1  0.24379426  0.24585345  0.09303154  1
  Te  Te127  1  0.27346506  0.25645715  0.40817025  1
  Te  Te128  1  0.27231073  0.25095616  0.74640034  1
  Te  Te129  1  0.25752332  0.58064186  0.07558263  1
  Te  Te130  1  0.26650822  0.57465030  0.38334763  1
  Te  Te131  1  0.22696860  0.59348142  0.72943966  1
  Te  Te132  1  0.23984006  0.91070706  0.08090047  1
  Te  Te133  1  0.28290963  0.93827290  0.43580449  1
  Te  Te134  1  0.24882698  0.92788190  0.71797156  1
  Te  Te135  1  0.52969777  0.25892499  0.11240113  1
  Te  Te136  1  0.58461648  0.24325211  0.41721950  1
  Te  Te137  1  0.56419700  0.25953036  0.76382106  1
  Te  Te138  1  0.57486290  0.59551300  0.09194401  1
  Te  Te139  1  0.56864937  0.62997233  0.42775620  1
  Te  Te140  1  0.56570605  0.64008204  0.72528878  1
  Te  Te141  1  0.55046189  0.87517436  0.11943647  1
  Te  Te142  1  0.57645911  0.89781781  0.44555447  1
  Te  Te143  1  0.54737522  0.89306585  0.70219477  1
  Te  Te144  1  0.89250704  0.24012320  0.08661858  1
  Te  Te145  1  0.93003851  0.25592289  0.41019016  1
  Te  Te146  1  0.91772372  0.23286552  0.72061556  1
  Te  Te147  1  0.88744514  0.62132853  0.12840964  1
  Te  Te148  1  0.93302788  0.58714592  0.42652828  1
  Te  Te149  1  0.92237796  0.59163952  0.73598151  1
  Te  Te150  1  0.92749852  0.91617455  0.08197049  1
  Te  Te151  1  0.92535058  0.88962219  0.39170455  1
  Te  Te152  1  0.92191515  0.90318767  0.75544459  1
  Te  Te153  1  0.28678022  0.09442015  0.25635335  1
  Te  Te154  1  0.22348396  0.05352037  0.54055758  1
  Te  Te155  1  0.24334127  0.06196449  0.90383910  1
  Te  Te156  1  0.27117611  0.47323871  0.26234380  1
  Te  Te157  1  0.23128589  0.44266236  0.58214012  1
  Te  Te158  1  0.25089868  0.41939034  0.90634046  1
  Te  Te159  1  0.26784747  0.75022060  0.28347333  1
  Te  Te160  1  0.24803076  0.76954963  0.55529186  1
  Te  Te161  1  0.24143700  0.73034488  0.90118067  1
  Te  Te162  1  0.57168110  0.06329489  0.24967109  1
  Te  Te163  1  0.58776307  0.08898625  0.60685460  1
  Te  Te164  1  0.58123664  0.08013033  0.91047453  1
  Te  Te165  1  0.55494609  0.42135809  0.26172241  1
  Te  Te166  1  0.58077184  0.42369788  0.56932705  1
  Te  Te167  1  0.59543225  0.41692760  0.91537567  1
  Te  Te168  1  0.56110412  0.76385451  0.24431277  1
  Te  Te169  1  0.58330885  0.76438086  0.63407339  1
  Te  Te170  1  0.56943486  0.75519044  0.91231788  1
  Te  Te171  1  0.92743376  0.09128537  0.24791350  1
  Te  Te172  1  0.95298505  0.06995488  0.54405872  1
  Te  Te173  1  0.93747947  0.04910779  0.92611554  1
  Te  Te174  1  0.92115701  0.44290834  0.25589708  1
  Te  Te175  1  0.95560336  0.42984618  0.57059332  1
  Te  Te176  1  0.93334367  0.42794255  0.94094399  1
  Te  Te177  1  0.89203859  0.74575042  0.22258135  1
  Te  Te178  1  0.93312538  0.73441616  0.58173681  1
  Te  Te179  1  0.92814858  0.75231278  0.92181126  1
