# generated using pymatgen
data_In2Te3
_symmetry_space_group_name_H-M   'P 1'
_cell_length_a   18.96242716
_cell_length_b   18.97421100
_cell_length_c   18.95084974
_cell_angle_alpha   90.13483324
_cell_angle_beta   90.15457649
_cell_angle_gamma   89.96158934
_symmetry_Int_Tables_number   1
_chemical_formula_structural   In2Te3
_chemical_formula_sum   'In72 Te108'
_cell_volume   6818.41547195
_cell_formula_units_Z   36
loop_
 _symmetry_equiv_pos_site_id
 _symmetry_equiv_pos_as_xyz
  1  'x, y, z'
loop_
 _atom_site_type_symbol
 _atom_site_label
 _atom_site_symmetry_multiplicity
 _atom_site_fract_x
 _atom_site_fract_y
 _atom_site_fract_z
 _atom_site_occupancy
  In  In0  1  0.15424166  0.48785365  -0.00123606  1
  In  In1  1  0.39013230  0.86051079  0.16784773  1
  In  In2  1  0.82468119  0.33228079  0.16236692  1
  In  In3  1  -0.00609095  0.88627121  0.80131353  1
  In  In4  1  0.78831657  0.68511249  0.16466516  1
  In  In5  1  0.52474781  0.70351564  0.18250692  1
  In  In6  1  0.63880562  0.38547764  0.36809985  1
  In  In7  1  0.69402769  0.17645582  0.17030672  1
  In  In8  1  0.81879909  0.83197711  -0.00971193  1
  In  In9  1  0.50357824  0.01120087  0.81803669  1
  In  In10  1  0.66948294  0.17368897  0.51724951  1
  In  In11  1  0.61034609  0.52306413  0.54495357  1
  In  In12  1  0.65949338  0.34161707  0.02101759  1
  In  In13  1  0.83441875  0.14735524  -0.00635604  1
  In  In14  1  -0.00303582  0.31838148  0.36004894  1
  In  In15  1  0.84107605  0.32649521  0.48535532  1
  In  In16  1  -0.03062165  0.70742010  0.65699226  1
  In  In17  1  0.80261658  0.83323911  0.35176444  1
  In  In18  1  0.01560419  0.46120972  0.80814666  1
  In  In19  1  -0.01654726  0.85382643  0.50476461  1
  In  In20  1  0.83528261  0.34800121  0.83212384  1
  In  In21  1  0.13559992  0.49713829  0.35115756  1
  In  In22  1  0.82493591  0.49919322  0.65348871  1
  In  In23  1  0.35247698  0.01110720  0.66654778  1
  In  In24  1  0.64276611  0.48192209  0.16176165  1
  In  In25  1  0.50496254  0.67615359  0.49027543  1
  In  In26  1  0.16292064  0.69005459  0.50379039  1
  In  In27  1  0.33430019  0.16893189  0.15404346  1
  In  In28  1  0.48369164  0.16580932  0.33997435  1
  In  In29  1  0.82199472  0.16025753  0.33681906  1
  In  In30  1  0.02317274  0.49448421  0.49745835  1
  In  In31  1  0.18403752  0.00018376  0.82616726  1
  In  In32  1  0.83485738  -0.00611873  0.16629915  1
  In  In33  1  0.48691710  0.50968226  -0.02260615  1
  In  In34  1  0.01664714  0.33010874  -0.00451398  1
  In  In35  1  0.18871444  0.32797990  0.19703009  1
  In  In36  1  0.20625615  0.81063571  -0.02593552  1
  In  In37  1  0.83737145  0.52008580  0.32261605  1
  In  In38  1  0.17975460  0.14778457  0.67332563  1
  In  In39  1  0.34693448  -0.00438334  0.37736515  1
  In  In40  1  -0.02432009  0.68228627  0.34725971  1
  In  In41  1  -0.03576577  0.52209883  0.14201478  1
  In  In42  1  0.65078476  -0.00577379  0.36568351  1
  In  In43  1  0.00595093  0.66756522  -0.03483685  1
  In  In44  1  0.16961085  0.00566299  0.16956659  1
  In  In45  1  0.33683642  0.65027376  0.33179926  1
  In  In46  1  0.02210735  0.30450450  0.67285591  1
  In  In47  1  0.32377846  0.31897622  0.38585278  1
  In  In48  1  0.34190063  0.82340184  0.53267278  1
  In  In49  1  0.47784150  0.33010450  0.53989770  1
  In  In50  1  0.34193024  0.51607549  0.15299298  1
  In  In51  1  0.64065453  0.17503327  0.83585727  1
  In  In52  1  0.66656303  0.83504341  0.83905395  1
  In  In53  1  0.17995778  0.16539677  0.36097720  1
  In  In54  1  0.34786347  0.33399196  -0.02757412  1
  In  In55  1  0.83406254  0.15121940  0.66112463  1
  In  In56  1  0.35083732  0.45993811  0.59644990  1
  In  In57  1  0.34308098  0.00968044  -0.00237202  1
  In  In58  1  0.50995106  0.84952698  0.00310691  1
  In  In59  1  0.01099159  0.01122787  0.31328970  1
  In  In60  1  0.19944687  0.84928513  0.31367653  1
  In  In61  1  -0.00575431  -0.00062251  -0.00013927  1
  In  In62  1  0.36611388  0.78849500  0.80386781  1
  In  In63  1  0.17116501  0.14403102  -0.02219964  1
  In  In64  1  0.61576590  0.68375613  0.67503069  1
  In  In65  1  0.18430693  0.32023726  0.80261166  1
  In  In66  1  0.15303547  0.84922926  0.65032907  1
  In  In67  1  0.67695865  0.67370989  -0.01534248  1
  In  In68  1  0.82801804  0.66111999  0.82692535  1
  In  In69  1  0.16355668  0.63995510  0.14328970  1
  In  In70  1  0.48977591  0.32894694  0.81701805  1
  In  In71  1  0.67398338  -0.01154675  0.64240873  1
  Te  Te72  1  0.07872697  0.09367886  0.08688662  1
  Te  Te73  1  0.09494017  0.06310934  0.42082016  1
  Te  Te74  1  0.08069750  0.07769381  0.75857609  1
  Te  Te75  1  0.08229943  0.41520826  0.11066641  1
  Te  Te76  1  0.11548320  0.37566234  0.44877290  1
  Te  Te77  1  0.12373137  0.42388871  0.70527709  1
  Te  Te78  1  0.09442701  0.74568480  0.06070619  1
  Te  Te79  1  0.08319135  0.77325724  0.40547148  1
  Te  Te80  1  0.07369380  0.76710858  0.75068027  1
  Te  Te81  1  0.43308681  0.08423255  0.08798819  1
  Te  Te82  1  0.45315794  0.07116803  0.45007573  1
  Te  Te83  1  0.44579037  0.11391765  0.72478218  1
  Te  Te84  1  0.42257975  0.41126388  0.07899693  1
  Te  Te85  1  0.40574052  0.42556611  0.44685148  1
  Te  Te86  1  0.39129014  0.41986943  0.74393026  1
  Te  Te87  1  0.42259543  0.74334378  0.07597749  1
  Te  Te88  1  0.40434712  0.76010496  0.40750905  1
  Te  Te89  1  0.46902599  0.72120144  0.71809207  1
  Te  Te90  1  0.73644380  0.06548561  0.07535702  1
  Te  Te91  1  0.75613001  0.07416519  0.44102369  1
  Te  Te92  1  0.72878443  0.08542010  0.74685799  1
  Te  Te93  1  0.76396104  0.44067849  0.07868088  1
  Te  Te94  1  0.76059449  0.44451063  0.43467891  1
  Te  Te95  1  0.74566616  0.44073539  0.76201312  1
  Te  Te96  1  0.70924047  0.78656460  0.08502031  1
  Te  Te97  1  0.70933034  0.72651234  0.38961278  1
  Te  Te98  1  0.74265415  0.74863336  0.74084724  1
  Te  Te99  1  0.08695282  0.24007980  0.26244644  1
  Te  Te100  1  0.07736456  0.20641300  0.58182355  1
  Te  Te101  1  0.08984743  0.24306403  0.89574051  1
  Te  Te102  1  0.06247565  0.59557256  0.25199687  1
  Te  Te103  1  0.06865203  0.60817301  0.58808643  1
  Te  Te104  1  0.09195840  0.57065844  0.88717592  1
  Te  Te105  1  0.08160164  0.90040412  0.23225675  1
  Te  Te106  1  0.06012415  0.94713593  0.59136801  1
  Te  Te107  1  0.10485598  0.91545185  0.92575238  1
  Te  Te108  1  0.39308531  0.26196080  0.26332424  1
  Te  Te109  1  0.40654707  0.22916461  0.62017502  1
  Te  Te110  1  0.43152285  0.23233903  0.91192063  1
  Te  Te111  1  0.44161882  0.58859135  0.24184990  1
  Te  Te112  1  0.41770590  0.59916376  0.58815795  1
  Te  Te113  1  0.42129603  0.56520483  0.85642860  1
  Te  Te114  1  0.44545725  0.93829689  0.28148263  1
  Te  Te115  1  0.43679475  0.90928807  0.60256577  1
  Te  Te116  1  0.40769000  0.90634203  0.90369137  1
  Te  Te117  1  0.74785508  0.28091397  0.28214805  1
  Te  Te118  1  0.75799663  0.26802848  0.59694838  1
  Te  Te119  1  0.74879090  0.25561273  0.92626489  1
  Te  Te120  1  0.71995267  0.58147844  0.25093453  1
  Te  Te121  1  0.72891867  0.59971161  0.59613578  1
  Te  Te122  1  0.73735783  0.57124554  0.89834839  1
  Te  Te123  1  0.73228754  0.92688756  0.25314228  1
  Te  Te124  1  0.78815907  0.91208549  0.58212978  1
  Te  Te125  1  0.75429213  0.93174866  0.90592055  1
  Te  Te126  1  0.23686744  0.25369699  0.07131920  1
  Te  Te127  1  0.28102664  0.20309866  0.46505688  1
  Te  Te128  1  0.28240200  0.25299537  0.71238825  1
  Te  Te129  1  0.26364685  0.58508855  0.04354282  1
  Te  Te130  1  0.23808465  0.58429043  0.42630597  1
  Te  Te131  1  0.32015704  0.55237625  0.71560687  1
  Te  Te132  1  0.26012383  0.91317632  0.08900103  1
  Te  Te133  1  0.24401410  0.90805007  0.44424003  1
  Te  Te134  1  0.26545068  0.90135144  0.74643166  1
  Te  Te135  1  0.58508093  0.24953631  0.10581515  1
  Te  Te136  1  0.57437748  0.26209824  0.43025857  1
  Te  Te137  1  0.59562437  0.26909718  0.73076699  1
  Te  Te138  1  0.57857960  0.59260122  0.07557706  1
  Te  Te139  1  0.55781672  0.55974967  0.41361248  1
  Te  Te140  1  0.54569017  0.59052603  0.76824586  1
  Te  Te141  1  0.52328836  0.92524437  0.13042069  1
  Te  Te142  1  0.59944339  0.86817060  0.42783378  1
  Te  Te143  1  0.58212517  0.91081224  0.73759111  1
  Te  Te144  1  0.91750593  0.24854517  0.07654244  1
  Te  Te145  1  0.92592423  0.20985592  0.43941962  1
  Te  Te146  1  0.91380008  0.24168669  0.75942537  1
  Te  Te147  1  0.89588859  0.63071153  0.06434005  1
  Te  Te148  1  0.91150356  0.58373589  0.44012152  1
  Te  Te149  1  0.92821580  0.57662011  0.74426192  1
  Te  Te150  1  0.91948609  0.89892272  0.08414209  1
  Te  Te151  1  0.91091463  0.93205766  0.39614457  1
  Te  Te152  1  0.87638420  0.91147595  0.71378528  1
  Te  Te153  1  0.26864791  0.07604851  0.26043727  1
  Te  Te154  1  0.25800596  0.07223646  0.57032348  1
  Te  Te155  1  0.28370403  0.09812890  0.88829828  1
  Te  Te156  1  0.25222412  0.45061228  0.25782010  1
  Te  Te157  1  0.21517554  0.40783702  0.56544691  1
  Te  Te158  1  0.24816193  0.41918367  0.89970589  1
  Te  Te159  1  0.24963004  0.72945410  0.23462089  1
  Te  Te160  1  0.25157238  0.73554675  0.61707081  1
  Te  Te161  1  0.25724037  0.71786037  0.87393378  1
  Te  Te162  1  0.60121841  0.10195416  0.26936641  1
  Te  Te163  1  0.57457586  0.07182344  0.56790803  1
  Te  Te164  1  0.57997794  0.07575307  0.92459871  1
  Te  Te165  1  0.56019005  0.39573157  0.24578695  1
  Te  Te166  1  0.58024419  0.40241494  0.62205687  1
  Te  Te167  1  0.58136345  0.41110883  0.91235019  1
  Te  Te168  1  0.59662880  0.77288174  0.29602128  1
  Te  Te169  1  0.60076855  0.77472009  0.55361499  1
  Te  Te170  1  0.56711745  0.74473384  0.90946166  1
  Te  Te171  1  0.91598879  0.10226768  0.23399112  1
  Te  Te172  1  0.89883435  0.02590470  0.61005807  1
  Te  Te173  1  0.91526695  0.06947658  0.89924133  1
  Te  Te174  1  0.92603723  0.41214544  0.26176056  1
  Te  Te175  1  0.93268792  0.40329031  0.58705679  1
  Te  Te176  1  0.92561396  0.42970705  0.92620357  1
  Te  Te177  1  0.89331469  0.75860349  0.24781799  1
  Te  Te178  1  0.87962925  0.75945118  0.55278937  1
  Te  Te179  1  0.92199636  0.77307434  0.89055718  1
