# generated using pymatgen
data_In2Te3
_symmetry_space_group_name_H-M   'P 1'
_cell_length_a   19.01385650
_cell_length_b   19.01894099
_cell_length_c   18.97055420
_cell_angle_alpha   90.25418525
_cell_angle_beta   90.06218506
_cell_angle_gamma   90.02341819
_symmetry_Int_Tables_number   1
_chemical_formula_structural   In2Te3
_chemical_formula_sum   'In72 Te108'
_cell_volume   6860.12445473
_cell_formula_units_Z   36
loop_
 _symmetry_equiv_pos_site_id
 _symmetry_equiv_pos_as_xyz
  1  'x, y, z'
loop_
 _atom_site_type_symbol
 _atom_site_label
 _atom_site_symmetry_multiplicity
 _atom_site_fract_x
 _atom_site_fract_y
 _atom_site_fract_z
 _atom_site_occupancy
  In  In0  1  0.34649564  0.51576091  0.82108485  1
  In  In1  1  0.16718336  0.73107777  0.51479008  1
  In  In2  1  0.68427413  0.18567622  0.49297108  1
  In  In3  1  0.84755501  0.83800399  0.63483958  1
  In  In4  1  0.66911685  0.48971904  0.51138700  1
  In  In5  1  0.83745323  0.30921174  0.16455220  1
  In  In6  1  0.19502518  0.50698609  0.00002936  1
  In  In7  1  -0.02433274  0.65914998  0.66645574  1
  In  In8  1  0.15473792  0.70248762  0.25357616  1
  In  In9  1  0.50008390  0.49636540  0.65967178  1
  In  In10  1  0.31401242  0.33773085  0.62251524  1
  In  In11  1  0.47364965  0.16029941  0.65674750  1
  In  In12  1  0.48696941  -0.00621875  0.85399116  1
  In  In13  1  0.82090942  0.63994816  0.48121159  1
  In  In14  1  0.85124543  0.48646606  0.32436630  1
  In  In15  1  0.34260906  0.69483627  0.05277913  1
  In  In16  1  0.49122119  0.53414428  0.33757337  1
  In  In17  1  0.64795054  0.84250762  0.17277095  1
  In  In18  1  0.30967734  0.14342203  0.84692901  1
  In  In19  1  0.16096377  0.50761526  0.68502571  1
  In  In20  1  0.65472634  0.14795554  0.81039943  1
  In  In21  1  0.02282039  0.16586574  0.18568693  1
  In  In22  1  0.84256728  0.84042662  0.02274947  1
  In  In23  1  0.64552965  0.67991981  0.01664800  1
  In  In24  1  0.18418787  0.35720120  0.18385442  1
  In  In25  1  0.03734757  0.86404189  0.31776166  1
  In  In26  1  0.02386066  0.34792042  0.36389003  1
  In  In27  1  0.02603634  0.65833701  0.00157892  1
  In  In28  1  0.67049891  0.31601285  0.31956720  1
  In  In29  1  0.66360551  0.67338529  0.31444143  1
  In  In30  1  0.47927357  0.85982308  0.66782716  1
  In  In31  1  0.50516077  -0.00172874  0.15006022  1
  In  In32  1  0.64530822  0.80748517  0.83570219  1
  In  In33  1  0.64134663  0.00808858  0.32085361  1
  In  In34  1  0.44255189  0.68838019  0.53447327  1
  In  In35  1  0.81033893  0.65748439  0.82742927  1
  In  In36  1  0.85326215  0.00460553  0.48530619  1
  In  In37  1  0.15189565  0.18205718  0.63192194  1
  In  In38  1  0.67356881  0.49767400  0.13465197  1
  In  In39  1  0.33466445  0.16556971  0.18920218  1
  In  In40  1  0.86238238  -0.00961319  0.20408612  1
  In  In41  1  0.49618274  0.50308277  -0.00844083  1
  In  In42  1  0.50083140  0.00746525  0.48386209  1
  In  In43  1  0.15082077  0.31497863  0.80652336  1
  In  In44  1  0.00436538  0.00719727  0.03319281  1
  In  In45  1  0.32487128  0.31359699  -0.01779311  1
  In  In46  1  0.83190163  0.47196534  0.67682450  1
  In  In47  1  0.03271315  0.51644545  0.16076421  1
  In  In48  1  0.88045387  0.67067820  0.18307311  1
  In  In49  1  0.51051704  0.16832004  -0.00330526  1
  In  In50  1  0.82044882  -0.00653104  0.82680748  1
  In  In51  1  0.04024911  0.00894620  0.60429384  1
  In  In52  1  0.66490871  0.14046762  0.13428691  1
  In  In53  1  0.83896620  0.14847674  0.00762249  1
  In  In54  1  0.33047004  0.84708107  0.83982932  1
  In  In55  1  0.17359525  0.84286727  0.05458597  1
  In  In56  1  0.35146604  0.00872355  0.33670925  1
  In  In57  1  0.66028029  0.49880714  0.80891462  1
  In  In58  1  0.15460015  -0.02974530  0.46043919  1
  In  In59  1  0.87269415  0.32095705  0.51983317  1
  In  In60  1  0.69425527  0.00067112  0.65949821  1
  In  In61  1  -0.02364815  0.21239978  0.84837580  1
  In  In62  1  0.15314898  -0.00175665  0.83607031  1
  In  In63  1  0.85960782  0.47404390  -0.06126301  1
  In  In64  1  0.48278485  0.35168654  0.19552390  1
  In  In65  1  0.62131073  0.66453269  0.65088471  1
  In  In66  1  -0.02157645  0.84323582  0.83976451  1
  In  In67  1  0.30413723  0.34532040  0.39231148  1
  In  In68  1  0.17236935  0.67598397  0.83365837  1
  In  In69  1  0.28403912  -0.00197212  0.64869002  1
  In  In70  1  0.33923782  0.49869654  0.19730666  1
  In  In71  1  0.65815272  0.32811693  -0.02396045  1
  Te  Te72  1  0.11192386  0.07504685  0.10699274  1
  Te  Te73  1  0.06335069  0.05590415  0.37782851  1
  Te  Te74  1  0.08631537  0.08442439  0.72955172  1
  Te  Te75  1  0.09896792  0.41353011  0.06983243  1
  Te  Te76  1  0.10609610  0.40647439  0.47277843  1
  Te  Te77  1  0.06822616  0.39001909  0.70800241  1
  Te  Te78  1  0.08623838  0.73620743  0.11555405  1
  Te  Te79  1  0.08340801  0.73637324  0.38810460  1
  Te  Te80  1  0.06307334  0.74891627  0.75687568  1
  Te  Te81  1  0.40871667  0.09310069  0.07749736  1
  Te  Te82  1  0.41439909  0.11024169  0.42544828  1
  Te  Te83  1  0.39410224  0.05606866  0.74707631  1
  Te  Te84  1  0.39916262  0.41452119  0.07726639  1
  Te  Te85  1  0.42501726  0.43438887  0.42412629  1
  Te  Te86  1  0.40047122  0.40775014  0.73232105  1
  Te  Te87  1  0.40185792  0.80354243  0.13319246  1
  Te  Te88  1  0.39750212  0.72556783  0.39636782  1
  Te  Te89  1  0.42092094  0.76433589  0.76087072  1
  Te  Te90  1  0.77053452  0.04304839  0.08942007  1
  Te  Te91  1  0.74598164  0.07950104  0.40606812  1
  Te  Te92  1  0.77975999  0.10286756  0.73090695  1
  Te  Te93  1  0.76605284  0.39784301  0.06013784  1
  Te  Te94  1  0.75089048  0.41106855  0.40848871  1
  Te  Te95  1  0.74707076  0.39103672  0.76395549  1
  Te  Te96  1  0.76211898  0.73919786  0.10098021  1
  Te  Te97  1  0.73860990  0.74219358  0.41924801  1
  Te  Te98  1  0.75738589  0.76570064  0.73713201  1
  Te  Te99  1  0.10702064  0.26130694  0.27100442  1
  Te  Te100  1  0.08118074  0.26316257  0.52701759  1
  Te  Te101  1  0.10676489  0.22459209  0.91192393  1
  Te  Te102  1  0.08942036  0.57195847  0.28353770  1
  Te  Te103  1  0.09706095  0.60967409  0.59319296  1
  Te  Te104  1  0.09404067  0.56534253  0.90198238  1
  Te  Te105  1  0.10412685  0.98163889  0.25282108  1
  Te  Te106  1  0.09733326  0.87897590  0.56363854  1
  Te  Te107  1  0.07907378  0.89976171  0.93880306  1
  Te  Te108  1  0.38806789  0.27477153  0.28042829  1
  Te  Te109  1  0.40780751  0.24399870  0.55503707  1
  Te  Te110  1  0.42203839  0.23719763  0.89546365  1
  Te  Te111  1  0.39183158  0.61938187  0.26717437  1
  Te  Te112  1  0.41512275  0.54227245  0.54614475  1
  Te  Te113  1  0.39460151  0.60043654  0.93775702  1
  Te  Te114  1  0.44668440  0.91901827  0.26209725  1
  Te  Te115  1  0.39445076  0.93336810  0.56767203  1
  Te  Te116  1  0.39380433  0.92756599  0.94476125  1
  Te  Te117  1  0.74940328  0.21376391  0.23848702  1
  Te  Te118  1  0.75798675  0.26581726  0.59099900  1
  Te  Te119  1  0.74561400  0.22191844  0.91459141  1
  Te  Te120  1  0.76463785  0.57605601  0.23606380  1
  Te  Te121  1  0.74494456  0.58935687  0.61296775  1
  Te  Te122  1  0.72464790  0.58134524  0.92649538  1
  Te  Te123  1  0.74636147  0.91160448  0.26348799  1
  Te  Te124  1  0.74543756  0.91061120  0.55162063  1
  Te  Te125  1  0.75170299  0.89147215  0.91327632  1
  Te  Te126  1  0.24790895  0.25037900  0.09367662  1
  Te  Te127  1  0.21627874  0.24342539  0.45530121  1
  Te  Te128  1  0.26224150  0.23289303  0.73054681  1
  Te  Te129  1  0.24880946  0.59088877  0.11202401  1
  Te  Te130  1  0.27378567  0.65043004  0.43914370  1
  Te  Te131  1  0.26642872  0.60945181  0.73491939  1
  Te  Te132  1  0.28576625  0.90437709  0.13246899  1
  Te  Te133  1  0.26601107  0.89587160  0.39437479  1
  Te  Te134  1  0.22351102  0.89768654  0.74543227  1
  Te  Te135  1  0.57398024  0.27524602  0.09259565  1
  Te  Te136  1  0.58184341  0.25907001  0.41862501  1
  Te  Te137  1  0.56336587  0.23831035  0.74317567  1
  Te  Te138  1  0.55589521  0.58911493  0.10092824  1
  Te  Te139  1  0.59734240  0.59373033  0.42905479  1
  Te  Te140  1  0.55461115  0.59892495  0.76616437  1
  Te  Te141  1  0.58803879  0.91484197  0.06149594  1
  Te  Te142  1  0.56611030  0.90738200  0.39716565  1
  Te  Te143  1  0.59338329  0.93047622  0.75214967  1
  Te  Te144  1  0.93848821  0.23703698  0.07767515  1
  Te  Te145  1  0.90608409  0.26541418  0.38857899  1
  Te  Te146  1  0.94781171  0.29265036  0.72975642  1
  Te  Te147  1  0.91917494  0.57092870  0.06790487  1
  Te  Te148  1  0.93214075  0.56130822  0.42282475  1
  Te  Te149  1  0.91565457  0.56568465  0.77075617  1
  Te  Te150  1  0.94564905  0.89604334  0.11737715  1
  Te  Te151  1  0.91637734  0.89966583  0.39839549  1
  Te  Te152  1  0.92362225  0.93014631  0.72852578  1
  Te  Te153  1  0.24132858  0.08559745  0.27122356  1
  Te  Te154  1  0.22973074  0.08684749  0.54009736  1
  Te  Te155  1  0.24889955  0.04640847  0.93716128  1
  Te  Te156  1  0.23904371  0.44452657  0.29656491  1
  Te  Te157  1  0.23162608  0.44758840  0.56522723  1
  Te  Te158  1  0.25153641  0.41092188  0.88911467  1
  Te  Te159  1  0.24788074  0.81842868  0.26000990  1
  Te  Te160  1  0.30616875  0.74739059  0.57075683  1
  Te  Te161  1  0.24114056  0.75258948  0.94557002  1
  Te  Te162  1  0.56327252  0.10996564  0.24042685  1
  Te  Te163  1  0.59160853  0.08258769  0.58519328  1
  Te  Te164  1  0.59877469  0.06757907  0.92626194  1
  Te  Te165  1  0.59171908  0.43911394  0.25540671  1
  Te  Te166  1  0.59539243  0.40269072  0.60107927  1
  Te  Te167  1  0.56284502  0.41090943  0.89381050  1
  Te  Te168  1  0.56254122  0.74002107  0.23219644  1
  Te  Te169  1  0.56595913  0.77735211  0.57292635  1
  Te  Te170  1  0.55385183  0.76466456  0.94117983  1
  Te  Te171  1  0.93213143  0.09614862  0.28168216  1
  Te  Te172  1  0.93609012  0.09927034  0.55984715  1
  Te  Te173  1  0.92753872  0.06324435  0.91082890  1
  Te  Te174  1  0.93403336  0.41107197  0.22175373  1
  Te  Te175  1  0.91952045  0.45564286  0.55827354  1
  Te  Te176  1  0.92985309  0.35632728  0.88510355  1
  Te  Te177  1  0.92053870  0.76511975  0.28752857  1
  Te  Te178  1  0.92097872  0.73926213  0.55038965  1
  Te  Te179  1  0.91113505  0.73462231  0.92530053  1
