# generated using pymatgen
data_In2Te3
_symmetry_space_group_name_H-M   'P 1'
_cell_length_a   18.84514094
_cell_length_b   18.84452044
_cell_length_c   18.83325837
_cell_angle_alpha   90.05855465
_cell_angle_beta   89.94767160
_cell_angle_gamma   90.07736726
_symmetry_Int_Tables_number   1
_chemical_formula_structural   In2Te3
_chemical_formula_sum   'In72 Te108'
_cell_volume   6688.19829718
_cell_formula_units_Z   36
loop_
 _symmetry_equiv_pos_site_id
 _symmetry_equiv_pos_as_xyz
  1  'x, y, z'
loop_
 _atom_site_type_symbol
 _atom_site_label
 _atom_site_symmetry_multiplicity
 _atom_site_fract_x
 _atom_site_fract_y
 _atom_site_fract_z
 _atom_site_occupancy
  In  In0  1  -0.00251956  0.32403578  0.00907334  1
  In  In1  1  0.83479178  0.30671524  0.82776719  1
  In  In2  1  0.66360349  0.12599364  0.52441128  1
  In  In3  1  0.49863353  0.84752795  -0.01643459  1
  In  In4  1  0.32653588  0.33384738  0.33075381  1
  In  In5  1  0.03003482  0.69656223  0.02520609  1
  In  In6  1  0.83286399  -0.01262614  0.17231199  1
  In  In7  1  0.64765028  -0.00065801  -0.01522016  1
  In  In8  1  0.81196374  0.69846954  0.80624374  1
  In  In9  1  -0.01062855  0.82629408  0.81949218  1
  In  In10  1  0.02266399  0.15604418  0.51019384  1
  In  In11  1  0.47472322  0.33485676  0.49832893  1
  In  In12  1  0.51201750  0.51807253  0.67364560  1
  In  In13  1  0.83108851  0.15262095  0.35379778  1
  In  In14  1  0.65731583  0.16124064  0.14896566  1
  In  In15  1  0.01359036  0.67828703  0.33099665  1
  In  In16  1  0.01292577  -0.02387450  0.66259259  1
  In  In17  1  0.31481133  0.17615613  0.52107265  1
  In  In18  1  0.18103039  0.66537962  0.51036002  1
  In  In19  1  0.33185579  0.00465411  -0.01652878  1
  In  In20  1  0.85947731  0.48594761  0.33731246  1
  In  In21  1  0.00455363  0.51657619  0.52377324  1
  In  In22  1  0.16717221  0.33339406  0.49343704  1
  In  In23  1  0.80504514  0.49872541  0.00583790  1
  In  In24  1  0.48631833  -0.01181564  0.13034547  1
  In  In25  1  0.48665313  0.00894769  0.52708253  1
  In  In26  1  0.33950733  0.68343209  -0.04059192  1
  In  In27  1  0.16241025  0.51725208  -0.01434012  1
  In  In28  1  0.86448726  0.66798923  0.17008945  1
  In  In29  1  0.17110113  -0.01627685  0.15752295  1
  In  In30  1  0.52115503  0.81827901  0.33450850  1
  In  In31  1  0.51723198  0.34111846  0.14965165  1
  In  In32  1  0.34715320  0.00593125  0.68761484  1
  In  In33  1  0.02249178  0.49640761  0.84184255  1
  In  In34  1  0.67999531  0.52066941  0.48857865  1
  In  In35  1  0.83445502  0.14216598  0.68707290  1
  In  In36  1  0.33204671  0.32045509  0.66892623  1
  In  In37  1  0.46941031  0.34508954  0.85924254  1
  In  In38  1  0.82474631  0.84448719  0.00175926  1
  In  In39  1  0.30301481  0.31383845  0.01532240  1
  In  In40  1  0.01039409  0.15839335  0.15166876  1
  In  In41  1  0.64669489  0.15017962  0.83495158  1
  In  In42  1  0.66847313  0.84452876  0.52096832  1
  In  In43  1  0.17708484  0.32971576  0.82195226  1
  In  In44  1  0.16659453  0.51049728  0.32446644  1
  In  In45  1  -0.00047716  0.69110452  0.65174085  1
  In  In46  1  0.65125488  0.67068945  -0.00733391  1
  In  In47  1  0.35891147  0.48728177  0.51407379  1
  In  In48  1  -0.01212013  -0.00078145  -0.00850128  1
  In  In49  1  0.81377927  0.68248475  0.52529168  1
  In  In50  1  0.33170373  0.85287414  0.51352506  1
  In  In51  1  0.30915979  0.00535015  0.32481411  1
  In  In52  1  0.67858726  0.00262439  0.32038808  1
  In  In53  1  0.34375745  0.67789414  0.30561242  1
  In  In54  1  0.66287084  0.51545074  0.14728624  1
  In  In55  1  0.33541205  0.84380555  0.15196222  1
  In  In56  1  0.00337954  0.15626472  0.84146955  1
  In  In57  1  0.34300950  0.68978187  0.71511682  1
  In  In58  1  -0.00154659  -0.01846269  0.38226235  1
  In  In59  1  0.64177175  0.49691639  0.80616963  1
  In  In60  1  0.33735045  0.51695290  0.15725450  1
  In  In61  1  0.17137510  -0.00001745  0.84088921  1
  In  In62  1  0.65983849  0.66464106  0.33968445  1
  In  In63  1  0.66392850  0.32661840  -0.01533648  1
  In  In64  1  0.49598944  0.18627995  0.33599503  1
  In  In65  1  0.85655044  0.50694734  0.65061379  1
  In  In66  1  0.62097710  0.73471551  0.69852635  1
  In  In67  1  0.01228053  0.30416843  0.31891368  1
  In  In68  1  0.00050491  0.48399270  0.18225124  1
  In  In69  1  0.66513970  0.31082778  0.66059566  1
  In  In70  1  0.18128232  0.83880786  0.34987575  1
  In  In71  1  0.67668809  0.34121939  0.33939919  1
  Te  Te72  1  0.09995747  0.07714131  0.05832567  1
  Te  Te73  1  0.09223343  0.09386557  0.39513964  1
  Te  Te74  1  0.09001106  0.08290990  0.74041016  1
  Te  Te75  1  0.09355860  0.41818176  0.08091210  1
  Te  Te76  1  0.06962951  0.42697763  0.40601726  1
  Te  Te77  1  0.08493858  0.41261399  0.74035903  1
  Te  Te78  1  0.12159241  0.78179060  0.09732641  1
  Te  Te79  1  0.08081712  0.75609485  0.44196120  1
  Te  Te80  1  0.09406018  0.77748621  0.72611866  1
  Te  Te81  1  0.39092822  0.09099757  0.08985270  1
  Te  Te82  1  0.40888584  0.09126090  0.41757805  1
  Te  Te83  1  0.46021337  0.06970241  0.75896364  1
  Te  Te84  1  0.40996727  0.41450904  0.07057705  1
  Te  Te85  1  0.42866200  0.43079040  0.39020703  1
  Te  Te86  1  0.40990747  0.42624731  0.74535004  1
  Te  Te87  1  0.42429175  0.74922223  0.07345798  1
  Te  Te88  1  0.40699602  0.75842021  0.41818873  1
  Te  Te89  1  0.42933063  0.79472101  0.78024106  1
  Te  Te90  1  0.75340358  0.07116190  0.07375285  1
  Te  Te91  1  0.76344639  0.04639520  0.43953325  1
  Te  Te92  1  0.72228179  0.05847980  0.74203243  1
  Te  Te93  1  0.74392077  0.39306299  0.09626702  1
  Te  Te94  1  0.77187987  0.41002038  0.43725651  1
  Te  Te95  1  0.75566501  0.40794513  0.74334893  1
  Te  Te96  1  0.75572702  0.73474606  0.08496946  1
  Te  Te97  1  0.74948432  0.76343390  0.41321185  1
  Te  Te98  1  0.75972497  0.80504005  0.71140404  1
  Te  Te99  1  0.10964693  0.25500224  0.21565145  1
  Te  Te100  1  0.10941362  0.24273127  0.59285230  1
  Te  Te101  1  0.09495162  0.24590975  0.92311260  1
  Te  Te102  1  0.09095902  0.59893618  0.22726364  1
  Te  Te103  1  0.10658105  0.58283888  0.61434240  1
  Te  Te104  1  0.08588415  0.62165270  0.90330865  1
  Te  Te105  1  0.08405106  0.92086415  0.26634466  1
  Te  Te106  1  0.05633397  0.90719465  0.53643752  1
  Te  Te107  1  0.07890345  0.90283859  0.91701071  1
  Te  Te108  1  0.41524070  0.25802014  0.23132499  1
  Te  Te109  1  0.43508097  0.23021356  0.59893042  1
  Te  Te110  1  0.38775093  0.23661410  0.91845538  1
  Te  Te111  1  0.43842083  0.59174837  0.23552242  1
  Te  Te112  1  0.40748339  0.60189220  0.59968633  1
  Te  Te113  1  0.41159778  0.58592529  0.87014338  1
  Te  Te114  1  0.41571719  0.91484023  0.26229501  1
  Te  Te115  1  0.43933463  0.89321216  0.61045033  1
  Te  Te116  1  0.39329301  0.90195976  0.89018327  1
  Te  Te117  1  0.74233671  0.23104016  0.25630845  1
  Te  Te118  1  0.76326729  0.22889798  0.58068292  1
  Te  Te119  1  0.75332443  0.22075683  0.92134147  1
  Te  Te120  1  0.76688287  0.57329867  0.25324965  1
  Te  Te121  1  0.73244713  0.58883667  0.61511565  1
  Te  Te122  1  0.74569471  0.58370880  0.89315114  1
  Te  Te123  1  0.75165795  0.89485970  0.25348372  1
  Te  Te124  1  0.72608100  0.93187607  0.62579375  1
  Te  Te125  1  0.73653628  0.91100695  0.90271486  1
  Te  Te126  1  0.22497887  0.23204014  0.11061521  1
  Te  Te127  1  0.23747416  0.23325371  0.40085547  1
  Te  Te128  1  0.26540448  0.22534360  0.76112806  1
  Te  Te129  1  0.25529794  0.60684188  0.06574273  1
  Te  Te130  1  0.26580749  0.58088100  0.41552313  1
  Te  Te131  1  0.27049969  0.59045570  0.80242505  1
  Te  Te132  1  0.23716122  0.89221883  0.04674421  1
  Te  Te133  1  0.23498064  0.94776417  0.44494889  1
  Te  Te134  1  0.24284382  0.91514517  0.74268921  1
  Te  Te135  1  0.56416371  0.23149074  0.05214437  1
  Te  Te136  1  0.59875347  0.24212962  0.43374657  1
  Te  Te137  1  0.57237628  0.26655490  0.77072744  1
  Te  Te138  1  0.56070949  0.57744558  0.06155702  1
  Te  Te139  1  0.56662535  0.59661628  0.43444357  1
  Te  Te140  1  0.54848669  0.61780305  0.78778265  1
  Te  Te141  1  0.60016963  0.90052601  0.09292131  1
  Te  Te142  1  0.57514467  0.93425389  0.42366441  1
  Te  Te143  1  0.57052992  0.86045561  0.76189728  1
  Te  Te144  1  0.90692965  0.22855367  0.07382100  1
  Te  Te145  1  0.92294202  0.24803179  0.42738325  1
  Te  Te146  1  0.93721525  0.24689764  0.73570859  1
  Te  Te147  1  0.92768857  0.56710993  0.06962490  1
  Te  Te148  1  0.91171904  0.60144301  0.42848399  1
  Te  Te149  1  0.92405312  0.59535632  0.75455789  1
  Te  Te150  1  0.93248324  0.90144555  0.09427407  1
  Te  Te151  1  0.92111386  0.88967162  0.46943313  1
  Te  Te152  1  0.91397617  0.94520241  0.77128627  1
  Te  Te153  1  0.25960708  0.09251401  0.21452630  1
  Te  Te154  1  0.24639700  0.07149197  0.59773360  1
  Te  Te155  1  0.26576298  0.10493660  0.89420257  1
  Te  Te156  1  0.24554251  0.41935559  0.23373218  1
  Te  Te157  1  0.24686092  0.42197748  0.59083685  1
  Te  Te158  1  0.25646447  0.42219795  0.91432690  1
  Te  Te159  1  0.23485174  0.75403246  0.23287863  1
  Te  Te160  1  0.25378434  0.75890532  0.60419974  1
  Te  Te161  1  0.24551723  0.73392661  0.85395379  1
  Te  Te162  1  0.56740276  0.08105927  0.24635256  1
  Te  Te163  1  0.56987505  0.07820087  0.63272082  1
  Te  Te164  1  0.54086138  0.06237653  0.89888103  1
  Te  Te165  1  0.58798723  0.42827424  0.25449996  1
  Te  Te166  1  0.58481266  0.41465555  0.57785799  1
  Te  Te167  1  0.57403730  0.43470472  0.92819632  1
  Te  Te168  1  0.58355988  0.73287636  0.23316433  1
  Te  Te169  1  0.58128720  0.72803384  0.55620759  1
  Te  Te170  1  0.61413490  0.78698806  0.90311387  1
  Te  Te171  1  0.92335077  0.07722378  0.25824022  1
  Te  Te172  1  0.91907634  0.06966836  0.58298072  1
  Te  Te173  1  0.89746078  0.06320174  0.89171161  1
  Te  Te174  1  0.90521783  0.37911141  0.23805549  1
  Te  Te175  1  0.93247114  0.40236014  0.58205712  1
  Te  Te176  1  0.90479676  0.41503223  0.91280394  1
  Te  Te177  1  0.92565902  0.76944201  0.25696784  1
  Te  Te178  1  0.89678366  0.78670792  0.59673323  1
  Te  Te179  1  0.90920950  0.73862539  0.92578292  1
