# generated using pymatgen
data_In2Te3
_symmetry_space_group_name_H-M   'P 1'
_cell_length_a   18.87192658
_cell_length_b   18.88668271
_cell_length_c   18.88212358
_cell_angle_alpha   89.93375400
_cell_angle_beta   90.05674530
_cell_angle_gamma   89.86778296
_symmetry_Int_Tables_number   1
_chemical_formula_structural   In2Te3
_chemical_formula_sum   'In72 Te108'
_cell_volume   6730.09349887
_cell_formula_units_Z   36
loop_
 _symmetry_equiv_pos_site_id
 _symmetry_equiv_pos_as_xyz
  1  'x, y, z'
loop_
 _atom_site_type_symbol
 _atom_site_label
 _atom_site_symmetry_multiplicity
 _atom_site_fract_x
 _atom_site_fract_y
 _atom_site_fract_z
 _atom_site_occupancy
  In  In0  1  0.64969562  0.18706733  0.84533284  1
  In  In1  1  0.18625379  0.83714676  0.01613029  1
  In  In2  1  0.24626948  0.33725103  0.45444653  1
  In  In3  1  0.15749287  0.82488947  0.65656459  1
  In  In4  1  0.31339646  0.01938842  0.32341237  1
  In  In5  1  0.67169674  0.84543008  0.50338777  1
  In  In6  1  0.15895413  0.50913706  0.01705824  1
  In  In7  1  0.84396577  0.84715670  0.30794210  1
  In  In8  1  0.85085384  0.85909666  0.65300133  1
  In  In9  1  0.65839435  0.51688016  0.83396103  1
  In  In10  1  0.19838417  0.64724575  0.46568144  1
  In  In11  1  0.31668784  0.46798181  0.21090942  1
  In  In12  1  0.01616192  0.47760020  0.83196732  1
  In  In13  1  0.31379941  0.81374449  0.84023695  1
  In  In14  1  0.83492458  0.02396992  0.49697800  1
  In  In15  1  0.50150495  0.00017936  0.83191223  1
  In  In16  1  0.84727452  0.17005653  0.33415041  1
  In  In17  1  0.49334328  0.82835410  0.34148516  1
  In  In18  1  0.00296388  0.14318015  0.85183380  1
  In  In19  1  -0.00151371  0.67090172  0.01002932  1
  In  In20  1  0.16528240  -0.01072203  0.83908191  1
  In  In21  1  0.80871721  0.32327238  0.84364549  1
  In  In22  1  0.83888367  0.85664594  0.01790659  1
  In  In23  1  0.49464441  0.82693973  -0.00417259  1
  In  In24  1  0.31960440  0.67105138  0.66434533  1
  In  In25  1  0.46216040  0.31069269  0.20288234  1
  In  In26  1  0.66653650  0.34116910  0.01458816  1
  In  In27  1  0.65912185  0.84146706  0.18172748  1
  In  In28  1  0.18469830  0.66086477  0.17645237  1
  In  In29  1  0.84958590  0.33209342  0.16702387  1
  In  In30  1  -0.01915872  0.16986339  0.50587450  1
  In  In31  1  0.51608758  0.00344198  0.49274627  1
  In  In32  1  -0.01203257  0.33880440  0.00438224  1
  In  In33  1  0.83577595  0.63115117  0.48515332  1
  In  In34  1  0.64271307  0.32948032  0.35008609  1
  In  In35  1  0.03365415  0.68180344  0.65765247  1
  In  In36  1  0.66253906  0.31472264  0.65296267  1
  In  In37  1  0.49107508  0.47728960  0.65351180  1
  In  In38  1  0.02110803  0.81499511  0.49309349  1
  In  In39  1  0.19230703  0.17427855  0.66591966  1
  In  In40  1  0.84878222  0.67091289  0.17260378  1
  In  In41  1  0.86941447  0.48707853  0.66994485  1
  In  In42  1  0.32758092  0.32864128  -0.00641560  1
  In  In43  1  0.34101911  0.00008028  0.63054084  1
  In  In44  1  0.81578507  0.17479115  0.67320786  1
  In  In45  1  0.17697747  0.00882158  0.49328987  1
  In  In46  1  0.81994480  0.66715171  0.83627374  1
  In  In47  1  0.00903578  -0.00732048  0.02589290  1
  In  In48  1  0.32858911  -0.00143708  0.03902925  1
  In  In49  1  0.32673853  0.83040183  0.14977961  1
  In  In50  1  0.49615293  0.49604970  -0.01317303  1
  In  In51  1  0.16347900  0.18550228  0.04141651  1
  In  In52  1  0.49069059  0.85853259  0.66197762  1
  In  In53  1  0.65195436  0.47390801  0.18483008  1
  In  In54  1  0.64929416  0.50745691  0.49013760  1
  In  In55  1  0.85143193  0.49322922  0.31215954  1
  In  In56  1  0.63829664  0.66652085  -0.00204342  1
  In  In57  1  0.03150194  0.49412761  0.17802630  1
  In  In58  1  0.66431413  0.15875114  0.15853348  1
  In  In59  1  0.00032298  0.33235998  0.65358990  1
  In  In60  1  0.67332011  0.01315597  0.00113989  1
  In  In61  1  0.02714722  0.49230591  0.48076920  1
  In  In62  1  0.33848789  0.15227851  0.84516068  1
  In  In63  1  0.17816003  0.33115229  0.81020631  1
  In  In64  1  0.46571002  0.67207487  0.48978569  1
  In  In65  1  0.65006275  0.16979792  0.49629003  1
  In  In66  1  0.64348660  0.67652824  0.34272620  1
  In  In67  1  0.66355125  0.67137692  0.68209462  1
  In  In68  1  0.34403731  0.52009888  0.81139665  1
  In  In69  1  0.02401379  -0.01318588  0.31673859  1
  In  In70  1  0.49052491  0.03770660  0.17531562  1
  In  In71  1  0.83638216  -0.01744258  0.83307354  1
  Te  Te72  1  0.05162494  0.11267628  0.10672039  1
  Te  Te73  1  0.07542245  0.09123239  0.41493471  1
  Te  Te74  1  0.09416300  0.08537815  0.74359766  1
  Te  Te75  1  0.10301857  0.38896766  0.09008985  1
  Te  Te76  1  0.11741678  0.40645394  0.40086949  1
  Te  Te77  1  0.10210343  0.42630226  0.71787833  1
  Te  Te78  1  0.08659884  0.75224584  0.10048127  1
  Te  Te79  1  0.11194868  0.74878584  0.39957387  1
  Te  Te80  1  0.09201094  0.75705768  0.76882311  1
  Te  Te81  1  0.39843964  0.11875137  0.09018386  1
  Te  Te82  1  0.42203490  0.08327788  0.40634523  1
  Te  Te83  1  0.41814461  0.08267580  0.73257813  1
  Te  Te84  1  0.41661306  0.41533624  0.09242231  1
  Te  Te85  1  0.37114548  0.42140082  0.42396262  1
  Te  Te86  1  0.42298200  0.40608095  0.76246623  1
  Te  Te87  1  0.41131297  0.73592035  0.07518939  1
  Te  Te88  1  0.38203681  0.73715636  0.38345417  1
  Te  Te89  1  0.41846919  0.75516273  0.74638748  1
  Te  Te90  1  0.76364182  0.05976757  0.10867229  1
  Te  Te91  1  0.73803145  0.08766202  0.40060397  1
  Te  Te92  1  0.74145528  0.08897047  0.77157434  1
  Te  Te93  1  0.76294037  0.43103989  0.09006885  1
  Te  Te94  1  0.74820836  0.42835364  0.40481334  1
  Te  Te95  1  0.74429045  0.41914460  0.74074365  1
  Te  Te96  1  0.74339646  0.74895687  0.09018241  1
  Te  Te97  1  0.75706313  0.74890686  0.41666392  1
  Te  Te98  1  0.75829217  0.77030514  0.74310519  1
  Te  Te99  1  0.14150732  0.24135784  0.26117016  1
  Te  Te100  1  0.09725126  0.24874409  0.57246655  1
  Te  Te101  1  0.08855264  0.25665557  0.90985417  1
  Te  Te102  1  0.10883928  0.57648261  0.27096906  1
  Te  Te103  1  0.10910124  0.58141048  0.57304778  1
  Te  Te104  1  0.08267358  0.58834319  0.91231360  1
  Te  Te105  1  0.09184284  0.90455905  0.21601931  1
  Te  Te106  1  0.07738090  0.92743374  0.57904033  1
  Te  Te107  1  0.07934056  0.90131326  0.92562402  1
  Te  Te108  1  0.40637003  0.22653117  0.31190568  1
  Te  Te109  1  0.37137643  0.31401995  0.54660064  1
  Te  Te110  1  0.42331533  0.24698522  0.91758677  1
  Te  Te111  1  0.37019255  0.59356464  0.27096599  1
  Te  Te112  1  0.39500178  0.56964351  0.57720208  1
  Te  Te113  1  0.41737548  0.59612406  0.91439799  1
  Te  Te114  1  0.41773007  0.92027091  0.24177460  1
  Te  Te115  1  0.41066724  0.89972230  0.54050391  1
  Te  Te116  1  0.39178529  0.92746517  0.91898835  1
  Te  Te117  1  0.74216522  0.26390161  0.25125332  1
  Te  Te118  1  0.76402464  0.25539842  0.55641576  1
  Te  Te119  1  0.75442305  0.23352814  0.95119479  1
  Te  Te120  1  0.73770584  0.58966749  0.25596306  1
  Te  Te121  1  0.74396532  0.57169080  0.59451011  1
  Te  Te122  1  0.74970556  0.57895864  0.93787205  1
  Te  Te123  1  0.75337960  0.94025803  0.23897819  1
  Te  Te124  1  0.74162041  0.94663466  0.59126460  1
  Te  Te125  1  0.73443271  0.90352656  0.91658986  1
  Te  Te126  1  0.28417915  0.24133759  0.10869390  1
  Te  Te127  1  0.25687549  0.21148886  0.35859294  1
  Te  Te128  1  0.29217334  0.25946959  0.74139950  1
  Te  Te129  1  0.27268676  0.56699238  0.09512849  1
  Te  Te130  1  0.28403623  0.54571374  0.38576880  1
  Te  Te131  1  0.23178536  0.59734701  0.75484280  1
  Te  Te132  1  0.21096594  0.94795249  0.12546735  1
  Te  Te133  1  0.23294726  0.91808953  0.39299135  1
  Te  Te134  1  0.26138845  0.92390048  0.73650970  1
  Te  Te135  1  0.56979503  0.26292870  0.09926330  1
  Te  Te136  1  0.54359146  0.24589829  0.42299467  1
  Te  Te137  1  0.56694305  0.24427447  0.73792739  1
  Te  Te138  1  0.57293897  0.57139774  0.09802698  1
  Te  Te139  1  0.54634124  0.57556866  0.40188994  1
  Te  Te140  1  0.55710347  0.58567304  0.74557451  1
  Te  Te141  1  0.56987600  0.92756902  0.08533051  1
  Te  Te142  1  0.60141608  0.92163260  0.39274002  1
  Te  Te143  1  0.59100530  0.91915055  0.74829354  1
  Te  Te144  1  0.92613524  0.23306886  0.08738685  1
  Te  Te145  1  0.93276162  0.26638824  0.40595362  1
  Te  Te146  1  0.92394300  0.25556776  0.76133409  1
  Te  Te147  1  0.92595616  0.56622914  0.09225942  1
  Te  Te148  1  0.94433604  0.58646381  0.39119897  1
  Te  Te149  1  0.93060686  0.59488920  0.75549938  1
  Te  Te150  1  0.93829343  0.89991459  0.11879690  1
  Te  Te151  1  0.91728670  0.91620375  0.42791707  1
  Te  Te152  1  0.93975158  0.91247074  0.75581512  1
  Te  Te153  1  0.21848517  0.10522366  0.24378835  1
  Te  Te154  1  0.27377717  0.11211547  0.55339424  1
  Te  Te155  1  0.22944013  0.08679957  0.93670728  1
  Te  Te156  1  0.19979303  0.38648406  0.25797775  1
  Te  Te157  1  0.27799862  0.42142936  0.57919861  1
  Te  Te158  1  0.24132923  0.42648946  0.91207074  1
  Te  Te159  1  0.26471212  0.75473120  0.26284168  1
  Te  Te160  1  0.25235693  0.75865687  0.56028904  1
  Te  Te161  1  0.25326225  0.72859139  0.94211149  1
  Te  Te162  1  0.58366389  0.10185653  0.26731703  1
  Te  Te163  1  0.58202245  0.08526326  0.59544750  1
  Te  Te164  1  0.56455079  0.09522283  0.93361526  1
  Te  Te165  1  0.54325507  0.41880914  0.27529475  1
  Te  Te166  1  0.57298266  0.39448242  0.55601176  1
  Te  Te167  1  0.58461172  0.40297764  0.90212831  1
  Te  Te168  1  0.55831126  0.73981411  0.23374770  1
  Te  Te169  1  0.58285942  0.74080281  0.57106622  1
  Te  Te170  1  0.57963029  0.75604824  0.89857577  1
  Te  Te171  1  0.93415173  0.08508657  0.25086317  1
  Te  Te172  1  0.91842303  0.08074440  0.61234960  1
  Te  Te173  1  0.90500131  0.07019234  0.93741019  1
  Te  Te174  1  0.95269416  0.39116118  0.26129107  1
  Te  Te175  1  0.91710375  0.40990634  0.55006668  1
  Te  Te176  1  0.90023103  0.42476505  0.91398122  1
  Te  Te177  1  0.93727971  0.74436693  0.26282015  1
  Te  Te178  1  0.90798234  0.73084155  0.57598195  1
  Te  Te179  1  0.90777512  0.75669236  0.92361321  1
