# generated using pymatgen
data_In2Te3
_symmetry_space_group_name_H-M   'P 1'
_cell_length_a   18.94918343
_cell_length_b   18.95125269
_cell_length_c   18.94338878
_cell_angle_alpha   90.19882351
_cell_angle_beta   90.05827513
_cell_angle_gamma   89.98188425
_symmetry_Int_Tables_number   1
_chemical_formula_structural   In2Te3
_chemical_formula_sum   'In72 Te108'
_cell_volume   6802.72999826
_cell_formula_units_Z   36
loop_
 _symmetry_equiv_pos_site_id
 _symmetry_equiv_pos_as_xyz
  1  'x, y, z'
loop_
 _atom_site_type_symbol
 _atom_site_label
 _atom_site_symmetry_multiplicity
 _atom_site_fract_x
 _atom_site_fract_y
 _atom_site_fract_z
 _atom_site_occupancy
  In  In0  1  0.68154743  0.32062409  0.01185369  1
  In  In1  1  0.52474317  0.00832879  0.83573493  1
  In  In2  1  0.66189772  0.33016300  0.65905362  1
  In  In3  1  0.50153285  0.83043314  0.00356996  1
  In  In4  1  0.28969254  0.51077776  0.17471267  1
  In  In5  1  0.82635758  0.50170683  -0.02266213  1
  In  In6  1  0.33183368  0.67610896  0.35446097  1
  In  In7  1  -0.00083843  0.80611351  0.86728536  1
  In  In8  1  0.33150312  0.17003103  0.15379812  1
  In  In9  1  0.68612518  0.17904359  0.47116147  1
  In  In10  1  0.14475226  0.82726034  0.33739757  1
  In  In11  1  0.33544757  0.17634732  0.50546115  1
  In  In12  1  0.64477556  0.14537000  0.14731454  1
  In  In13  1  0.47603019  0.49397407  -0.02638600  1
  In  In14  1  0.85181728  0.17154569  0.31859246  1
  In  In15  1  0.52387233  0.66601385  0.49758417  1
  In  In16  1  0.16532562  0.64636307  0.50350933  1
  In  In17  1  0.15081857  0.17346415  -0.00555253  1
  In  In18  1  0.01882730  0.35938765  0.36049911  1
  In  In19  1  0.00726149  0.33320414  0.65146297  1
  In  In20  1  0.03842571  0.51680624  0.12576777  1
  In  In21  1  0.30228291  0.34256139  -0.02099236  1
  In  In22  1  0.30881617  0.82391526  0.84593264  1
  In  In23  1  0.49808100  0.15299048  -0.01604813  1
  In  In24  1  0.50176711  0.49775328  0.63808891  1
  In  In25  1  0.82350903  0.00349820  0.49548681  1
  In  In26  1  0.70709549  -0.01535057  -0.00187957  1
  In  In27  1  0.15885433  0.02707611  0.49620118  1
  In  In28  1  0.83239303  0.84229292  0.32991194  1
  In  In29  1  0.49188596  0.50471500  0.35003806  1
  In  In30  1  0.85783074  0.34875520  0.19111996  1
  In  In31  1  0.31470417  0.49509550  0.50568855  1
  In  In32  1  0.69582617  0.66865168  0.00523503  1
  In  In33  1  0.35405260  0.83207016  0.51171740  1
  In  In34  1  -0.00884317  0.18140415  0.15815785  1
  In  In35  1  0.31933910  0.35008326  0.65708772  1
  In  In36  1  0.83990970  0.18025449  -0.00856928  1
  In  In37  1  0.16667753  0.16180392  0.32947768  1
  In  In38  1  0.72797808  0.48591346  0.50162124  1
  In  In39  1  0.00036653  0.00261962  0.65755135  1
  In  In40  1  0.30565718  0.33907928  0.32742634  1
  In  In41  1  -0.02894807  -0.02722885  0.02479269  1
  In  In42  1  0.86730277  0.35893356  0.82803309  1
  In  In43  1  0.84483563  0.68671160  0.16914704  1
  In  In44  1  0.50470655  -0.01946604  0.19441289  1
  In  In45  1  0.69566458  0.68574220  0.32424673  1
  In  In46  1  0.14984975  0.32599866  0.82573714  1
  In  In47  1  0.85412341  0.54161357  0.67816936  1
  In  In48  1  0.28690912  0.50688921  0.84477829  1
  In  In49  1  0.67870817  0.50221848  0.85098510  1
  In  In50  1  0.85005528  -0.03109090  0.84448247  1
  In  In51  1  0.48705725  0.66461905  0.83011087  1
  In  In52  1  0.15587407  -0.04950966  0.16110688  1
  In  In53  1  0.29719212  0.66109796  0.69407671  1
  In  In54  1  0.68235811  0.83237259  0.50179845  1
  In  In55  1  0.16581277  0.18027753  0.66637866  1
  In  In56  1  0.02319950  0.67018670  0.67042720  1
  In  In57  1  0.49001529  0.32695604  0.79958098  1
  In  In58  1  0.30085036  -0.01521449  0.00409426  1
  In  In59  1  0.83425112  0.15222889  0.66590952  1
  In  In60  1  0.67212846  0.70509870  0.69898411  1
  In  In61  1  0.33640228  -0.00522031  0.33414481  1
  In  In62  1  0.66938042  -0.02771632  0.68054713  1
  In  In63  1  0.16362770  -0.00890517  0.83365837  1
  In  In64  1  -0.00206503  0.82676972  0.51670283  1
  In  In65  1  0.46954683  0.34058758  0.19127394  1
  In  In66  1  0.15035402  0.69258711  0.14450764  1
  In  In67  1  0.51588338  0.67271134  0.15974705  1
  In  In68  1  0.68198722  0.54608761  0.17691399  1
  In  In69  1  0.50146998  0.14184212  0.64720762  1
  In  In70  1  0.52337260  -0.02003753  0.49173876  1
  In  In71  1  0.66331824  0.32800877  0.32305303  1
  Te  Te72  1  0.08247356  0.07282468  0.08720974  1
  Te  Te73  1  0.07215444  0.06545664  0.38538491  1
  Te  Te74  1  0.07951868  0.08967805  0.75317637  1
  Te  Te75  1  0.11698450  0.40341261  0.07552625  1
  Te  Te76  1  0.08210455  0.44726607  0.46328407  1
  Te  Te77  1  0.08983298  0.42554977  0.73549763  1
  Te  Te78  1  0.03835767  0.75967112  0.05952709  1
  Te  Te79  1  0.06708425  0.72833157  0.42165327  1
  Te  Te80  1  0.10230034  0.75746996  0.76672943  1
  Te  Te81  1  0.41571831  0.06816085  0.07925377  1
  Te  Te82  1  0.42097510  0.07731215  0.42821812  1
  Te  Te83  1  0.42822212  0.08987018  0.76192450  1
  Te  Te84  1  0.39275955  0.42117520  0.08466726  1
  Te  Te85  1  0.40767159  0.40566986  0.42340742  1
  Te  Te86  1  0.40356179  0.44533107  0.75206154  1
  Te  Te87  1  0.41437550  0.74289398  0.08206336  1
  Te  Te88  1  0.44401054  0.76158921  0.41044857  1
  Te  Te89  1  0.40560053  0.75501789  0.74245103  1
  Te  Te90  1  0.77214648  0.08737765  0.09006391  1
  Te  Te91  1  0.75174098  0.07437594  0.38255191  1
  Te  Te92  1  0.76083471  0.06306964  0.76312081  1
  Te  Te93  1  0.75457479  0.42622086  0.09390623  1
  Te  Te94  1  0.78161088  0.38829187  0.39578733  1
  Te  Te95  1  0.75154183  0.42346689  0.74283670  1
  Te  Te96  1  0.72985548  0.76848250  0.11336875  1
  Te  Te97  1  0.78288950  0.73947301  0.43550085  1
  Te  Te98  1  0.75777903  0.79299382  0.77657556  1
  Te  Te99  1  0.07747778  0.25848829  0.25539905  1
  Te  Te100  1  0.07589012  0.23541481  0.56535639  1
  Te  Te101  1  0.05892222  0.25006907  0.91079172  1
  Te  Te102  1  0.08026091  0.60309356  0.23712749  1
  Te  Te103  1  0.05698823  0.56337100  0.56460046  1
  Te  Te104  1  0.11429028  0.64847131  0.98412734  1
  Te  Te105  1  0.04882716  0.88136850  0.23628900  1
  Te  Te106  1  0.10142774  0.91678244  0.58433024  1
  Te  Te107  1  0.08247901  0.91487638  0.93598136  1
  Te  Te108  1  0.40222947  0.23253885  0.27247423  1
  Te  Te109  1  0.42564608  0.26462384  0.59012454  1
  Te  Te110  1  0.41427289  0.25939378  0.91450359  1
  Te  Te111  1  0.41220643  0.58420474  0.24902428  1
  Te  Te112  1  0.40748053  0.60029306  0.57463248  1
  Te  Te113  1  0.38318273  0.60041204  0.91979550  1
  Te  Te114  1  0.39827466  0.89650506  0.24514307  1
  Te  Te115  1  0.43500817  0.92281433  0.59269998  1
  Te  Te116  1  0.41428934  0.92081771  0.91453490  1
  Te  Te117  1  0.74489042  0.24679982  0.22210842  1
  Te  Te118  1  0.76520145  0.25451732  0.57747847  1
  Te  Te119  1  0.75941555  0.26615014  0.89583092  1
  Te  Te120  1  0.79197072  0.57962350  0.27177118  1
  Te  Te121  1  0.72998711  0.59743481  0.61017473  1
  Te  Te122  1  0.77331352  0.61391859  0.88606182  1
  Te  Te123  1  0.76548223  0.89533170  0.20709258  1
  Te  Te124  1  0.77694946  0.90408195  0.59840688  1
  Te  Te125  1  0.75762973  0.87158625  0.91213570  1
  Te  Te126  1  0.23221620  0.26395412  0.09149498  1
  Te  Te127  1  0.23073305  0.25537793  0.43040743  1
  Te  Te128  1  0.26442993  0.25331930  0.75884071  1
  Te  Te129  1  0.25032279  0.60565100  0.06945271  1
  Te  Te130  1  0.23805654  0.56586224  0.39572735  1
  Te  Te131  1  0.20329530  0.55357846  0.73093604  1
  Te  Te132  1  0.23358904  0.87094870  0.06523331  1
  Te  Te133  1  0.24639318  0.91049064  0.42366496  1
  Te  Te134  1  0.25386860  0.91612891  0.74704142  1
  Te  Te135  1  0.55510170  0.26198536  0.08872223  1
  Te  Te136  1  0.57571666  0.25654589  0.41468869  1
  Te  Te137  1  0.59031918  0.22848474  0.74461943  1
  Te  Te138  1  0.58381038  0.56739069  0.05443140  1
  Te  Te139  1  0.61095214  0.57953278  0.40817244  1
  Te  Te140  1  0.57765896  0.56939833  0.75195742  1
  Te  Te141  1  0.58915876  0.92838791  0.07904378  1
  Te  Te142  1  0.61137113  0.90894779  0.39910412  1
  Te  Te143  1  0.59374578  0.89177550  0.77738112  1
  Te  Te144  1  0.92147006  0.28347783  0.06891690  1
  Te  Te145  1  0.90731973  0.27282838  0.41109294  1
  Te  Te146  1  0.92473594  0.24369189  0.74673758  1
  Te  Te147  1  0.90913494  0.58593245  0.07547746  1
  Te  Te148  1  0.87269680  0.50012195  0.46105648  1
  Te  Te149  1  0.95004401  0.59418616  0.77594653  1
  Te  Te150  1  0.86269765  0.89149112  0.08573099  1
  Te  Te151  1  0.92652807  0.92184273  0.42066526  1
  Te  Te152  1  0.94610756  0.89849269  0.75241520  1
  Te  Te153  1  0.24350294  0.06869505  0.22933249  1
  Te  Te154  1  0.26024785  0.08216968  0.59593587  1
  Te  Te155  1  0.25238889  0.09450838  0.91434923  1
  Te  Te156  1  0.20793962  0.41814715  0.25232622  1
  Te  Te157  1  0.21501032  0.40370599  0.56603835  1
  Te  Te158  1  0.18981747  0.44151120  0.94500105  1
  Te  Te159  1  0.24743267  0.75081987  0.25639874  1
  Te  Te160  1  0.24504355  0.74836031  0.58160823  1
  Te  Te161  1  0.20462625  0.72211050  0.88030627  1
  Te  Te162  1  0.56941439  0.09333754  0.25985268  1
  Te  Te163  1  0.62150271  0.07867243  0.57599276  1
  Te  Te164  1  0.61957749  0.09028865  0.92321838  1
  Te  Te165  1  0.58240076  0.43430563  0.23853453  1
  Te  Te166  1  0.59518582  0.41625217  0.55352263  1
  Te  Te167  1  0.57987510  0.39766321  0.90934058  1
  Te  Te168  1  0.58769026  0.75823007  0.25528936  1
  Te  Te169  1  0.58019595  0.76678038  0.59568250  1
  Te  Te170  1  0.58560173  0.73550165  0.91995953  1
  Te  Te171  1  0.92197209  0.07609303  0.23229532  1
  Te  Te172  1  0.92705382  0.09400564  0.56083980  1
  Te  Te173  1  0.92645199  0.07634391  0.92174662  1
  Te  Te174  1  0.96102595  0.44125336  0.24520106  1
  Te  Te175  1  0.89874432  0.42389793  0.59422328  1
  Te  Te176  1  0.94671854  0.45452025  0.90579209  1
  Te  Te177  1  0.93611820  0.75725603  0.26248897  1
  Te  Te178  1  0.91444347  0.73967938  0.59909867  1
  Te  Te179  1  0.91604727  0.74591619  0.97451973  1
