# generated using pymatgen
data_In2Te3
_symmetry_space_group_name_H-M   'P 1'
_cell_length_a   18.97411226
_cell_length_b   18.93675524
_cell_length_c   18.92529238
_cell_angle_alpha   89.90054787
_cell_angle_beta   89.84227243
_cell_angle_gamma   89.99243891
_symmetry_Int_Tables_number   1
_chemical_formula_structural   In2Te3
_chemical_formula_sum   'In72 Te108'
_cell_volume   6799.97515634
_cell_formula_units_Z   36
loop_
 _symmetry_equiv_pos_site_id
 _symmetry_equiv_pos_as_xyz
  1  'x, y, z'
loop_
 _atom_site_type_symbol
 _atom_site_label
 _atom_site_symmetry_multiplicity
 _atom_site_fract_x
 _atom_site_fract_y
 _atom_site_fract_z
 _atom_site_occupancy
  In  In0  1  0.32347064  0.84360703  0.16242225  1
  In  In1  1  0.33718782  0.48849829  0.84646812  1
  In  In2  1  -0.02578942  0.51888999  0.81928940  1
  In  In3  1  0.84916644  0.18710142  -0.02876737  1
  In  In4  1  0.52506653  0.66187543  0.82028489  1
  In  In5  1  0.34265521  0.19079095  0.20499104  1
  In  In6  1  0.70046330  0.12694910  0.82887530  1
  In  In7  1  0.50753447  0.01427280  0.49079972  1
  In  In8  1  0.33773792  0.18806822  0.82415026  1
  In  In9  1  0.84795454  0.32901365  0.81827922  1
  In  In10  1  0.49346999  0.81139119  0.01159249  1
  In  In11  1  0.31928552  0.86820785  0.85018996  1
  In  In12  1  0.31973448  0.02259372  0.04887999  1
  In  In13  1  0.83847044  0.81402227  -0.00128210  1
  In  In14  1  0.33330725  0.34764946  0.59726726  1
  In  In15  1  0.65954015  0.17858122  0.47981519  1
  In  In16  1  0.82040313  0.65211236  0.18388095  1
  In  In17  1  0.50745682  0.18406968  0.33469052  1
  In  In18  1  0.67537921  0.81930936  0.51758297  1
  In  In19  1  0.49572837  0.00664691  0.18011109  1
  In  In20  1  0.49348943  0.15182335  0.65704027  1
  In  In21  1  0.48398170  0.48043696  0.61182822  1
  In  In22  1  0.82263072  0.35435429  0.16792989  1
  In  In23  1  0.66933312  0.82934035  0.20245833  1
  In  In24  1  -0.01127150  0.67355571  0.00107108  1
  In  In25  1  0.69390390  0.48260525  0.52498289  1
  In  In26  1  0.52187037  0.83364040  0.65732011  1
  In  In27  1  0.87338152  0.84698044  0.45438836  1
  In  In28  1  -0.06731685  0.10511222  0.76379928  1
  In  In29  1  0.19522389  0.64497096  0.18991342  1
  In  In30  1  0.64130983  0.33828552  0.01347027  1
  In  In31  1  0.31180365  0.18857265  0.45774087  1
  In  In32  1  0.16060350  0.30610478  0.81762111  1
  In  In33  1  0.12807071  0.81958003  -0.03627335  1
  In  In34  1  0.49632275  0.63673884  0.48192046  1
  In  In35  1  0.69116354  -0.01479119  0.00456772  1
  In  In36  1  0.84459684  0.02700045  0.15105606  1
  In  In37  1  0.31704131  0.82422076  0.50988106  1
  In  In38  1  -0.01256590  0.67572192  0.63441819  1
  In  In39  1  -0.05897740  0.84515214  0.78579103  1
  In  In40  1  0.33922242  0.33023060  -0.00850109  1
  In  In41  1  0.32221904  0.01226055  0.67567130  1
  In  In42  1  0.68276494  0.19341470  0.20631390  1
  In  In43  1  0.68991183  -0.02553289  0.36036067  1
  In  In44  1  0.00161213  0.35229997  -0.00095001  1
  In  In45  1  0.16733668  0.67072166  0.48131916  1
  In  In46  1  0.70611237  0.78640856  0.80531709  1
  In  In47  1  0.32460949  0.47860428  0.20161821  1
  In  In48  1  0.50720116  0.50534849  0.01582926  1
  In  In49  1  0.66044001  0.65394861  0.35109293  1
  In  In50  1  0.15819087  -0.00773535  0.52504817  1
  In  In51  1  0.02231509  0.33391440  0.31842183  1
  In  In52  1  0.14302759  0.01062250  0.83871682  1
  In  In53  1  0.64322106  0.49230136  0.17853490  1
  In  In54  1  -0.04137596  0.47608454  0.49123712  1
  In  In55  1  0.31273037  0.67548720  0.01254644  1
  In  In56  1  0.70668542  0.30107496  0.66577393  1
  In  In57  1  0.02772689  0.17400077  0.16974507  1
  In  In58  1  0.00520826  0.83819918  0.17139584  1
  In  In59  1  0.11757719  0.63772293  0.79755395  1
  In  In60  1  0.69350248  0.55132596  0.80111318  1
  In  In61  1  0.52031389  0.33755583  0.82404955  1
  In  In62  1  0.34574367  0.68461040  0.68209371  1
  In  In63  1  0.16510828  0.47515319  0.65229484  1
  In  In64  1  -0.01969304  0.66522111  0.36925432  1
  In  In65  1  0.33550948  0.65015273  0.33749517  1
  In  In66  1  0.16753945  0.18012251  0.00805426  1
  In  In67  1  0.16296910  0.00635079  0.17325020  1
  In  In68  1  0.00790276  0.50151556  0.16353607  1
  In  In69  1  0.53464921  -0.03496799  0.84100660  1
  In  In70  1  0.08509943  0.15548606  0.58982660  1
  In  In71  1  0.86170143  0.17139118  0.34120041  1
  Te  Te72  1  0.07764752  0.07332912  0.06664165  1
  Te  Te73  1  0.09315745  0.10352877  0.44704670  1
  Te  Te74  1  0.08756600  0.10627799  0.73921121  1
  Te  Te75  1  0.09291810  0.39876365  0.10192670  1
  Te  Te76  1  0.07215734  0.45205332  0.39487610  1
  Te  Te77  1  0.07519532  0.41666284  0.76025917  1
  Te  Te78  1  0.09626341  0.73536288  0.08954169  1
  Te  Te79  1  0.06413235  0.76501822  0.43722004  1
  Te  Te80  1  0.06374304  0.76277555  0.73574070  1
  Te  Te81  1  0.42856391  0.11331653  0.09707933  1
  Te  Te82  1  0.41176487  0.08419828  0.40021638  1
  Te  Te83  1  0.43107200  0.06300387  0.77050364  1
  Te  Te84  1  0.41560191  0.41424269  0.09073058  1
  Te  Te85  1  0.40902456  0.42469753  0.49541008  1
  Te  Te86  1  0.41597767  0.41101699  0.74294410  1
  Te  Te87  1  0.41419105  0.72907862  0.11062597  1
  Te  Te88  1  0.41484534  0.75047032  0.42218709  1
  Te  Te89  1  0.42480290  0.78271444  0.76966658  1
  Te  Te90  1  0.73839655  0.11189318  0.08314530  1
  Te  Te91  1  0.77057823  0.08075058  0.42626728  1
  Te  Te92  1  0.78846112  0.09462063  0.71525557  1
  Te  Te93  1  0.74249747  0.43435742  0.06949896  1
  Te  Te94  1  0.82106988  0.40397158  0.49398524  1
  Te  Te95  1  0.75530439  0.42495571  0.74399950  1
  Te  Te96  1  0.74204447  0.74728251  0.09470077  1
  Te  Te97  1  0.75629081  0.76092812  0.40354697  1
  Te  Te98  1  0.76503711  0.69792200  0.70085181  1
  Te  Te99  1  0.12250361  0.23332897  0.26723564  1
  Te  Te100  1  0.04975333  0.30118199  0.55655901  1
  Te  Te101  1  0.06353483  0.24138257  0.91560276  1
  Te  Te102  1  0.07134610  0.59962778  0.26022985  1
  Te  Te103  1  0.08259919  0.57413956  0.57165354  1
  Te  Te104  1  0.07701506  0.57376158  0.92649488  1
  Te  Te105  1  0.08480190  0.91997208  0.26180777  1
  Te  Te106  1  0.02927944  0.95045143  0.59220179  1
  Te  Te107  1  0.03780368  0.91305993  0.88841930  1
  Te  Te108  1  0.41955736  0.29211500  0.28157412  1
  Te  Te109  1  0.42792355  0.23316092  0.55116259  1
  Te  Te110  1  0.44217035  0.24570762  0.91869935  1
  Te  Te111  1  0.42627759  0.55840755  0.26851367  1
  Te  Te112  1  0.37960911  0.58785833  0.57229861  1
  Te  Te113  1  0.41486675  0.59893292  0.91653244  1
  Te  Te114  1  0.41080454  0.91525061  0.25539845  1
  Te  Te115  1  0.41930100  0.92666597  0.59172686  1
  Te  Te116  1  0.41918485  0.92863725  0.94871529  1
  Te  Te117  1  0.76841412  0.28297239  0.29217339  1
  Te  Te118  1  0.77568711  0.24115548  0.55009783  1
  Te  Te119  1  0.73189331  0.26014910  0.90918736  1
  Te  Te120  1  0.74695128  0.55506506  0.27331718  1
  Te  Te121  1  0.76813843  0.60097591  0.57840556  1
  Te  Te122  1  0.76169932  0.64581781  0.88806626  1
  Te  Te123  1  0.77816359  0.92601905  0.24639266  1
  Te  Te124  1  0.78518213  0.90926694  0.57097115  1
  Te  Te125  1  0.75862536  0.89944985  0.90203251  1
  Te  Te126  1  0.25425043  0.26146090  0.09758984  1
  Te  Te127  1  0.23665238  0.28864861  0.37476415  1
  Te  Te128  1  0.26686421  0.26554568  0.71868709  1
  Te  Te129  1  0.25293107  0.55633295  0.08281747  1
  Te  Te130  1  0.23577664  0.56181766  0.40570747  1
  Te  Te131  1  0.24785963  0.57181127  0.75078385  1
  Te  Te132  1  0.22540038  0.90181164  0.05535493  1
  Te  Te133  1  0.24453997  0.92064797  0.42959319  1
  Te  Te134  1  0.22384908  0.91908314  0.74402032  1
  Te  Te135  1  0.57502580  0.26549560  0.12707267  1
  Te  Te136  1  0.59391624  0.28490814  0.40077504  1
  Te  Te137  1  0.59168514  0.22388508  0.75035572  1
  Te  Te138  1  0.59438157  0.59705696  0.08720915  1
  Te  Te139  1  0.59340577  0.53589202  0.42222271  1
  Te  Te140  1  0.56875599  0.56434956  0.71748021  1
  Te  Te141  1  0.58737452  0.91230364  0.09027509  1
  Te  Te142  1  0.57731259  0.89742635  0.42509006  1
  Te  Te143  1  0.62564551  0.90925846  0.73640398  1
  Te  Te144  1  0.91229967  0.25227942  0.09807365  1
  Te  Te145  1  0.96060371  0.24575669  0.42376417  1
  Te  Te146  1  0.93249169  0.25318630  0.72545929  1
  Te  Te147  1  0.90374610  0.57713490  0.08086941  1
  Te  Te148  1  0.87623440  0.59952533  0.45350686  1
  Te  Te149  1  0.89542910  0.58435520  0.71033062  1
  Te  Te150  1  0.91972168  0.91718873  0.07441217  1
  Te  Te151  1  0.96514293  0.96482174  0.44709434  1
  Te  Te152  1  0.85495415  0.94068115  0.71006400  1
  Te  Te153  1  0.26042368  0.07881093  0.25497092  1
  Te  Te154  1  0.25861694  0.10649403  0.57964608  1
  Te  Te155  1  0.25663281  0.09190607  0.91092374  1
  Te  Te156  1  0.22695222  0.42785568  0.30322033  1
  Te  Te157  1  0.19177610  0.37151344  0.54700115  1
  Te  Te158  1  0.23167945  0.40307188  0.91407688  1
  Te  Te159  1  0.24843572  0.76077305  0.26726722  1
  Te  Te160  1  0.23060116  0.74650425  0.60497880  1
  Te  Te161  1  0.24142039  0.74260625  0.89504599  1
  Te  Te162  1  0.60633340  0.07391006  0.26831088  1
  Te  Te163  1  0.60467436  0.07605341  0.58604717  1
  Te  Te164  1  0.59378877  0.07517944  0.92562725  1
  Te  Te165  1  0.57333130  0.37501678  0.23517435  1
  Te  Te166  1  0.60173612  0.38304872  0.59377490  1
  Te  Te167  1  0.59350304  0.44301020  0.90503883  1
  Te  Te168  1  0.57573231  0.73792072  0.26568857  1
  Te  Te169  1  0.58040936  0.71845985  0.58154305  1
  Te  Te170  1  0.59540885  0.75695481  0.91388242  1
  Te  Te171  1  0.94356299  0.07797378  0.25343696  1
  Te  Te172  1  0.95505543  0.07958561  0.55448877  1
  Te  Te173  1  0.90678132  0.07128254  0.90707936  1
  Te  Te174  1  0.91434919  0.43079070  0.26046301  1
  Te  Te175  1  0.93331763  0.38691327  0.61364559  1
  Te  Te176  1  0.89880861  0.42949334  0.92022986  1
  Te  Te177  1  0.91609824  0.74631846  0.25345754  1
  Te  Te178  1  0.89012444  0.77992692  0.58684737  1
  Te  Te179  1  0.90623650  0.72856930  0.88580648  1
