# generated using pymatgen
data_In2Te3
_symmetry_space_group_name_H-M   'P 1'
_cell_length_a   18.89577145
_cell_length_b   18.89613503
_cell_length_c   18.91528287
_cell_angle_alpha   89.89625089
_cell_angle_beta   89.92232719
_cell_angle_gamma   89.99230922
_symmetry_Int_Tables_number   1
_chemical_formula_structural   In2Te3
_chemical_formula_sum   'In72 Te108'
_cell_volume   6753.81774112
_cell_formula_units_Z   36
loop_
 _symmetry_equiv_pos_site_id
 _symmetry_equiv_pos_as_xyz
  1  'x, y, z'
loop_
 _atom_site_type_symbol
 _atom_site_label
 _atom_site_symmetry_multiplicity
 _atom_site_fract_x
 _atom_site_fract_y
 _atom_site_fract_z
 _atom_site_occupancy
  In  In0  1  0.00099346  0.50413775  0.16079033  1
  In  In1  1  0.84240833  0.63616886  0.82851370  1
  In  In2  1  0.52736692  0.67437214  0.50152014  1
  In  In3  1  0.65273716  0.32395808  0.33685724  1
  In  In4  1  0.16906606  0.66999199  0.17977445  1
  In  In5  1  0.83537071  0.85688513  0.03986344  1
  In  In6  1  0.84644654  -0.00323332  0.85450643  1
  In  In7  1  0.15013519  -0.01964287  0.52742162  1
  In  In8  1  0.81825299  0.00992239  0.18361095  1
  In  In9  1  0.82528684  0.32350822  0.16866364  1
  In  In10  1  0.49787050  0.50314543  0.65663039  1
  In  In11  1  0.34804067  0.32339113  0.00822137  1
  In  In12  1  0.01820008  0.49645000  0.49293158  1
  In  In13  1  0.66158209  0.68465648  -0.00762336  1
  In  In14  1  0.63964870  0.83171385  0.49534248  1
  In  In15  1  0.17433574  0.29088650  0.16567352  1
  In  In16  1  0.17001581  -0.00399493  0.80397534  1
  In  In17  1  0.82448754  -0.00888569  0.48016458  1
  In  In18  1  0.86149638  0.44556242  0.00302878  1
  In  In19  1  0.50430033  0.01117447  0.85041201  1
  In  In20  1  0.49028934  0.31575870  0.82389135  1
  In  In21  1  0.00699410  0.34062719  0.33885987  1
  In  In22  1  0.52839757  0.88087059  0.03367823  1
  In  In23  1  0.43648099  0.31875122  0.21067044  1
  In  In24  1  0.31296268  0.01336043  0.01232526  1
  In  In25  1  0.86950452  0.51821282  0.67811776  1
  In  In26  1  0.16221257  0.31913360  0.81878856  1
  In  In27  1  0.15988471  0.65647143  0.49803857  1
  In  In28  1  0.31450960  0.48678400  0.18706957  1
  In  In29  1  0.32597925  0.15525610  0.48668616  1
  In  In30  1  0.00925170  0.30541741  -0.02810880  1
  In  In31  1  0.62585233  0.13081593  0.20222690  1
  In  In32  1  0.67840877  0.66871660  0.33740625  1
  In  In33  1  0.48947756  0.15188253  0.66794425  1
  In  In34  1  0.85997621  0.68320837  0.50882265  1
  In  In35  1  0.32575741  0.50989151  0.82732999  1
  In  In36  1  0.19500968  0.85268692  -0.04755473  1
  In  In37  1  0.17044715  0.50685721  0.01757173  1
  In  In38  1  0.45356086  0.46521568  0.35495582  1
  In  In39  1  0.49641088  0.14675949  0.00768230  1
  In  In40  1  -0.00818894  0.65981125  0.31232768  1
  In  In41  1  0.16953783  0.83056118  0.32244199  1
  In  In42  1  0.67545582  0.85688010  0.83784600  1
  In  In43  1  0.85573970  0.84823165  0.68329390  1
  In  In44  1  0.65406996  0.69410425  0.65130455  1
  In  In45  1  0.02767524  0.70387151  -0.04574003  1
  In  In46  1  0.64355195  0.33651029  0.67503712  1
  In  In47  1  0.01548890  0.16870469  0.49241427  1
  In  In48  1  -0.00011105  0.83282509  0.81831687  1
  In  In49  1  0.65138851  0.30771151  0.01926453  1
  In  In50  1  0.85996349  0.17219635  0.65814338  1
  In  In51  1  -0.00141701  0.00516843  0.33754818  1
  In  In52  1  0.64935760  0.15265716  0.47254978  1
  In  In53  1  0.82103611  0.17443086  -0.00138830  1
  In  In54  1  0.86454212  0.30191067  0.79890095  1
  In  In55  1  0.64722085  0.52750915  0.18252832  1
  In  In56  1  0.17764061  0.67465375  0.81269051  1
  In  In57  1  0.33263334  0.01816611  0.32611018  1
  In  In58  1  0.49172673  0.67952208  0.15874815  1
  In  In59  1  0.47381897  0.67208427  0.80002036  1
  In  In60  1  0.34025790  0.68302861  0.66134396  1
  In  In61  1  0.68059610  0.01538073  0.67942154  1
  In  In62  1  0.85387820  0.67376937  0.14180484  1
  In  In63  1  0.02334503  0.32093175  0.65690243  1
  In  In64  1  -0.00720161  0.85660809  0.17093131  1
  In  In65  1  0.67862030  0.48043218  0.51653034  1
  In  In66  1  0.66685272  0.47620399  0.84277536  1
  In  In67  1  0.25611965  0.30806998  0.61173103  1
  In  In68  1  0.48873089  0.86360270  0.31761015  1
  In  In69  1  0.81792412  0.32027369  0.49158996  1
  In  In70  1  0.31599573  0.67142735  0.34905625  1
  In  In71  1  0.36177598  0.86617567  0.52106114  1
  Te  Te72  1  0.13896284  0.14528969  0.12578494  1
  Te  Te73  1  0.10966389  0.07733336  0.41560723  1
  Te  Te74  1  0.07049569  0.07477502  0.72941038  1
  Te  Te75  1  0.07713156  0.40126096  0.07750660  1
  Te  Te76  1  0.10511383  0.39170106  0.43770089  1
  Te  Te77  1  0.09434869  0.42048839  0.73653114  1
  Te  Te78  1  0.06996175  0.74720323  0.09273690  1
  Te  Te79  1  0.07573251  0.74586844  0.40532525  1
  Te  Te80  1  0.11444201  0.78473361  0.73017724  1
  Te  Te81  1  0.42749684  0.05531915  0.10370623  1
  Te  Te82  1  0.43215695  0.06335655  0.43042106  1
  Te  Te83  1  0.40368542  0.08263376  0.76716554  1
  Te  Te84  1  0.41854589  0.42464862  0.09552045  1
  Te  Te85  1  0.35663349  0.38098408  0.42849243  1
  Te  Te86  1  0.40879762  0.41380105  0.74050813  1
  Te  Te87  1  0.43050090  0.77580057  0.06678017  1
  Te  Te88  1  0.42461174  0.75615169  0.41519765  1
  Te  Te89  1  0.38398672  0.78563461  0.76185308  1
  Te  Te90  1  0.72947659  0.09792864  0.09254655  1
  Te  Te91  1  0.75460849  0.08715474  0.39433877  1
  Te  Te92  1  0.77346154  0.09859252  0.76218445  1
  Te  Te93  1  0.73069726  0.42165027  0.09572670  1
  Te  Te94  1  0.75379938  0.42120541  0.39807748  1
  Te  Te95  1  0.76137757  0.42039919  0.73474966  1
  Te  Te96  1  0.73295052  0.75886215  0.10176714  1
  Te  Te97  1  0.75734259  0.76214300  0.42657728  1
  Te  Te98  1  0.75508601  0.74744567  0.75575435  1
  Te  Te99  1  0.06780774  0.23236136  0.25678413  1
  Te  Te100  1  0.12037391  0.23810212  0.57693142  1
  Te  Te101  1  0.11877037  0.21876648  0.92152221  1
  Te  Te102  1  0.09828880  0.56241735  0.26121562  1
  Te  Te103  1  0.06860307  0.59025952  0.59431632  1
  Te  Te104  1  0.09464400  0.57757581  0.90607978  1
  Te  Te105  1  0.10162535  0.93594048  0.23923727  1
  Te  Te106  1  0.08491221  0.87118522  0.60203739  1
  Te  Te107  1  0.07165639  0.92642915  0.91297165  1
  Te  Te108  1  0.36480520  0.19677700  0.26578610  1
  Te  Te109  1  0.39898264  0.24311428  0.58745855  1
  Te  Te110  1  0.40590092  0.22307083  0.90965310  1
  Te  Te111  1  0.41714558  0.58503623  0.26456693  1
  Te  Te112  1  0.41705043  0.58830916  0.56320499  1
  Te  Te113  1  0.42609818  0.58235541  0.90508415  1
  Te  Te114  1  0.40787778  0.94186014  0.21951460  1
  Te  Te115  1  0.36047414  0.96420712  0.63460792  1
  Te  Te116  1  0.41658425  0.92313804  0.93735479  1
  Te  Te117  1  0.73615005  0.23275146  0.25033935  1
  Te  Te118  1  0.73363815  0.23954740  0.58907608  1
  Te  Te119  1  0.76010178  0.28472150  0.91297867  1
  Te  Te120  1  0.76969747  0.59084670  0.24307471  1
  Te  Te121  1  0.75603125  0.59370936  0.58544478  1
  Te  Te122  1  0.74934989  0.57023797  0.93017634  1
  Te  Te123  1  0.72252415  0.90929884  0.22991002  1
  Te  Te124  1  0.74571824  0.90578089  0.59303830  1
  Te  Te125  1  0.74043432  0.93550199  0.94811679  1
  Te  Te126  1  0.28014454  0.21467643  0.08700559  1
  Te  Te127  1  0.27620699  0.25308967  0.38057399  1
  Te  Te128  1  0.26330599  0.24436103  0.74395155  1
  Te  Te129  1  0.26883966  0.59651718  0.08970130  1
  Te  Te130  1  0.24223880  0.56155918  0.41684515  1
  Te  Te131  1  0.24579574  0.57672318  0.71730959  1
  Te  Te132  1  0.22144096  0.91861583  0.08083581  1
  Te  Te133  1  0.25660214  0.91368145  0.41859785  1
  Te  Te134  1  0.26745838  0.89914180  0.74487184  1
  Te  Te135  1  0.55294434  0.24587161  0.11930844  1
  Te  Te136  1  0.55003967  0.24690593  0.41235299  1
  Te  Te137  1  0.59459485  0.22511955  0.76255483  1
  Te  Te138  1  0.57095117  0.58633459  0.06570309  1
  Te  Te139  1  0.59502663  0.56767926  0.41636089  1
  Te  Te140  1  0.60111955  0.57504715  0.74271431  1
  Te  Te141  1  0.60459012  0.94940585  0.14170105  1
  Te  Te142  1  0.58925132  0.93273276  0.40210252  1
  Te  Te143  1  0.57688208  0.92505967  0.74556427  1
  Te  Te144  1  0.92488659  0.24463302  0.08675974  1
  Te  Te145  1  0.90943372  0.23850121  0.40569080  1
  Te  Te146  1  0.97842129  0.19976932  0.75405741  1
  Te  Te147  1  0.92841026  0.57784551  0.04944778  1
  Te  Te148  1  0.91435777  0.57660791  0.41516177  1
  Te  Te149  1  0.95807355  0.61847924  0.73883938  1
  Te  Te150  1  0.93250193  0.96415279  0.08361472  1
  Te  Te151  1  0.92852676  0.90616372  0.42094533  1
  Te  Te152  1  0.94337250  0.95871357  0.74015498  1
  Te  Te153  1  0.24594367  0.10055814  0.23349602  1
  Te  Te154  1  0.25015316  0.07195490  0.59055774  1
  Te  Te155  1  0.22274586  0.08354153  0.91473682  1
  Te  Te156  1  0.23815988  0.38781504  0.26290536  1
  Te  Te157  1  0.25416031  0.43676552  0.53489960  1
  Te  Te158  1  0.25156560  0.41174498  0.92769726  1
  Te  Te159  1  0.27505963  0.76430743  0.23514607  1
  Te  Te160  1  0.26054978  0.75866783  0.55728222  1
  Te  Te161  1  0.26066765  0.72559570  0.92244713  1
  Te  Te162  1  0.54751433  0.10167454  0.32693865  1
  Te  Te163  1  0.57959418  0.06618068  0.57810354  1
  Te  Te164  1  0.60395864  0.09039152  0.92522775  1
  Te  Te165  1  0.56533194  0.41847386  0.25147863  1
  Te  Te166  1  0.55998198  0.39766246  0.56366738  1
  Te  Te167  1  0.56739900  0.39837886  0.92724649  1
  Te  Te168  1  0.57980525  0.75255942  0.25809330  1
  Te  Te169  1  0.54218297  0.78507222  0.60615951  1
  Te  Te170  1  0.57660361  0.75176810  0.88783077  1
  Te  Te171  1  0.92048019  0.09304098  0.24858838  1
  Te  Te172  1  0.92523835  0.07058399  0.56667383  1
  Te  Te173  1  0.92438232  0.09981791  0.92469134  1
  Te  Te174  1  0.91009482  0.42147222  0.24912285  1
  Te  Te175  1  0.90962171  0.40192540  0.58095008  1
  Te  Te176  1  0.94076981  0.40819917  0.87863094  1
  Te  Te177  1  0.90174442  0.76749542  0.25308917  1
  Te  Te178  1  0.94526595  0.77717170  0.58668677  1
  Te  Te179  1  0.89519078  0.77053126  0.92249828  1
