# generated using pymatgen
data_In2Te3
_symmetry_space_group_name_H-M   'P 1'
_cell_length_a   18.80764837
_cell_length_b   18.81482029
_cell_length_c   18.80556534
_cell_angle_alpha   89.97893948
_cell_angle_beta   90.04920489
_cell_angle_gamma   89.97539183
_symmetry_Int_Tables_number   1
_chemical_formula_structural   In2Te3
_chemical_formula_sum   'In72 Te108'
_cell_volume   6654.58130306
_cell_formula_units_Z   36
loop_
 _symmetry_equiv_pos_site_id
 _symmetry_equiv_pos_as_xyz
  1  'x, y, z'
loop_
 _atom_site_type_symbol
 _atom_site_label
 _atom_site_symmetry_multiplicity
 _atom_site_fract_x
 _atom_site_fract_y
 _atom_site_fract_z
 _atom_site_occupancy
  In  In0  1  -0.01054724  0.48681741  0.19077832  1
  In  In1  1  0.15776703  0.83458012  0.66595720  1
  In  In2  1  0.66677908  0.66333435  0.35029423  1
  In  In3  1  0.03174509  0.01727579  0.33789980  1
  In  In4  1  0.00470396  0.66124624  -0.00146715  1
  In  In5  1  0.65686657  0.49311670  0.84422522  1
  In  In6  1  0.84878122  0.63485963  0.80611074  1
  In  In7  1  0.50630483  0.64467280  0.49950220  1
  In  In8  1  0.35253832  0.62812136  -0.01171031  1
  In  In9  1  0.00004229  0.81604030  0.49854420  1
  In  In10  1  0.00292811  0.34450854  0.66434733  1
  In  In11  1  -0.00722699  0.86360123  0.19247694  1
  In  In12  1  0.81800393  0.02179151  0.47776751  1
  In  In13  1  0.68156919  0.02301006  0.64385152  1
  In  In14  1  0.49389809  -0.01114570  0.50016694  1
  In  In15  1  0.67047664  0.18794596  0.48455923  1
  In  In16  1  0.14114430  0.17062192  -0.01504510  1
  In  In17  1  0.50706224  0.33867694  0.49792062  1
  In  In18  1  0.16587258  0.49912547  0.64784884  1
  In  In19  1  0.17552631  0.85027653  -0.01638804  1
  In  In20  1  0.17317299  0.33920435  0.17515379  1
  In  In21  1  0.50365527  0.18687458  0.01976267  1
  In  In22  1  0.15378449  0.01069698  0.83723867  1
  In  In23  1  -0.00374598  0.65100495  0.35620453  1
  In  In24  1  0.30747815  0.13726255  0.19586479  1
  In  In25  1  0.82787537  0.18539278  0.65543034  1
  In  In26  1  0.82416355  0.20323418  -0.02886160  1
  In  In27  1  0.18503443  0.68615319  0.15860939  1
  In  In28  1  -0.00952987  0.17575904  0.14607063  1
  In  In29  1  0.67633555  0.01720515  0.02164667  1
  In  In30  1  0.84018239  0.48523462  0.64662818  1
  In  In31  1  0.84179052  0.02777128  0.15909008  1
  In  In32  1  0.81710942  0.82175779  0.34877783  1
  In  In33  1  0.51183663  0.83972635  0.67140947  1
  In  In34  1  -0.02335412  0.31705397  0.34337100  1
  In  In35  1  0.01405308  0.02314010  0.66908495  1
  In  In36  1  0.32738516  0.04809845  0.65015474  1
  In  In37  1  0.66470350  0.81090480  0.45905889  1
  In  In38  1  0.48063678  0.01686964  0.87128784  1
  In  In39  1  0.86770127  0.82861824  0.63097024  1
  In  In40  1  0.66338286  0.50015349  0.15336577  1
  In  In41  1  0.29636139  0.85112687  0.48089637  1
  In  In42  1  0.81374353  0.45712039  0.35113802  1
  In  In43  1  0.29163421  0.80964155  0.82757846  1
  In  In44  1  0.15447663  0.33090247  0.50909171  1
  In  In45  1  0.63312307  0.62286510  0.00993264  1
  In  In46  1  0.35218567  0.34454116  0.35012768  1
  In  In47  1  0.17884444  0.49069092  0.33944651  1
  In  In48  1  0.31647572  0.21106402  0.80648058  1
  In  In49  1  0.69861413  0.63930516  0.66221183  1
  In  In50  1  0.51361534  0.82496583  0.01957770  1
  In  In51  1  0.85268216  0.82510389  0.01795697  1
  In  In52  1  0.52163306  0.22458296  0.69710096  1
  In  In53  1  0.65562843  0.83446850  0.18892888  1
  In  In54  1  0.33182438  0.33295686  -0.00443441  1
  In  In55  1  0.31895060  0.18045859  0.48070102  1
  In  In56  1  0.49389273  0.45593713  0.69756538  1
  In  In57  1  0.33416690  0.00264733  0.01274512  1
  In  In58  1  0.32633222  0.65928833  0.65878682  1
  In  In59  1  0.14707367  0.64774098  0.80088495  1
  In  In60  1  0.82851501  0.44494984  -0.03399613  1
  In  In61  1  0.51455101  0.15870766  0.33314484  1
  In  In62  1  0.68067099  0.84656949  0.82838213  1
  In  In63  1  0.84106656  0.02870284  0.81776187  1
  In  In64  1  0.33002374  0.84329645  0.17473740  1
  In  In65  1  0.51165435  0.34512900  0.17030849  1
  In  In66  1  0.82799791  0.65983431  0.14555127  1
  In  In67  1  0.16768312  0.49986696  -0.00342821  1
  In  In68  1  0.48331958  0.82891403  0.32443168  1
  In  In69  1  -0.00398923  0.17946383  0.82100597  1
  In  In70  1  0.34530331  0.63438395  0.33309642  1
  In  In71  1  0.48165244  0.64315324  0.86084619  1
  Te  Te72  1  0.08921092  0.08071437  0.08886787  1
  Te  Te73  1  0.11460064  0.09432497  0.43327681  1
  Te  Te74  1  0.11092586  0.11938868  0.73935453  1
  Te  Te75  1  0.07523968  0.41414042  0.08634525  1
  Te  Te76  1  0.06893639  0.42089642  0.41639698  1
  Te  Te77  1  0.10734816  0.40741090  0.74912692  1
  Te  Te78  1  0.07077451  0.76361434  0.09140610  1
  Te  Te79  1  0.09481004  0.74532406  0.40976160  1
  Te  Te80  1  0.07137326  0.76886495  0.76533220  1
  Te  Te81  1  0.42310358  0.08541781  0.10276090  1
  Te  Te82  1  0.40913191  0.07761087  0.40966763  1
  Te  Te83  1  0.43069929  0.10061453  0.75273360  1
  Te  Te84  1  0.41691923  0.41907336  0.08177969  1
  Te  Te85  1  0.43359875  0.44491916  0.42116037  1
  Te  Te86  1  0.39064526  0.36082345  0.75197893  1
  Te  Te87  1  0.40142213  0.74560755  0.08129618  1
  Te  Te88  1  0.41783930  0.75634691  0.44226782  1
  Te  Te89  1  0.41859768  0.74964880  0.75386610  1
  Te  Te90  1  0.75168493  0.12960146  0.09188352  1
  Te  Te91  1  0.72116169  0.08522117  0.37727428  1
  Te  Te92  1  0.73182437  0.11291354  0.75560474  1
  Te  Te93  1  0.74491601  0.40027632  0.07859731  1
  Te  Te94  1  0.73613825  0.40457583  0.46768057  1
  Te  Te95  1  0.75236324  0.42236856  0.75352527  1
  Te  Te96  1  0.72837557  0.75271099  0.07560366  1
  Te  Te97  1  0.78093494  0.71301875  0.44703182  1
  Te  Te98  1  0.76714669  0.75976608  0.73741162  1
  Te  Te99  1  0.07748044  0.24790909  0.25064413  1
  Te  Te100  1  0.06653871  0.23767035  0.58253101  1
  Te  Te101  1  0.07281791  0.27776076  0.90691799  1
  Te  Te102  1  0.09298777  0.58770688  0.24103372  1
  Te  Te103  1  0.06253889  0.59855711  0.61003735  1
  Te  Te104  1  0.06533101  0.56294705  0.89956807  1
  Te  Te105  1  0.10626981  0.90147653  0.27957290  1
  Te  Te106  1  0.08117124  0.92588026  0.57182066  1
  Te  Te107  1  0.06749679  0.91459931  0.90739357  1
  Te  Te108  1  0.40824482  0.24313495  0.24704787  1
  Te  Te109  1  0.42093515  0.24173402  0.57739645  1
  Te  Te110  1  0.42994970  0.25598385  0.90641101  1
  Te  Te111  1  0.45235905  0.59487119  0.24218128  1
  Te  Te112  1  0.42793267  0.56265997  0.60137374  1
  Te  Te113  1  0.42580603  0.51915790  0.91806331  1
  Te  Te114  1  0.41470274  0.93670448  0.25065357  1
  Te  Te115  1  0.39869642  0.91196518  0.59478454  1
  Te  Te116  1  0.40599245  0.89424480  0.92355469  1
  Te  Te117  1  0.80757857  0.21941116  0.31412606  1
  Te  Te118  1  0.74661093  0.28418354  0.57333483  1
  Te  Te119  1  0.71021175  0.29035641  0.90891691  1
  Te  Te120  1  0.76287651  0.57882702  0.25653359  1
  Te  Te121  1  0.73768325  0.54685334  0.55144907  1
  Te  Te122  1  0.75758919  0.58912496  0.92287703  1
  Te  Te123  1  0.76690409  0.92031728  0.24256924  1
  Te  Te124  1  0.74728395  0.91013924  0.56862447  1
  Te  Te125  1  0.76435116  0.92933327  0.92689241  1
  Te  Te126  1  0.24958077  0.23320865  0.08768409  1
  Te  Te127  1  0.22972716  0.26496547  0.39081074  1
  Te  Te128  1  0.26601346  0.28968055  0.68990494  1
  Te  Te129  1  0.26094356  0.56913130  0.09712964  1
  Te  Te130  1  0.25462150  0.57536593  0.43311657  1
  Te  Te131  1  0.26722567  0.56686455  0.76087474  1
  Te  Te132  1  0.22930758  0.93318005  0.09944928  1
  Te  Te133  1  0.23807857  0.96049803  0.40057050  1
  Te  Te134  1  0.25519854  0.93685393  0.74727958  1
  Te  Te135  1  0.60382546  0.24390420  0.11261551  1
  Te  Te136  1  0.59423253  0.27783337  0.38552193  1
  Te  Te137  1  0.62747459  0.30155034  0.77597031  1
  Te  Te138  1  0.53344875  0.56749447  0.10758411  1
  Te  Te139  1  0.57643716  0.55657615  0.40329029  1
  Te  Te140  1  0.58122410  0.59298645  0.74840085  1
  Te  Te141  1  0.57629142  0.93533046  0.10419682  1
  Te  Te142  1  0.58522113  0.92331413  0.39631969  1
  Te  Te143  1  0.58577263  0.94300312  0.75655474  1
  Te  Te144  1  0.91104850  0.27498827  0.06968421  1
  Te  Te145  1  0.88790257  0.23917398  0.43381043  1
  Te  Te146  1  0.88985846  0.27392705  0.76376815  1
  Te  Te147  1  0.91332937  0.55843537  0.07039221  1
  Te  Te148  1  0.91892618  0.54315073  0.41906189  1
  Te  Te149  1  0.94856361  0.56137270  0.72240740  1
  Te  Te150  1  0.93518843  0.94073307  0.07409935  1
  Te  Te151  1  0.91678900  0.92164047  0.41236681  1
  Te  Te152  1  0.92056864  0.92461349  0.74151784  1
  Te  Te153  1  0.21247480  0.07216917  0.29257709  1
  Te  Te154  1  0.21942320  0.09513623  0.55813549  1
  Te  Te155  1  0.26520730  0.09577209  0.91217675  1
  Te  Te156  1  0.27752969  0.42741090  0.24243487  1
  Te  Te157  1  0.26391847  0.41054393  0.57493067  1
  Te  Te158  1  0.22833229  0.39580522  0.91001833  1
  Te  Te159  1  0.26101357  0.74907093  0.27459742  1
  Te  Te160  1  0.23319483  0.74179295  0.57164980  1
  Te  Te161  1  0.23059658  0.71692853  0.93253708  1
  Te  Te162  1  0.61333028  0.07832115  0.26172396  1
  Te  Te163  1  0.57169406  0.10089886  0.57364199  1
  Te  Te164  1  0.59507614  0.10087955  0.92257195  1
  Te  Te165  1  0.60479153  0.41659307  0.26243376  1
  Te  Te166  1  0.59253053  0.41151804  0.59648785  1
  Te  Te167  1  0.59852958  0.39062766  0.93335282  1
  Te  Te168  1  0.56594507  0.72488842  0.24591498  1
  Te  Te169  1  0.59591216  0.74534488  0.58686621  1
  Te  Te170  1  0.59118660  0.75043043  0.90718129  1
  Te  Te171  1  0.91977868  0.09887548  0.27031292  1
  Te  Te172  1  0.91575618  0.09294124  0.57196617  1
  Te  Te173  1  0.92570628  0.09305827  0.92478744  1
  Te  Te174  1  0.88583020  0.38568540  0.23673156  1
  Te  Te175  1  0.92656161  0.40787316  0.55276169  1
  Te  Te176  1  0.93264794  0.37257267  0.89312310  1
  Te  Te177  1  0.91063492  0.74284735  0.24619166  1
  Te  Te178  1  0.94220693  0.70696328  0.58547318  1
  Te  Te179  1  0.91106726  0.74093081  0.90688400  1
