# generated using pymatgen
data_In2Te3
_symmetry_space_group_name_H-M   'P 1'
_cell_length_a   18.96189724
_cell_length_b   18.92268711
_cell_length_c   18.95985715
_cell_angle_alpha   90.04420250
_cell_angle_beta   89.75227286
_cell_angle_gamma   89.96680843
_symmetry_Int_Tables_number   1
_chemical_formula_structural   In2Te3
_chemical_formula_sum   'In72 Te108'
_cell_volume   6802.92049762
_cell_formula_units_Z   36
loop_
 _symmetry_equiv_pos_site_id
 _symmetry_equiv_pos_as_xyz
  1  'x, y, z'
loop_
 _atom_site_type_symbol
 _atom_site_label
 _atom_site_symmetry_multiplicity
 _atom_site_fract_x
 _atom_site_fract_y
 _atom_site_fract_z
 _atom_site_occupancy
  In  In0  1  0.33530274  0.16419584  0.53904222  1
  In  In1  1  0.81120680  0.18290025  0.66028634  1
  In  In2  1  0.14168954  0.49849003  0.30997872  1
  In  In3  1  0.63225734  0.02217120  0.67695937  1
  In  In4  1  0.15806845  0.17795407  0.00754524  1
  In  In5  1  0.84290401  0.83464982  0.02056094  1
  In  In6  1  0.32800889  0.14392070  0.16451563  1
  In  In7  1  0.66749599  0.66282257  0.33357117  1
  In  In8  1  0.50087281  0.00638697  0.50341111  1
  In  In9  1  0.49607397  0.67062562  0.15418085  1
  In  In10  1  0.15191145  0.65131843  0.15095868  1
  In  In11  1  0.16000509  0.84649272  0.67197817  1
  In  In12  1  0.47037374  0.02249382  0.84173405  1
  In  In13  1  0.15151871  0.68048684  0.49172726  1
  In  In14  1  0.31305230  0.49815192  0.83737590  1
  In  In15  1  0.82153498  0.68267755  0.83089250  1
  In  In16  1  -0.00287995  0.83776696  0.84373204  1
  In  In17  1  0.17393042  0.47815480  -0.01996439  1
  In  In18  1  0.66093436  0.81486973  0.81060821  1
  In  In19  1  -0.01127152  0.65127341  0.65129244  1
  In  In20  1  0.34122404  0.31061555  0.35322930  1
  In  In21  1  0.79892558  0.83515760  0.68761519  1
  In  In22  1  0.50577388  0.17634674  -0.00512962  1
  In  In23  1  0.33454329  0.65308508  0.69782720  1
  In  In24  1  0.32199501  0.84985095  0.15374448  1
  In  In25  1  0.66080872  0.21675424  0.48805042  1
  In  In26  1  0.32590903  0.01251139  -0.00214617  1
  In  In27  1  0.03191802  0.01838347  0.67404623  1
  In  In28  1  0.85570307  0.01111932  0.85739576  1
  In  In29  1  -0.00772034  0.15521966  0.85824248  1
  In  In30  1  0.81743433  0.49965022  0.66970836  1
  In  In31  1  -0.01202008  0.32982152  0.31261705  1
  In  In32  1  0.67108453  0.00133017  0.36143902  1
  In  In33  1  0.85864739  0.52357635  0.00499165  1
  In  In34  1  0.81684264  0.18609768  0.33030815  1
  In  In35  1  0.52815425  0.36533960  0.49295239  1
  In  In36  1  0.50833617  0.50186836  0.00934306  1
  In  In37  1  0.50573993  0.18024608  0.37373853  1
  In  In38  1  0.83638122  0.81002953  0.31129473  1
  In  In39  1  0.51637381  0.84117710  -0.01517696  1
  In  In40  1  0.28896260  0.66970184  -0.02629253  1
  In  In41  1  0.51452560  0.62970833  0.80572816  1
  In  In42  1  0.31715933  0.66734895  0.30206219  1
  In  In43  1  0.02147845  0.35641414  0.69887354  1
  In  In44  1  0.86417968  0.31587959  0.14192756  1
  In  In45  1  0.54138704  0.65796181  0.51268613  1
  In  In46  1  0.02522394  0.02004438  0.00850942  1
  In  In47  1  0.83302149  -0.01562454  0.52806231  1
  In  In48  1  0.14523686  0.34792671  0.15740443  1
  In  In49  1  0.66314124  0.32599137  -0.00195414  1
  In  In50  1  0.65658960  0.18786889  0.83588288  1
  In  In51  1  0.34163183  0.84267395  0.51138644  1
  In  In52  1  0.30377010  -0.02186445  0.33054109  1
  In  In53  1  0.01788129  0.18281272  0.49142692  1
  In  In54  1  0.47726298  0.82976662  0.33192338  1
  In  In55  1  0.18864040  0.34159360  0.52742007  1
  In  In56  1  0.81336861  0.65127294  0.49832187  1
  In  In57  1  0.68442661  0.46888552  0.20008069  1
  In  In58  1  0.01571592  -0.02683701  0.29834910  1
  In  In59  1  -0.01277038  0.49768321  0.49318006  1
  In  In60  1  0.70987120  0.66458726  0.01078388  1
  In  In61  1  0.49731160  0.35911170  0.79926476  1
  In  In62  1  0.36365540  0.48644880  0.17510424  1
  In  In63  1  0.16841320  0.00287522  0.49466868  1
  In  In64  1  0.34193202  0.35093596  -0.01617519  1
  In  In65  1  0.31623788  0.50348807  0.52161778  1
  In  In66  1  0.20793133  0.02149192  0.82475118  1
  In  In67  1  0.18239025  0.83049752  0.00400057  1
  In  In68  1  0.69122412  -0.01265492  0.01700484  1
  In  In69  1  0.83965752  0.00021288  0.17036599  1
  In  In70  1  0.84205756  0.35208013  0.84431995  1
  In  In71  1  -0.01548274  0.80766093  0.47154208  1
  Te  Te72  1  0.07524854  0.11269294  0.11604093  1
  Te  Te73  1  0.07501058  0.07468425  0.40176399  1
  Te  Te74  1  0.10616039  0.11513731  0.75996927  1
  Te  Te75  1  0.06408110  0.42750590  0.06551743  1
  Te  Te76  1  0.09162313  0.40857784  0.42314541  1
  Te  Te77  1  0.07019491  0.46609429  0.78215581  1
  Te  Te78  1  0.08309910  0.73468812  0.05207685  1
  Te  Te79  1  0.05386338  0.71106891  0.38437107  1
  Te  Te80  1  0.06689496  0.74874655  0.74270206  1
  Te  Te81  1  0.43583431  0.07225095  0.08148584  1
  Te  Te82  1  0.39740574  0.07008666  0.41344257  1
  Te  Te83  1  0.43181620  0.11075072  0.73351631  1
  Te  Te84  1  0.44476446  0.38986346  0.09040039  1
  Te  Te85  1  0.40581928  0.42769748  0.42415640  1
  Te  Te86  1  0.39581876  0.43974132  0.72694294  1
  Te  Te87  1  0.39121223  0.74202323  0.07140565  1
  Te  Te88  1  0.39680386  0.73423718  0.41722585  1
  Te  Te89  1  0.43444196  0.74142465  0.75777175  1
  Te  Te90  1  0.73926646  0.09065014  0.10949750  1
  Te  Te91  1  0.75662107  0.09659301  0.44866974  1
  Te  Te92  1  0.75705145  0.07472641  0.75565225  1
  Te  Te93  1  0.75661445  0.42294202  0.06849631  1
  Te  Te94  1  0.71018501  0.34868290  0.43216435  1
  Te  Te95  1  0.74205274  0.40141046  0.75025734  1
  Te  Te96  1  0.75426765  0.76057734  0.11434724  1
  Te  Te97  1  0.74491402  0.76261426  0.42299786  1
  Te  Te98  1  0.71724330  0.70200422  0.71428483  1
  Te  Te99  1  0.10203701  0.25454307  0.26114147  1
  Te  Te100  1  0.09113620  0.25292738  0.60356181  1
  Te  Te101  1  0.06810677  0.26113405  0.92645506  1
  Te  Te102  1  0.04858257  0.56897824  0.21987913  1
  Te  Te103  1  0.09254035  0.56925418  0.57712674  1
  Te  Te104  1  0.10634488  0.57314843  0.88930762  1
  Te  Te105  1  0.09966393  0.86897206  0.24565638  1
  Te  Te106  1  0.06248964  0.90423228  0.56803446  1
  Te  Te107  1  0.09356570  0.94238271  0.89651429  1
  Te  Te108  1  0.41853927  0.22796077  0.25268197  1
  Te  Te109  1  0.43114302  0.27862776  0.57243888  1
  Te  Te110  1  0.42788776  0.25992282  0.89807556  1
  Te  Te111  1  0.43819297  0.58260500  0.26527057  1
  Te  Te112  1  0.41788710  0.59514136  0.58400995  1
  Te  Te113  1  0.41295587  0.58310289  0.92351362  1
  Te  Te114  1  0.41738256  0.93145987  0.23792164  1
  Te  Te115  1  0.44271273  0.90588205  0.59424324  1
  Te  Te116  1  0.40006381  0.90765465  0.91576919  1
  Te  Te117  1  0.75285031  0.24627249  0.21297487  1
  Te  Te118  1  0.74545472  0.29412705  0.58782965  1
  Te  Te119  1  0.76664212  0.24277343  0.92282921  1
  Te  Te120  1  0.76337837  0.57289492  0.26570415  1
  Te  Te121  1  0.73578638  0.53406204  0.54794481  1
  Te  Te122  1  0.74993847  0.56931100  0.90122402  1
  Te  Te123  1  0.74409802  0.91769456  0.25583165  1
  Te  Te124  1  0.71288838  0.91988801  0.59360235  1
  Te  Te125  1  0.75928154  0.89579548  0.90211972  1
  Te  Te126  1  0.26419012  0.26654668  0.08644469  1
  Te  Te127  1  0.24235985  0.23287967  0.43624143  1
  Te  Te128  1  0.33252911  0.21873580  0.68202897  1
  Te  Te129  1  0.26343608  0.55932574  0.08689573  1
  Te  Te130  1  0.23947736  0.58171350  0.40319305  1
  Te  Te131  1  0.21727840  0.58951781  0.76644320  1
  Te  Te132  1  0.22442194  0.94775207  0.08941553  1
  Te  Te133  1  0.22630656  0.88373201  0.42111206  1
  Te  Te134  1  0.26994191  0.92919615  0.72650181  1
  Te  Te135  1  0.58950006  0.24272218  0.09429427  1
  Te  Te136  1  0.58542863  0.31612092  0.34729107  1
  Te  Te137  1  0.57541738  0.25068496  0.73316678  1
  Te  Te138  1  0.60530620  0.58134305  0.09502209  1
  Te  Te139  1  0.59649022  0.56189001  0.41664192  1
  Te  Te140  1  0.57973084  0.52381331  0.72991948  1
  Te  Te141  1  0.58986854  0.90891360  0.08917421  1
  Te  Te142  1  0.57540648  0.89901293  0.42391628  1
  Te  Te143  1  0.56344559  0.92007022  0.76595797  1
  Te  Te144  1  0.96690231  0.22324427  0.09145338  1
  Te  Te145  1  0.91023667  0.26443230  0.42606413  1
  Te  Te146  1  0.91768621  0.24206856  0.75229101  1
  Te  Te147  1  0.91762526  0.61285705  0.10539790  1
  Te  Te148  1  0.92293856  0.60161872  0.40971327  1
  Te  Te149  1  0.91104834  0.58022941  0.76020369  1
  Te  Te150  1  0.94545519  0.92047273  0.09117279  1
  Te  Te151  1  0.90556025  0.92180668  0.40867484  1
  Te  Te152  1  0.92082534  0.92729201  0.74185484  1
  Te  Te153  1  0.23136669  0.07928159  0.25346416  1
  Te  Te154  1  0.25390080  0.05254810  0.60166901  1
  Te  Te155  1  0.26950450  0.12567098  0.91531174  1
  Te  Te156  1  0.26119522  0.41035677  0.25844000  1
  Te  Te157  1  0.25599040  0.42271281  0.63117465  1
  Te  Te158  1  0.23578123  0.37388339  0.87969860  1
  Te  Te159  1  0.22130708  0.76933785  0.24082330  1
  Te  Te160  1  0.24723099  0.74175818  0.59387312  1
  Te  Te161  1  0.24436249  0.77459986  0.88327535  1
  Te  Te162  1  0.58236839  0.09025636  0.28656484  1
  Te  Te163  1  0.57853232  0.11581001  0.57275263  1
  Te  Te164  1  0.59982417  0.07122101  0.91787608  1
  Te  Te165  1  0.55273920  0.42284254  0.24242336  1
  Te  Te166  1  0.59325956  0.45676357  0.59012405  1
  Te  Te167  1  0.58638382  0.42109117  0.90840884  1
  Te  Te168  1  0.57889353  0.75586007  0.24703740  1
  Te  Te169  1  0.60463102  0.73748358  0.61418625  1
  Te  Te170  1  0.59566974  0.72774569  0.92205987  1
  Te  Te171  1  0.91472918  0.08811088  0.26816065  1
  Te  Te172  1  0.92761060  0.09154968  0.58640169  1
  Te  Te173  1  0.90010842  0.10048252  0.96976938  1
  Te  Te174  1  0.89752614  0.41914730  0.24286717  1
  Te  Te175  1  0.92253722  0.41000383  0.59752546  1
  Te  Te176  1  0.93825121  0.41987321  0.93334009  1
  Te  Te177  1  0.89933257  0.73417185  0.20221423  1
  Te  Te178  1  0.89490694  0.75677872  0.59082453  1
  Te  Te179  1  0.92163992  0.73918382  0.92988113  1
