# generated using pymatgen
data_In2Te3
_symmetry_space_group_name_H-M   'P 1'
_cell_length_a   18.95017713
_cell_length_b   18.96180669
_cell_length_c   18.95565608
_cell_angle_alpha   90.00901745
_cell_angle_beta   90.04899867
_cell_angle_gamma   89.87447473
_symmetry_Int_Tables_number   1
_chemical_formula_structural   In2Te3
_chemical_formula_sum   'In72 Te108'
_cell_volume   6811.30931020
_cell_formula_units_Z   36
loop_
 _symmetry_equiv_pos_site_id
 _symmetry_equiv_pos_as_xyz
  1  'x, y, z'
loop_
 _atom_site_type_symbol
 _atom_site_label
 _atom_site_symmetry_multiplicity
 _atom_site_fract_x
 _atom_site_fract_y
 _atom_site_fract_z
 _atom_site_occupancy
  In  In0  1  0.82878427  0.65183479  0.50827480  1
  In  In1  1  0.17967019  0.32800383  0.81776753  1
  In  In2  1  0.66326710  0.32132165  0.66591682  1
  In  In3  1  0.49348510  0.01077418  0.49496452  1
  In  In4  1  0.85475918  0.83803480  0.68404833  1
  In  In5  1  0.82368338  0.66881673  0.17153066  1
  In  In6  1  0.81862361  0.01418376  0.50267008  1
  In  In7  1  0.35466916  0.47899877  0.15165579  1
  In  In8  1  0.50963768  0.66212383  0.16018895  1
  In  In9  1  0.18165910  0.83916536  0.33803939  1
  In  In10  1  0.34741263  0.51754646  0.82076949  1
  In  In11  1  0.66704497  0.67219352  0.65087989  1
  In  In12  1  -0.00665855  0.49368417  0.50824308  1
  In  In13  1  0.81117241  0.84616733  0.33785267  1
  In  In14  1  0.81318259  0.49269720  0.00005061  1
  In  In15  1  0.01104630  0.50436944  0.82487736  1
  In  In16  1  0.63633151  0.45893420  0.83976173  1
  In  In17  1  0.17768599  0.16673853  0.00649321  1
  In  In18  1  0.64807746  0.14657993  0.17351258  1
  In  In19  1  0.66903863  -0.00930128  0.01506112  1
  In  In20  1  0.01256081  0.85887837  0.84704928  1
  In  In21  1  0.65739136  0.82406406  0.51242677  1
  In  In22  1  0.00040949  0.70261628  0.03316017  1
  In  In23  1  0.32633361  0.00232883  0.02333188  1
  In  In24  1  0.82623908  0.16256276  0.32888916  1
  In  In25  1  -0.00014083  0.68221053  0.68368650  1
  In  In26  1  0.34322828  0.84374116  0.49449438  1
  In  In27  1  0.50689539  0.65703936  0.50963996  1
  In  In28  1  0.48370851  0.27855375  0.19905117  1
  In  In29  1  0.66366461  0.83495650  0.17620901  1
  In  In30  1  -0.01322085  0.34148709  0.00192842  1
  In  In31  1  0.33407767  0.02168578  0.32426578  1
  In  In32  1  0.83234739  0.17078028  0.66954349  1
  In  In33  1  0.49087422  0.02478635  0.81261926  1
  In  In34  1  0.84037647  0.18470578  -0.01632262  1
  In  In35  1  0.34504193  0.31526688  0.00024927  1
  In  In36  1  0.68482596  0.18165731  0.83040007  1
  In  In37  1  0.81568768  0.32175994  0.49064947  1
  In  In38  1  0.17392216  0.53206908  -0.02251300  1
  In  In39  1  0.02543169  0.15928855  0.15683332  1
  In  In40  1  0.15524037  0.69159046  0.17960950  1
  In  In41  1  0.01685957  0.83520755  0.16590635  1
  In  In42  1  0.50619383  0.16198823  0.64770499  1
  In  In43  1  0.19298500  -0.00670936  0.82909881  1
  In  In44  1  0.49672723  0.47575805  0.65832930  1
  In  In45  1  0.50216403  0.50410036  0.34955384  1
  In  In46  1  0.00885505  0.31627425  0.66063812  1
  In  In47  1  0.16823760  0.33758502  0.14979805  1
  In  In48  1  -0.05408940  0.47025854  0.18897438  1
  In  In49  1  0.48054535  0.15084093  0.00602702  1
  In  In50  1  0.16415772  0.16911364  0.33274943  1
  In  In51  1  0.83578579  0.83659967  0.01618035  1
  In  In52  1  0.31892225  0.33502152  0.65059420  1
  In  In53  1  0.67474836  0.49366254  0.16691838  1
  In  In54  1  0.16995881  0.71189796  0.81967222  1
  In  In55  1  0.48537575  0.84056156  0.32674226  1
  In  In56  1  0.49192739  0.83952103  0.00271823  1
  In  In57  1  0.18019219  0.33280749  0.48572668  1
  In  In58  1  0.00722728  -0.00428308  0.33860647  1
  In  In59  1  0.49673263  0.67467128  0.82821246  1
  In  In60  1  0.16373862  0.66992890  0.49275912  1
  In  In61  1  -0.00867726  0.16418137  0.50670207  1
  In  In62  1  0.32633510  0.67995009  -0.00549413  1
  In  In63  1  0.82556599  0.64394471  0.83962887  1
  In  In64  1  0.34412471  0.67610274  0.67418324  1
  In  In65  1  0.64537916  0.85806558  0.82983782  1
  In  In66  1  0.49987724  0.33150284  0.47056350  1
  In  In67  1  0.01234183  0.14073516  0.82962974  1
  In  In68  1  0.16727861  0.49810865  0.32580830  1
  In  In69  1  0.19156302  -0.01276230  0.63077684  1
  In  In70  1  0.65774390  0.32030238  0.33588726  1
  In  In71  1  0.02037917  0.66761174  0.34241153  1
  Te  Te72  1  0.08529877  0.06491487  0.06007967  1
  Te  Te73  1  0.09190434  0.07779920  0.43325370  1
  Te  Te74  1  0.10578460  0.07506625  0.73379282  1
  Te  Te75  1  0.08938554  0.43520379  0.06321746  1
  Te  Te76  1  0.07396655  0.41200142  0.40881340  1
  Te  Te77  1  0.09551510  0.42022055  0.73131678  1
  Te  Te78  1  0.13229029  0.77937031  0.05610752  1
  Te  Te79  1  0.07600099  0.77783294  0.42801962  1
  Te  Te80  1  0.09124563  0.80317285  0.71776174  1
  Te  Te81  1  0.41748013  0.07446704  0.11446164  1
  Te  Te82  1  0.44473974  0.10488541  0.38706739  1
  Te  Te83  1  0.39170344  0.09437300  0.72203218  1
  Te  Te84  1  0.44713678  0.41410548  0.05202434  1
  Te  Te85  1  0.40107248  0.43037272  0.42494061  1
  Te  Te86  1  0.41433612  0.39870029  0.75860131  1
  Te  Te87  1  0.40735824  0.75682785  0.09673131  1
  Te  Te88  1  0.41716178  0.73777559  0.41581732  1
  Te  Te89  1  0.40308214  0.77322725  0.76941427  1
  Te  Te90  1  0.75647456  0.09419801  0.07928931  1
  Te  Te91  1  0.72748291  0.07394721  0.39907434  1
  Te  Te92  1  0.75320201  0.08041263  0.75198795  1
  Te  Te93  1  0.74269067  0.39425587  0.08094569  1
  Te  Te94  1  0.75043316  0.42091038  0.39914960  1
  Te  Te95  1  0.74273725  0.40394945  0.75688331  1
  Te  Te96  1  0.73321552  0.74313247  0.07570722  1
  Te  Te97  1  0.74055398  0.73948157  0.41784422  1
  Te  Te98  1  0.74455617  0.74959997  0.75871643  1
  Te  Te99  1  0.07891583  0.26754547  0.24917363  1
  Te  Te100  1  0.10514499  0.23536904  0.57759635  1
  Te  Te101  1  0.08656041  0.25919370  0.91960138  1
  Te  Te102  1  0.06762944  0.57222145  0.23186326  1
  Te  Te103  1  0.07835852  0.58984264  0.58890130  1
  Te  Te104  1  0.07351501  0.61981115  0.90532494  1
  Te  Te105  1  0.10614518  0.93053786  0.24295372  1
  Te  Te106  1  0.08409528  0.89491156  0.59710946  1
  Te  Te107  1  0.09946632  0.94086693  0.93373798  1
  Te  Te108  1  0.38991922  0.23441631  0.30178079  1
  Te  Te109  1  0.41433912  0.25062185  0.56622377  1
  Te  Te110  1  0.40015295  0.22046591  0.90277268  1
  Te  Te111  1  0.41688283  0.57874782  0.24643448  1
  Te  Te112  1  0.40527798  0.57116229  0.58305646  1
  Te  Te113  1  0.42606818  0.58636532  0.92984349  1
  Te  Te114  1  0.40490765  0.92410919  0.23802259  1
  Te  Te115  1  0.40846081  0.93495396  0.59536106  1
  Te  Te116  1  0.41984886  0.93831150  0.91592386  1
  Te  Te117  1  0.74442062  0.24852104  0.23477744  1
  Te  Te118  1  0.73171109  0.22501889  0.56893541  1
  Te  Te119  1  0.74225631  0.27832298  0.92550796  1
  Te  Te120  1  0.75066189  0.57939306  0.25972245  1
  Te  Te121  1  0.74513380  0.56497944  0.58999794  1
  Te  Te122  1  0.71764031  0.57287936  0.91448426  1
  Te  Te123  1  0.76271964  0.93432803  0.22854191  1
  Te  Te124  1  0.75365597  0.90899583  0.59207464  1
  Te  Te125  1  0.75601780  0.91875005  0.91385548  1
  Te  Te126  1  0.27083469  0.23520540  0.10503214  1
  Te  Te127  1  0.27234444  0.24367030  0.40668252  1
  Te  Te128  1  0.24573104  0.23384710  0.72931449  1
  Te  Te129  1  0.25060320  0.58529636  0.09714255  1
  Te  Te130  1  0.24691220  0.60210674  0.39158746  1
  Te  Te131  1  0.23753907  0.59353987  0.75006650  1
  Te  Te132  1  0.23515201  0.89612650  0.06481714  1
  Te  Te133  1  0.25149375  0.94135948  0.42476841  1
  Te  Te134  1  0.27443256  0.91674198  0.73292604  1
  Te  Te135  1  0.57337805  0.24443205  0.08227709  1
  Te  Te136  1  0.57525739  0.22029173  0.40644258  1
  Te  Te137  1  0.56848455  0.24775676  0.75737028  1
  Te  Te138  1  0.59230280  0.57583252  0.07689598  1
  Te  Te139  1  0.59976425  0.57802582  0.42979598  1
  Te  Te140  1  0.57573768  0.57980446  0.73993518  1
  Te  Te141  1  0.56542846  0.92569991  0.10361170  1
  Te  Te142  1  0.58376459  0.91405064  0.41582377  1
  Te  Te143  1  0.57739377  0.93865558  0.72787714  1
  Te  Te144  1  0.91901192  0.25342725  0.10051071  1
  Te  Te145  1  0.92209052  0.25263723  0.40652244  1
  Te  Te146  1  0.92389482  0.24697852  0.76435018  1
  Te  Te147  1  0.91546751  0.58217547  0.07524121  1
  Te  Te148  1  0.91768216  0.57793822  0.40712334  1
  Te  Te149  1  0.90748522  0.57204840  0.73468223  1
  Te  Te150  1  0.92825715  0.92233637  0.08886788  1
  Te  Te151  1  0.91022757  0.91864308  0.42631184  1
  Te  Te152  1  0.91842453  0.93938993  0.76839514  1
  Te  Te153  1  0.23165565  0.08234421  0.23615130  1
  Te  Te154  1  0.31718990  0.06063388  0.58773717  1
  Te  Te155  1  0.27047745  0.09809839  0.90987452  1
  Te  Te156  1  0.26225396  0.40672187  0.24771153  1
  Te  Te157  1  0.24797728  0.43322692  0.56785130  1
  Te  Te158  1  0.25984196  0.42198818  0.91802002  1
  Te  Te159  1  0.26303077  0.74089185  0.26500767  1
  Te  Te160  1  0.25461723  0.75514873  0.58013706  1
  Te  Te161  1  0.27548035  0.77853908  0.89675421  1
  Te  Te162  1  0.64222972  0.03653701  0.27132445  1
  Te  Te163  1  0.59487236  0.05702744  0.59296238  1
  Te  Te164  1  0.59232844  0.08063812  0.91898770  1
  Te  Te165  1  0.56020979  0.40072716  0.24401633  1
  Te  Te166  1  0.59400175  0.41049712  0.56446075  1
  Te  Te167  1  0.53228941  0.40336377  0.92085312  1
  Te  Te168  1  0.58597880  0.74186741  0.26495976  1
  Te  Te169  1  0.55454127  0.76409889  0.60609853  1
  Te  Te170  1  0.58703602  0.75342959  0.92234896  1
  Te  Te171  1  0.92546362  0.08219846  0.24610910  1
  Te  Te172  1  0.92307520  0.06854843  0.59937852  1
  Te  Te173  1  0.92036311  0.07764785  0.92299634  1
  Te  Te174  1  0.85950570  0.41035808  0.28636136  1
  Te  Te175  1  0.90457515  0.39959228  0.58764722  1
  Te  Te176  1  0.90913330  0.42260970  0.90107997  1
  Te  Te177  1  0.91937048  0.75473112  0.25794931  1
  Te  Te178  1  0.91920940  0.75266964  0.57544990  1
  Te  Te179  1  0.91085686  0.74955495  0.90883080  1
