# generated using pymatgen
data_In2Te3
_symmetry_space_group_name_H-M   'P 1'
_cell_length_a   18.76932655
_cell_length_b   18.75835654
_cell_length_c   18.78103971
_cell_angle_alpha   90.03273744
_cell_angle_beta   90.05925138
_cell_angle_gamma   89.89604073
_symmetry_Int_Tables_number   1
_chemical_formula_structural   In2Te3
_chemical_formula_sum   'In72 Te108'
_cell_volume   6612.44526112
_cell_formula_units_Z   36
loop_
 _symmetry_equiv_pos_site_id
 _symmetry_equiv_pos_as_xyz
  1  'x, y, z'
loop_
 _atom_site_type_symbol
 _atom_site_label
 _atom_site_symmetry_multiplicity
 _atom_site_fract_x
 _atom_site_fract_y
 _atom_site_fract_z
 _atom_site_occupancy
  In  In0  1  0.52756880  0.19544504  0.68959163  1
  In  In1  1  0.66604040  0.65145164  0.00508495  1
  In  In2  1  -0.01795072  0.17843157  0.84248315  1
  In  In3  1  0.15808134  -0.01150272  0.82836846  1
  In  In4  1  0.14505821  0.18546383  0.65479101  1
  In  In5  1  0.14813634  0.01888246  0.18146009  1
  In  In6  1  0.35309999  0.67525577  0.34682866  1
  In  In7  1  0.68402801  0.36019381  0.00293585  1
  In  In8  1  0.31616010  0.16314100  0.48849325  1
  In  In9  1  0.16580295  0.15228742  0.03879464  1
  In  In10  1  0.34563488  0.32462848  -0.01458011  1
  In  In11  1  0.32922001  0.47581047  0.50127699  1
  In  In12  1  0.34628902  -0.00574750  -0.00028568  1
  In  In13  1  -0.04325177  0.01094810  0.64293184  1
  In  In14  1  0.51684781  0.81681241  0.64381239  1
  In  In15  1  0.66652547  0.33581611  0.33850278  1
  In  In16  1  0.13115936  0.30661301  0.21379198  1
  In  In17  1  0.34270183  -0.01869547  0.30692151  1
  In  In18  1  0.33850281  0.51670189  0.16259784  1
  In  In19  1  0.67051085  0.83598944  0.82543314  1
  In  In20  1  0.16086729  0.65442231  0.50723133  1
  In  In21  1  0.52183922  0.86208778  0.02372267  1
  In  In22  1  0.19936959  0.66537716  0.18195795  1
  In  In23  1  0.32546394  0.32600461  0.34126928  1
  In  In24  1  -0.01874264  0.32530658  0.01356812  1
  In  In25  1  0.67423400  0.18556979  0.50030348  1
  In  In26  1  0.80974957  0.83678587  -0.01758565  1
  In  In27  1  0.51932078  0.66038156  0.48677352  1
  In  In28  1  0.34524509  0.65638912  0.69090609  1
  In  In29  1  0.02074473  0.85305098  0.83847966  1
  In  In30  1  0.00748665  0.85190671  0.16778973  1
  In  In31  1  0.18847085  0.49096272  0.01198192  1
  In  In32  1  0.82467395  0.67908382  0.81838263  1
  In  In33  1  0.81630233  0.67300636  0.16787163  1
  In  In34  1  0.52713208  0.48430194  0.65054078  1
  In  In35  1  0.82896918  0.01772875  0.17852342  1
  In  In36  1  -0.01296012  0.65316695  0.02966897  1
  In  In37  1  0.65305859  0.67576052  0.32319875  1
  In  In38  1  0.50708901  0.32043025  0.50224478  1
  In  In39  1  -0.02033988  0.33008577  0.65156371  1
  In  In40  1  0.69947422  -0.01535733  0.64115050  1
  In  In41  1  0.82687414  0.18663563  0.35570003  1
  In  In42  1  0.82222687  0.84248378  0.35553764  1
  In  In43  1  0.18119210  0.83587898  0.31494228  1
  In  In44  1  0.80476202  0.52686947  0.65947060  1
  In  In45  1  0.65597144  0.15849885  0.19602296  1
  In  In46  1  0.66389603  0.49904941  0.82749391  1
  In  In47  1  0.50364079  0.33688324  0.17353472  1
  In  In48  1  0.82122141  0.00633105  0.82288954  1
  In  In49  1  0.19355997  0.65439904  0.83770885  1
  In  In50  1  0.81890706  0.18047780  0.00299925  1
  In  In51  1  0.14796171  0.85785591  0.66477652  1
  In  In52  1  0.82696357  0.48500341  0.35106721  1
  In  In53  1  -0.01220387  0.83991803  0.49352051  1
  In  In54  1  0.51041554  0.67568223  0.15377725  1
  In  In55  1  0.33660997  0.15453918  0.14855743  1
  In  In56  1  0.18369983  0.83725991  -0.01078458  1
  In  In57  1  -0.00654503  0.66842139  0.63680033  1
  In  In58  1  0.33506713  0.37236459  0.65449773  1
  In  In59  1  0.65904178  0.00530966  0.33744645  1
  In  In60  1  0.33203543  0.02119755  0.68417426  1
  In  In61  1  0.00666408  0.47338508  0.83588701  1
  In  In62  1  0.32828985  0.82699522  0.48783271  1
  In  In63  1  0.51881334  0.14128999  -0.01361180  1
  In  In64  1  0.18319943  0.34571154  0.84574549  1
  In  In65  1  0.14013832  0.46300969  0.35422111  1
  In  In66  1  -0.02323218  0.64315743  0.35314561  1
  In  In67  1  -0.01763207  0.49949781  0.18732968  1
  In  In68  1  0.50909018  -0.00701529  0.48722671  1
  In  In69  1  0.35240236  0.17281143  0.84226850  1
  In  In70  1  0.49416886  0.63331745  0.84410688  1
  In  In71  1  0.82565375  0.31948011  0.82591885  1
  Te  Te72  1  0.04627701  0.09631004  0.10323376  1
  Te  Te73  1  0.13928141  0.13354738  0.38448528  1
  Te  Te74  1  0.06606985  0.08133518  0.74823117  1
  Te  Te75  1  0.07818328  0.41706426  0.09204786  1
  Te  Te76  1  0.01707301  0.39273577  0.40018705  1
  Te  Te77  1  0.09342302  0.40112377  0.73530765  1
  Te  Te78  1  0.09642285  0.74852190  0.09061105  1
  Te  Te79  1  0.08837214  0.74990407  0.40934753  1
  Te  Te80  1  0.08271351  0.74478999  0.74783875  1
  Te  Te81  1  0.44640605  0.06188644  0.09751926  1
  Te  Te82  1  0.41315968  0.07863288  0.40448850  1
  Te  Te83  1  0.44620558  0.08251924  0.76334995  1
  Te  Te84  1  0.42251825  0.42277156  0.07520589  1
  Te  Te85  1  0.43166541  0.41507245  0.40648103  1
  Te  Te86  1  0.44102390  0.41300009  0.74679705  1
  Te  Te87  1  0.42384121  0.76011756  0.06771762  1
  Te  Te88  1  0.44853098  0.77691157  0.41126425  1
  Te  Te89  1  0.43610419  0.75560692  0.75838902  1
  Te  Te90  1  0.72963780  0.08461164  0.08391735  1
  Te  Te91  1  0.75751339  0.06934139  0.43538887  1
  Te  Te92  1  0.72438494  0.08813895  0.74628480  1
  Te  Te93  1  0.78403268  0.42484621  0.08632026  1
  Te  Te94  1  0.74178379  0.40624892  0.44791241  1
  Te  Te95  1  0.73869226  0.40303871  0.73095012  1
  Te  Te96  1  0.72140778  0.76769186  0.09104270  1
  Te  Te97  1  0.76904814  0.71657135  0.40884016  1
  Te  Te98  1  0.74777218  0.75998795  0.72190172  1
  Te  Te99  1  0.04812586  0.20263558  0.28372668  1
  Te  Te100  1  0.04076842  0.22823582  0.55674339  1
  Te  Te101  1  0.09126636  0.25091233  0.92312368  1
  Te  Te102  1  0.09018790  0.58913698  0.25578071  1
  Te  Te103  1  0.07017852  0.55927088  0.57280805  1
  Te  Te104  1  0.08163371  0.57580474  0.92428557  1
  Te  Te105  1  0.06722368  0.93462703  0.28179595  1
  Te  Te106  1  0.07402447  0.94629722  0.56538104  1
  Te  Te107  1  0.07661328  0.94121198  0.94907503  1
  Te  Te108  1  0.41398111  0.24017526  0.25090999  1
  Te  Te109  1  0.40860212  0.24025392  0.58901157  1
  Te  Te110  1  0.45903133  0.26133376  0.90472458  1
  Te  Te111  1  0.43450318  0.58140907  0.26048809  1
  Te  Te112  1  0.41355009  0.58553125  0.57356941  1
  Te  Te113  1  0.38238196  0.57573687  0.91779224  1
  Te  Te114  1  0.42583563  0.87741303  0.24251853  1
  Te  Te115  1  0.40651263  0.92027948  0.58724352  1
  Te  Te116  1  0.44506102  0.92814808  0.91372398  1
  Te  Te117  1  0.75818605  0.26175675  0.24015169  1
  Te  Te118  1  0.79389779  0.23664737  0.57140717  1
  Te  Te119  1  0.71969702  0.23822106  0.90022522  1
  Te  Te120  1  0.74501002  0.56827032  0.24934350  1
  Te  Te121  1  0.71647978  0.62256881  0.59019224  1
  Te  Te122  1  0.76379783  0.57798247  0.91342925  1
  Te  Te123  1  0.74257736  0.90724060  0.24217786  1
  Te  Te124  1  0.79633706  0.88922185  0.58458452  1
  Te  Te125  1  0.71274983  0.94812735  0.92719103  1
  Te  Te126  1  0.24587919  0.27186134  0.09175827  1
  Te  Te127  1  0.21631619  0.26376460  0.42829596  1
  Te  Te128  1  0.25707478  0.24786288  0.74918677  1
  Te  Te129  1  0.27345419  0.61268052  0.05906396  1
  Te  Te130  1  0.24818496  0.57774141  0.40450003  1
  Te  Te131  1  0.23446601  0.56660410  0.72640970  1
  Te  Te132  1  0.24371487  0.93204616  0.09399066  1
  Te  Te133  1  0.24451390  0.93184107  0.41695964  1
  Te  Te134  1  0.26330233  0.90426446  0.75657978  1
  Te  Te135  1  0.58959876  0.24810122  0.08208498  1
  Te  Te136  1  0.57085876  0.23037758  0.39720962  1
  Te  Te137  1  0.63401006  0.27195879  0.75344908  1
  Te  Te138  1  0.57949128  0.56269693  0.08429948  1
  Te  Te139  1  0.58987040  0.56427303  0.40053788  1
  Te  Te140  1  0.59224444  0.59666666  0.73179049  1
  Te  Te141  1  0.62761948  0.90694610  0.11563617  1
  Te  Te142  1  0.61122319  0.90148203  0.43324489  1
  Te  Te143  1  0.58801115  0.92222500  0.72817887  1
  Te  Te144  1  0.91178769  0.23497982  0.10602877  1
  Te  Te145  1  0.92339777  0.27150434  0.43788430  1
  Te  Te146  1  0.89356721  0.22400230  0.72736227  1
  Te  Te147  1  0.87934060  0.55181836  0.08336263  1
  Te  Te148  1  0.90309401  0.56581125  0.45445055  1
  Te  Te149  1  0.92650421  0.57793958  0.75536811  1
  Te  Te150  1  0.90009986  0.91546779  0.08160187  1
  Te  Te151  1  0.92005117  0.94023812  0.40658993  1
  Te  Te152  1  0.91066670  0.90763200  0.74679005  1
  Te  Te153  1  0.24694225  0.10465095  0.26459613  1
  Te  Te154  1  0.23164903  0.07841585  0.58456019  1
  Te  Te155  1  0.24617330  0.09000844  0.91576081  1
  Te  Te156  1  0.24684480  0.42181159  0.24339503  1
  Te  Te157  1  0.22337022  0.38808364  0.55827301  1
  Te  Te158  1  0.28827543  0.44565002  0.89633882  1
  Te  Te159  1  0.29785604  0.77353494  0.23286776  1
  Te  Te160  1  0.24429416  0.75246457  0.59192346  1
  Te  Te161  1  0.27343601  0.76135852  0.90041474  1
  Te  Te162  1  0.55493431  0.06434400  0.25006778  1
  Te  Te163  1  0.57895885  0.09097817  0.58175600  1
  Te  Te164  1  0.61016805  0.06521657  0.90052139  1
  Te  Te165  1  0.59485949  0.42734540  0.24561926  1
  Te  Te166  1  0.61640517  0.40663570  0.55905350  1
  Te  Te167  1  0.57859449  0.43164970  0.92745541  1
  Te  Te168  1  0.56463074  0.77717495  0.25206446  1
  Te  Te169  1  0.62210899  0.74610606  0.56032414  1
  Te  Te170  1  0.58425923  0.74351047  0.91288006  1
  Te  Te171  1  0.91580770  0.09360613  0.27439700  1
  Te  Te172  1  0.86740180  0.09912925  0.56206482  1
  Te  Te173  1  0.90790063  0.07731755  0.92763313  1
  Te  Te174  1  0.91813841  0.39349028  0.27030633  1
  Te  Te175  1  0.90211682  0.43969931  0.58437529  1
  Te  Te176  1  0.89643528  0.41424613  0.92259865  1
  Te  Te177  1  0.92591535  0.74568355  0.24709309  1
  Te  Te178  1  0.89016569  0.76122838  0.57728619  1
  Te  Te179  1  0.92712163  0.75201603  0.91831204  1
