# generated using pymatgen
data_In2Te3
_symmetry_space_group_name_H-M   'P 1'
_cell_length_a   18.91329325
_cell_length_b   18.89577867
_cell_length_c   18.90053658
_cell_angle_alpha   90.01442506
_cell_angle_beta   89.93417434
_cell_angle_gamma   89.94749367
_symmetry_Int_Tables_number   1
_chemical_formula_structural   In2Te3
_chemical_formula_sum   'In72 Te108'
_cell_volume   6754.69277128
_cell_formula_units_Z   36
loop_
 _symmetry_equiv_pos_site_id
 _symmetry_equiv_pos_as_xyz
  1  'x, y, z'
loop_
 _atom_site_type_symbol
 _atom_site_label
 _atom_site_symmetry_multiplicity
 _atom_site_fract_x
 _atom_site_fract_y
 _atom_site_fract_z
 _atom_site_occupancy
  In  In0  1  0.49937638  0.17456027  -0.01243188  1
  In  In1  1  0.01630251  0.34069654  0.35345816  1
  In  In2  1  0.68197074  0.65398015  0.65700266  1
  In  In3  1  0.16230050  0.83450652  0.67445970  1
  In  In4  1  0.49863540  0.68103658  0.50200471  1
  In  In5  1  0.01103016  0.82054246  0.49772930  1
  In  In6  1  0.51425909  0.01463070  0.17658914  1
  In  In7  1  -0.00879101  0.18200159  0.53674290  1
  In  In8  1  0.16979843  -0.01415942  0.51208813  1
  In  In9  1  0.82502723  0.32289915  0.13883328  1
  In  In10  1  0.17140544  0.63544008  0.18361063  1
  In  In11  1  0.67862777  0.66771648  0.35432460  1
  In  In12  1  0.69307983  0.65230020  -0.02001316  1
  In  In13  1  0.64846765  0.01405266  -0.01662784  1
  In  In14  1  -0.01826573  0.83615730  0.82770753  1
  In  In15  1  0.16274794  0.33828275  0.15441245  1
  In  In16  1  0.16904487  0.82449254  0.00776973  1
  In  In17  1  0.84075276  0.81118685  0.34428137  1
  In  In18  1  0.16589236  0.33359124  0.82766488  1
  In  In19  1  0.00209036  0.64444544  -0.01604656  1
  In  In20  1  0.32343000  0.50992472  0.82882467  1
  In  In21  1  0.00508811  0.48816133  0.49917005  1
  In  In22  1  0.50843992  0.67836007  0.15220766  1
  In  In23  1  0.31613478  0.19218229  0.16085920  1
  In  In24  1  0.50147174  0.49028533  -0.00935405  1
  In  In25  1  0.17636504  0.04063867  0.84753206  1
  In  In26  1  0.81628870  0.02223351  0.52270002  1
  In  In27  1  0.83495451  0.65795181  0.50414669  1
  In  In28  1  0.34209951  0.87700245  0.82621154  1
  In  In29  1  0.68636500  0.33570428  -0.02817215  1
  In  In30  1  -0.01333797  0.45076354  0.80411506  1
  In  In31  1  0.31580992  0.86506822  0.17841724  1
  In  In32  1  0.33730569  0.65865842  0.35927644  1
  In  In33  1  0.65955513  0.81564897  0.18500645  1
  In  In34  1  0.64500652  0.17379425  0.18792392  1
  In  In35  1  0.16230556  0.18510849  0.35949446  1
  In  In36  1  0.00775016  0.50632149  0.17395580  1
  In  In37  1  0.51468716  0.89484875  0.62425667  1
  In  In38  1  0.82771695  -0.01977318  0.15254359  1
  In  In39  1  0.67995843  0.32210941  0.33116414  1
  In  In40  1  -0.02582470  0.20899135  0.80428357  1
  In  In41  1  0.80986848  0.84341685  0.64484704  1
  In  In42  1  0.47645755  0.87048537  -0.03468935  1
  In  In43  1  -0.01189354  0.14958139  0.14654100  1
  In  In44  1  0.64901502  0.15653393  0.51114623  1
  In  In45  1  0.48407091  0.14148472  0.35443500  1
  In  In46  1  0.84952626  0.67446182  0.16495608  1
  In  In47  1  0.16524096  0.64382922  0.83542370  1
  In  In48  1  0.49721784  0.36080471  0.17129063  1
  In  In49  1  0.52388264  0.50886453  0.66449298  1
  In  In50  1  0.51023165  0.33139585  0.54825302  1
  In  In51  1  0.83470020  0.49938236  0.33332023  1
  In  In52  1  0.67106500  0.84802999  0.82837819  1
  In  In53  1  0.33366745  0.33127124  0.36165903  1
  In  In54  1  0.15808394  0.65103297  0.50386129  1
  In  In55  1  0.50602851  0.30496927  0.79394117  1
  In  In56  1  0.16134819  0.16808044  0.67193632  1
  In  In57  1  0.01365201  -0.02029235  0.33125839  1
  In  In58  1  -0.00926434  -0.00445155  -0.00009033  1
  In  In59  1  0.82146326  0.31390311  0.49164293  1
  In  In60  1  0.82809266  0.17400799  -0.01455382  1
  In  In61  1  0.50559885  0.50075927  0.34013691  1
  In  In62  1  0.51975426  0.67639092  0.81310976  1
  In  In63  1  0.16095896  0.00773097  0.16357477  1
  In  In64  1  0.32535802  0.48298501  0.16092487  1
  In  In65  1  0.32127515  -0.00822764  0.35912617  1
  In  In66  1  0.32272843  0.66863579  0.67440503  1
  In  In67  1  0.32033848  0.67140950  0.01444099  1
  In  In68  1  0.79032184  0.02329638  0.81230906  1
  In  In69  1  0.31120378  0.34762075  0.64530701  1
  In  In70  1  0.52101989  0.86896661  0.39570360  1
  In  In71  1  0.85923912  0.63401123  0.82803859  1
  Te  Te72  1  0.09543149  0.09153349  0.05526951  1
  Te  Te73  1  0.07139138  0.08482436  0.42974995  1
  Te  Te74  1  0.06512459  0.08927223  0.75712496  1
  Te  Te75  1  0.07120828  0.41957608  0.07450323  1
  Te  Te76  1  0.11801481  0.39862388  0.44695147  1
  Te  Te77  1  0.08969032  0.38973243  0.71100124  1
  Te  Te78  1  0.08926306  0.72119536  0.08324813  1
  Te  Te79  1  0.10453877  0.75147928  0.40832570  1
  Te  Te80  1  0.07584959  0.74011459  0.75633475  1
  Te  Te81  1  0.41996145  0.09765649  0.09445116  1
  Te  Te82  1  0.42358547  0.04637188  0.45310931  1
  Te  Te83  1  0.43976843  0.01674474  0.68589012  1
  Te  Te84  1  0.40133498  0.39794034  0.05930754  1
  Te  Te85  1  0.43065790  0.41710624  0.44004207  1
  Te  Te86  1  0.41544299  0.42475192  0.74171870  1
  Te  Te87  1  0.41197036  0.77480459  0.08130476  1
  Te  Te88  1  0.40351407  0.77517854  0.43141504  1
  Te  Te89  1  0.41471777  0.76489682  0.74789360  1
  Te  Te90  1  0.73732174  0.09473197  0.08556300  1
  Te  Te91  1  0.75253126  0.10481064  0.41866427  1
  Te  Te92  1  0.74595907  0.12398807  0.71187715  1
  Te  Te93  1  0.73615437  0.42199638  0.07999053  1
  Te  Te94  1  0.73942919  0.42563062  0.42557318  1
  Te  Te95  1  0.80609283  0.37813798  0.78945700  1
  Te  Te96  1  0.75010167  0.75313412  0.08078783  1
  Te  Te97  1  0.73878531  0.76735062  0.44922554  1
  Te  Te98  1  0.76008644  0.74316087  0.76060363  1
  Te  Te99  1  0.07563183  0.23558059  0.24415112  1
  Te  Te100  1  0.09076738  0.27680519  0.59511447  1
  Te  Te101  1  0.07815252  0.23997613  0.90254618  1
  Te  Te102  1  0.09543077  0.55634216  0.28000065  1
  Te  Te103  1  0.05945746  0.58826301  0.59553290  1
  Te  Te104  1  0.07489300  0.54252398  0.90017777  1
  Te  Te105  1  0.08551518  0.90099867  0.22911525  1
  Te  Te106  1  0.06301330  0.92210741  0.59952227  1
  Te  Te107  1  0.09070533  0.91075472  0.90682327  1
  Te  Te108  1  0.42757790  0.25435584  0.25543464  1
  Te  Te109  1  0.40806530  0.23951929  0.60283603  1
  Te  Te110  1  0.41011496  0.24374556  0.89101034  1
  Te  Te111  1  0.42013146  0.57739952  0.23411600  1
  Te  Te112  1  0.41721605  0.58579871  0.58756062  1
  Te  Te113  1  0.42292627  0.60091616  0.91602069  1
  Te  Te114  1  0.42946811  0.92101507  0.26301650  1
  Te  Te115  1  0.38047179  0.93670456  0.57277363  1
  Te  Te116  1  0.40719244  0.99001426  0.90403722  1
  Te  Te117  1  0.77141401  0.23216514  0.24921503  1
  Te  Te118  1  0.74646255  0.23459263  0.59692869  1
  Te  Te119  1  0.75244530  0.24211144  0.87616439  1
  Te  Te120  1  0.74888824  0.58982467  0.24565990  1
  Te  Te121  1  0.77248573  0.55899181  0.59278412  1
  Te  Te122  1  0.77550578  0.54562610  0.91513949  1
  Te  Te123  1  0.75064957  0.90676955  0.26343730  1
  Te  Te124  1  0.71074315  0.94724874  0.60250484  1
  Te  Te125  1  0.75794781  0.92463089  0.92839075  1
  Te  Te126  1  0.23401701  0.25239898  0.05731527  1
  Te  Te127  1  0.27989320  0.21909283  0.44364381  1
  Te  Te128  1  0.26493535  0.24576637  0.75022579  1
  Te  Te129  1  0.23441221  0.55924079  0.06545120  1
  Te  Te130  1  0.26405923  0.56154829  0.44222236  1
  Te  Te131  1  0.22730062  0.56114283  0.72224256  1
  Te  Te132  1  0.25675546  0.93732539  0.06054707  1
  Te  Te133  1  0.21052107  0.90200380  0.39614027  1
  Te  Te134  1  0.23955283  0.94774975  0.73989971  1
  Te  Te135  1  0.58609120  0.26619826  0.08202000  1
  Te  Te136  1  0.56949929  0.25880101  0.41460319  1
  Te  Te137  1  0.59171466  0.19413376  0.73797750  1
  Te  Te138  1  0.59300859  0.57975806  0.07360097  1
  Te  Te139  1  0.59198904  0.57685551  0.44046894  1
  Te  Te140  1  0.61669139  0.57034749  0.76987077  1
  Te  Te141  1  0.58602533  0.91382990  0.08627066  1
  Te  Te142  1  0.59325927  0.94795518  0.49677378  1
  Te  Te143  1  0.57605537  0.93815121  0.76022360  1
  Te  Te144  1  0.93407379  0.25852418  0.05470701  1
  Te  Te145  1  0.92297310  0.23447456  0.41037422  1
  Te  Te146  1  0.90823385  0.30049356  0.70479814  1
  Te  Te147  1  0.90787980  0.56699455  0.07557627  1
  Te  Te148  1  0.93064814  0.58831590  0.40832368  1
  Te  Te149  1  0.94281287  0.57028244  0.72463284  1
  Te  Te150  1  0.93447426  0.89859240  0.09396261  1
  Te  Te151  1  0.90900278  0.92268651  0.43170676  1
  Te  Te152  1  0.89015399  0.92440251  0.74545862  1
  Te  Te153  1  0.25154652  0.09299460  0.25992572  1
  Te  Te154  1  0.24289289  0.10439643  0.56330858  1
  Te  Te155  1  0.29824351  0.10352639  0.89820036  1
  Te  Te156  1  0.24504108  0.40874002  0.26603646  1
  Te  Te157  1  0.24384833  0.42484244  0.53909557  1
  Te  Te158  1  0.25037048  0.41880983  0.91564963  1
  Te  Te159  1  0.26896544  0.73495595  0.24549335  1
  Te  Te160  1  0.24776846  0.75725919  0.57740716  1
  Te  Te161  1  0.25801255  0.75540593  0.89744928  1
  Te  Te162  1  0.60185881  0.06727679  0.28872415  1
  Te  Te163  1  0.53978924  0.12452619  0.61008496  1
  Te  Te164  1  0.58754499  0.10689780  0.88598808  1
  Te  Te165  1  0.60601873  0.43013279  0.24960883  1
  Te  Te166  1  0.61517183  0.40152199  0.62231750  1
  Te  Te167  1  0.57731206  0.40425740  0.89139156  1
  Te  Te168  1  0.56430484  0.74543317  0.28127778  1
  Te  Te169  1  0.58245495  0.75337145  0.60434766  1
  Te  Te170  1  0.58384394  0.75581801  0.92702329  1
  Te  Te171  1  0.91529361  0.06357992  0.24706277  1
  Te  Te172  1  0.90946730  0.08888273  0.61606618  1
  Te  Te173  1  0.91146891  0.07842958  0.90016717  1
  Te  Te174  1  0.91308395  0.39593426  0.25237222  1
  Te  Te175  1  0.90787582  0.40240811  0.57634012  1
  Te  Te176  1  0.88588257  0.41661842  0.90952893  1
  Te  Te177  1  0.93737847  0.74114690  0.26051174  1
  Te  Te178  1  0.91780159  0.74908243  0.59455117  1
  Te  Te179  1  0.90728365  0.74777735  0.92505220  1
