# generated using pymatgen
data_In2Te3
_symmetry_space_group_name_H-M   'P 1'
_cell_length_a   18.85932083
_cell_length_b   18.85036630
_cell_length_c   18.84601991
_cell_angle_alpha   89.92350506
_cell_angle_beta   89.92242756
_cell_angle_gamma   90.00911338
_symmetry_Int_Tables_number   1
_chemical_formula_structural   In2Te3
_chemical_formula_sum   'In72 Te108'
_cell_volume   6699.84410273
_cell_formula_units_Z   36
loop_
 _symmetry_equiv_pos_site_id
 _symmetry_equiv_pos_as_xyz
  1  'x, y, z'
loop_
 _atom_site_type_symbol
 _atom_site_label
 _atom_site_symmetry_multiplicity
 _atom_site_fract_x
 _atom_site_fract_y
 _atom_site_fract_z
 _atom_site_occupancy
  In  In0  1  0.49512383  0.35265094  0.48757575  1
  In  In1  1  0.33991218  0.19876360  0.47853301  1
  In  In2  1  0.67302381  0.82857333  0.48933259  1
  In  In3  1  0.65400593  0.84104663  0.15517477  1
  In  In4  1  0.15387508  0.33328693  0.49588288  1
  In  In5  1  0.68689918  0.16043568  0.85364043  1
  In  In6  1  0.83916428  0.33266920  0.15935738  1
  In  In7  1  0.00739303  0.82982033  0.49464760  1
  In  In8  1  0.32340397  0.67253459  -0.01342129  1
  In  In9  1  0.66038298  0.01491431  0.00589397  1
  In  In10  1  0.66426791  0.31050763  -0.00549320  1
  In  In11  1  0.00959110  0.49086732  0.84308446  1
  In  In12  1  0.67096107  0.50735904  0.50580448  1
  In  In13  1  0.84816882  -0.01001225  0.50721495  1
  In  In14  1  0.84587754  0.34185695  0.48296597  1
  In  In15  1  0.82684165  0.81904970  0.65647901  1
  In  In16  1  0.18509261  0.00045659  0.15966453  1
  In  In17  1  0.13378512  0.66732820  0.16495289  1
  In  In18  1  0.49751992  0.83859210  -0.00935846  1
  In  In19  1  -0.00341484  0.00029154  -0.01232414  1
  In  In20  1  0.85177583  0.49595256  0.02095275  1
  In  In21  1  0.66371859  -0.00218390  0.33290048  1
  In  In22  1  0.50382920  0.30889447  0.84544531  1
  In  In23  1  0.81606269  0.82547575  0.32410099  1
  In  In24  1  0.14209272  0.16587581  0.64126455  1
  In  In25  1  0.15524173  0.46438581  0.02118285  1
  In  In26  1  0.49429966  -0.01512503  0.83557763  1
  In  In27  1  0.19142906  0.19376889  0.01022554  1
  In  In28  1  0.52405486  0.67448859  0.18850788  1
  In  In29  1  0.48947585  0.83962138  0.68649382  1
  In  In30  1  0.50459887  0.51139243  0.00867886  1
  In  In31  1  0.33239814  0.49000790  0.17714662  1
  In  In32  1  0.00367643  0.19533610  0.81694331  1
  In  In33  1  0.16818384  0.64108087  0.84177627  1
  In  In34  1  0.48233285  0.18605034  0.31422971  1
  In  In35  1  0.17644942  0.83151449  0.67130568  1
  In  In36  1  0.15579960  0.52455682  0.31440712  1
  In  In37  1  0.32065657  0.32559337  0.68579729  1
  In  In38  1  0.67229771  0.15706538  0.14935034  1
  In  In39  1  0.33485533  0.00629028  0.32467073  1
  In  In40  1  0.17277853  0.03344629  0.84347563  1
  In  In41  1  -0.02650070  0.63015939  0.33326372  1
  In  In42  1  0.34344377  0.16783457  0.86245220  1
  In  In43  1  0.48551073  0.67203638  0.50335382  1
  In  In44  1  0.67145046  0.65106997  -0.00036288  1
  In  In45  1  0.17052086  0.35065164  0.83973643  1
  In  In46  1  -0.01411457  0.82856774  0.83931988  1
  In  In47  1  0.53711898  0.17128689  0.67818084  1
  In  In48  1  0.84132812  0.65359018  0.83215497  1
  In  In49  1  0.01110766  0.34730296  0.28754746  1
  In  In50  1  0.68241037  0.64487373  0.67110577  1
  In  In51  1  0.50398573  0.50655480  0.66364917  1
  In  In52  1  0.00415751  -0.00177538  0.60957001  1
  In  In53  1  0.66143697  0.16062569  0.53722567  1
  In  In54  1  0.34108107  0.85047310  0.17350787  1
  In  In55  1  -0.01728508  0.17312403  0.16686137  1
  In  In56  1  0.82727622  -0.00290409  0.83665430  1
  In  In57  1  0.64885006  0.35045477  0.32666728  1
  In  In58  1  0.01901507  0.84443217  0.17636782  1
  In  In59  1  0.50794984  0.47084016  0.33914774  1
  In  In60  1  0.83365118  0.17501642  0.69185879  1
  In  In61  1  0.33259351  0.67836380  0.35831112  1
  In  In62  1  0.70603334  0.64661828  0.31316125  1
  In  In63  1  0.31365756  0.32140084  0.33342561  1
  In  In64  1  0.85183313  0.16982491  0.33588932  1
  In  In65  1  -0.01609823  0.62949793  0.68189718  1
  In  In66  1  0.50205892  0.66903370  0.81493293  1
  In  In67  1  0.17772785  0.84898507  0.32999691  1
  In  In68  1  0.33258837  0.00106681  0.65252211  1
  In  In69  1  0.16410189  0.68866920  0.51102884  1
  In  In70  1  0.16977810  0.50468158  0.67502306  1
  In  In71  1  0.83242250  0.82850939  -0.00517628  1
  Te  Te72  1  0.08855889  0.08639966  0.07130116  1
  Te  Te73  1  0.04875380  0.06785228  0.48750350  1
  Te  Te74  1  0.06373931  0.06932155  0.74067563  1
  Te  Te75  1  0.06428844  0.41203524  0.12483456  1
  Te  Te76  1  0.07778926  0.42906761  0.40442934  1
  Te  Te77  1  0.07442614  0.40242846  0.73420755  1
  Te  Te78  1  0.08254057  0.76617700  0.06893834  1
  Te  Te79  1  0.07888187  0.73769000  0.38802241  1
  Te  Te80  1  0.06986692  0.74277743  0.74255288  1
  Te  Te81  1  0.46018334  0.14047570  0.03468099  1
  Te  Te82  1  0.42850381  0.09220879  0.42077059  1
  Te  Te83  1  0.41632966  0.09690326  0.74870610  1
  Te  Te84  1  0.41679391  0.41617258  0.08115479  1
  Te  Te85  1  0.38455263  0.42787059  0.41762162  1
  Te  Te86  1  0.42593378  0.40787290  0.75655609  1
  Te  Te87  1  0.42870409  0.73648724  0.08762454  1
  Te  Te88  1  0.43059476  0.77340382  0.41065865  1
  Te  Te89  1  0.39514817  0.74884278  0.75385709  1
  Te  Te90  1  0.77215310  0.08527259  0.06925489  1
  Te  Te91  1  0.75061871  0.08480358  0.42654779  1
  Te  Te92  1  0.73382776  0.06939670  0.74035104  1
  Te  Te93  1  0.73481826  0.41213432  0.08408615  1
  Te  Te94  1  0.75181732  0.43236282  0.39902739  1
  Te  Te95  1  0.69621422  0.40407125  0.71333887  1
  Te  Te96  1  0.75135978  0.74263239  0.09229613  1
  Te  Te97  1  0.76839976  0.72593875  0.42921604  1
  Te  Te98  1  0.74617547  0.75067870  0.76487321  1
  Te  Te99  1  0.09229984  0.23147996  0.24571533  1
  Te  Te100  1  0.05766746  0.27552530  0.59335824  1
  Te  Te101  1  0.08255884  0.26388750  0.92937021  1
  Te  Te102  1  0.04585167  0.54678709  0.20070222  1
  Te  Te103  1  0.08055714  0.57794663  0.57605384  1
  Te  Te104  1  0.07932009  0.57654340  0.94710159  1
  Te  Te105  1  0.08595750  0.95080278  0.26540151  1
  Te  Te106  1  0.12126435  0.91400467  0.55221477  1
  Te  Te107  1  0.09127022  0.91517920  0.90543470  1
  Te  Te108  1  0.38686079  0.25288171  0.21872619  1
  Te  Te109  1  0.42883411  0.25661881  0.59548206  1
  Te  Te110  1  0.40192464  0.27241442  0.95184425  1
  Te  Te111  1  0.41923327  0.58739336  0.26043765  1
  Te  Te112  1  0.40557634  0.57426340  0.57894445  1
  Te  Te113  1  0.41532725  0.58114663  0.90669393  1
  Te  Te114  1  0.43718294  0.92854847  0.24914626  1
  Te  Te115  1  0.42112546  0.91202706  0.57733717  1
  Te  Te116  1  0.39562916  0.91749435  0.92081086  1
  Te  Te117  1  0.74202192  0.24629422  0.25947002  1
  Te  Te118  1  0.76086458  0.26377516  0.58497503  1
  Te  Te119  1  0.77648536  0.26255936  0.90959812  1
  Te  Te120  1  0.79822298  0.56590322  0.22702356  1
  Te  Te121  1  0.78024889  0.57466489  0.58231802  1
  Te  Te122  1  0.75454897  0.55882081  0.91397525  1
  Te  Te123  1  0.75379395  0.92886410  0.23084612  1
  Te  Te124  1  0.73946441  0.92330278  0.58952078  1
  Te  Te125  1  0.73108734  0.91126826  0.91703825  1
  Te  Te126  1  0.26230029  0.25645268  0.12182806  1
  Te  Te127  1  0.21199027  0.22758425  0.40002910  1
  Te  Te128  1  0.23341483  0.22619953  0.76198064  1
  Te  Te129  1  0.24756860  0.58640191  0.09078784  1
  Te  Te130  1  0.24006936  0.58146013  0.42824244  1
  Te  Te131  1  0.26740054  0.58297827  0.75054049  1
  Te  Te132  1  0.24020828  0.89147255  0.07654421  1
  Te  Te133  1  0.27326590  0.91118468  0.42110562  1
  Te  Te134  1  0.25181025  0.93110732  0.76025574  1
  Te  Te135  1  0.56448470  0.24343989  0.08765795  1
  Te  Te136  1  0.58500364  0.24494832  0.42285279  1
  Te  Te137  1  0.63027430  0.27386539  0.75357827  1
  Te  Te138  1  0.60367306  0.57165979  0.11109984  1
  Te  Te139  1  0.58423420  0.58548677  0.40698463  1
  Te  Te140  1  0.60162084  0.56035446  0.76836438  1
  Te  Te141  1  0.55772267  0.93833304  0.08901723  1
  Te  Te142  1  0.57797716  0.91838110  0.42287209  1
  Te  Te143  1  0.59521254  0.91497584  0.75657771  1
  Te  Te144  1  0.91518906  0.25263977  0.06236808  1
  Te  Te145  1  0.94859597  0.26109931  0.40478534  1
  Te  Te146  1  0.90213137  0.28697138  0.76027309  1
  Te  Te147  1  0.89229516  0.60552280  0.11057998  1
  Te  Te148  1  0.91054517  0.55806815  0.44536998  1
  Te  Te149  1  0.89063248  0.53309906  0.75364289  1
  Te  Te150  1  0.91495872  0.91776974  0.08550802  1
  Te  Te151  1  0.91952205  0.91053468  0.39988884  1
  Te  Te152  1  0.91472114  0.91776126  0.73656533  1
  Te  Te153  1  0.27621024  0.09889907  0.22364135  1
  Te  Te154  1  0.25554123  0.10068454  0.56670465  1
  Te  Te155  1  0.26977857  0.07237212  0.95473399  1
  Te  Te156  1  0.22339546  0.40669775  0.24234197  1
  Te  Te157  1  0.25251043  0.41263680  0.58303714  1
  Te  Te158  1  0.26083759  0.42605654  0.92633628  1
  Te  Te159  1  0.24844439  0.73854447  0.24354146  1
  Te  Te160  1  0.27038500  0.75508598  0.58674764  1
  Te  Te161  1  0.23629296  0.75614854  0.90386147  1
  Te  Te162  1  0.57460078  0.08641535  0.24375750  1
  Te  Te163  1  0.56392121  0.06090853  0.58397446  1
  Te  Te164  1  0.55823958  0.10587821  0.92148766  1
  Te  Te165  1  0.55756991  0.39846579  0.22097891  1
  Te  Te166  1  0.60251232  0.39865172  0.59151668  1
  Te  Te167  1  0.58508757  0.41645570  0.91787522  1
  Te  Te168  1  0.60729233  0.76237944  0.27772448  1
  Te  Te169  1  0.59073355  0.73916646  0.59330283  1
  Te  Te170  1  0.59011203  0.74693643  0.91280488  1
  Te  Te171  1  0.91617590  0.07037814  0.25055583  1
  Te  Te172  1  0.90951777  0.11651006  0.56892378  1
  Te  Te173  1  0.91639872  0.09796078  0.90378575  1
  Te  Te174  1  0.88773320  0.43050207  0.26127076  1
  Te  Te175  1  0.90770280  0.45330480  0.55858784  1
  Te  Te176  1  0.93287558  0.40521348  0.93656883  1
  Te  Te177  1  0.92201189  0.74613967  0.24804388  1
  Te  Te178  1  0.92661072  0.73564782  0.58104724  1
  Te  Te179  1  0.92755866  0.72518453  0.93493729  1
