# generated using pymatgen
data_In2Te3
_symmetry_space_group_name_H-M   'P 1'
_cell_length_a   18.78820360
_cell_length_b   18.78003381
_cell_length_c   18.78243902
_cell_angle_alpha   90.00369151
_cell_angle_beta   89.94553655
_cell_angle_gamma   90.02105190
_symmetry_Int_Tables_number   1
_chemical_formula_structural   In2Te3
_chemical_formula_sum   'In72 Te108'
_cell_volume   6627.25052935
_cell_formula_units_Z   36
loop_
 _symmetry_equiv_pos_site_id
 _symmetry_equiv_pos_as_xyz
  1  'x, y, z'
loop_
 _atom_site_type_symbol
 _atom_site_label
 _atom_site_symmetry_multiplicity
 _atom_site_fract_x
 _atom_site_fract_y
 _atom_site_fract_z
 _atom_site_occupancy
  In  In0  1  0.49494983  0.52936781  0.66060421  1
  In  In1  1  0.30986357  0.19282722  0.49084992  1
  In  In2  1  0.67986914  -0.02900308  0.34024689  1
  In  In3  1  0.35736081  -0.02407692  0.29634825  1
  In  In4  1  -0.00033081  0.83408194  0.16238334  1
  In  In5  1  0.68176560  0.67962814  -0.00038312  1
  In  In6  1  0.34202551  0.82106226  0.48252208  1
  In  In7  1  0.82256942  -0.01073146  0.84779747  1
  In  In8  1  0.82767761  0.85396485  0.68015121  1
  In  In9  1  0.30880312  0.33951299  0.66804317  1
  In  In10  1  0.68362184  0.34564660  0.34525574  1
  In  In11  1  0.66958700  0.50348658  0.49593520  1
  In  In12  1  0.01939210  0.66655071  0.65483360  1
  In  In13  1  0.16853559  0.16869119  0.02101629  1
  In  In14  1  0.65224640  0.16307694  0.15685620  1
  In  In15  1  0.86166456  0.48023143  0.65092545  1
  In  In16  1  0.02625420  0.18837245  0.17507719  1
  In  In17  1  0.69051641  0.34016905  0.68583640  1
  In  In18  1  0.01482844  0.19389769  0.50236788  1
  In  In19  1  0.48284878  0.15721172  0.32559990  1
  In  In20  1  -0.02557269  0.35337418  -0.00367704  1
  In  In21  1  0.00645617  0.81571120  0.47407633  1
  In  In22  1  0.49367916  0.35088921  0.48199671  1
  In  In23  1  0.14331045  0.36371998  0.47473903  1
  In  In24  1  0.17457688  0.00433783  0.48214373  1
  In  In25  1  0.53856479  0.86131211  0.69501041  1
  In  In26  1  0.84026560  -0.00001675  0.49597694  1
  In  In27  1  0.31709662  0.17229488  0.17245149  1
  In  In28  1  0.51028199  -0.00312130  0.49167384  1
  In  In29  1  0.82873198  0.66714649  0.48442234  1
  In  In30  1  0.67218028  0.81143091  0.50012177  1
  In  In31  1  0.15439659  0.35218510  0.83108360  1
  In  In32  1  0.16376242  0.63786751  0.47903470  1
  In  In33  1  0.49162295  0.30758110  0.15767947  1
  In  In34  1  0.34032458  0.50665129  0.83862261  1
  In  In35  1  0.67219635  0.17297892  0.52930887  1
  In  In36  1  0.68420796  0.49309926  0.16284565  1
  In  In37  1  0.16401237  0.50058822  0.01503898  1
  In  In38  1  -0.02592817  0.82295948  0.83310884  1
  In  In39  1  0.35013411  0.64371050  0.65243883  1
  In  In40  1  0.33765036  0.02328876  0.65159093  1
  In  In41  1  0.50313340  0.17962073  0.69347137  1
  In  In42  1  0.34662797  0.18327034  0.83033804  1
  In  In43  1  0.86403786  0.18669680  0.34318842  1
  In  In44  1  0.29756148  0.48561451  0.18319792  1
  In  In45  1  0.00144611  0.64127333  0.01243776  1
  In  In46  1  0.49793350  0.68751319  0.17698579  1
  In  In47  1  0.66329025  -0.01928971  0.00287408  1
  In  In48  1  0.51040130  0.15037514  -0.01035674  1
  In  In49  1  0.34254830  -0.02010809  0.02638415  1
  In  In50  1  0.82704483  0.65255155  0.16232845  1
  In  In51  1  0.16104927  0.83184616  0.02754962  1
  In  In52  1  0.15084124  0.02214987  0.84141326  1
  In  In53  1  0.82499759  0.17227907  0.68498434  1
  In  In54  1  -0.00477220  -0.01172934  0.34044459  1
  In  In55  1  0.50614078  0.65298335  0.83486465  1
  In  In56  1  0.50043227  0.81633105  0.02018481  1
  In  In57  1  0.65290068  0.67862928  0.67542156  1
  In  In58  1  0.50959054  0.48279085  0.00069284  1
  In  In59  1  0.81820500  -0.00453537  0.15818235  1
  In  In60  1  -0.00214814  0.16479725  0.82002190  1
  In  In61  1  -0.00460922  0.02772063  -0.00398293  1
  In  In62  1  0.30783487  0.67747836  0.31003537  1
  In  In63  1  0.15187774  0.48895673  0.66139024  1
  In  In64  1  0.01072834  0.64051815  0.31604729  1
  In  In65  1  0.33563931  0.83753720  0.84385653  1
  In  In66  1  0.86459616  0.34510805  0.18287363  1
  In  In67  1  0.82466434  0.65304245  0.83312128  1
  In  In68  1  0.51616838  0.32323781  0.84766077  1
  In  In69  1  0.14960708  0.66890668  0.86141430  1
  In  In70  1  0.50425666  0.50280120  0.34731049  1
  In  In71  1  0.16873826  0.86067469  0.63522619  1
  Te  Te72  1  0.09354329  0.06688645  0.10600778  1
  Te  Te73  1  0.08231594  0.09716897  0.40325293  1
  Te  Te74  1  0.07979016  0.08238855  0.72814130  1
  Te  Te75  1  0.06692793  0.41806919  0.09456138  1
  Te  Te76  1  0.08075806  0.45162179  0.36585981  1
  Te  Te77  1  0.05489128  0.40343565  0.73463201  1
  Te  Te78  1  0.09026206  0.72114538  0.10673800  1
  Te  Te79  1  0.10580706  0.74520286  0.38554314  1
  Te  Te80  1  0.09513484  0.76519577  0.74713270  1
  Te  Te81  1  0.42354319  0.08760666  0.09885332  1
  Te  Te82  1  0.39724621  0.07684434  0.42681678  1
  Te  Te83  1  0.42613977  0.06934094  0.76758098  1
  Te  Te84  1  0.40780285  0.41547736  0.09081545  1
  Te  Te85  1  0.39363779  0.41458582  0.39587652  1
  Te  Te86  1  0.42023065  0.40955147  0.74900052  1
  Te  Te87  1  0.38638238  0.75468099  0.09951718  1
  Te  Te88  1  0.41629117  0.72770634  0.39776624  1
  Te  Te89  1  0.41800585  0.74750800  0.74954979  1
  Te  Te90  1  0.75117973  0.09467009  0.06414694  1
  Te  Te91  1  0.74747922  0.09446210  0.41312399  1
  Te  Te92  1  0.74216913  0.05797877  0.73864803  1
  Te  Te93  1  0.76544101  0.39750146  0.07728915  1
  Te  Te94  1  0.77483432  0.43790773  0.41386575  1
  Te  Te95  1  0.78347968  0.42399030  0.76913464  1
  Te  Te96  1  0.73705288  0.76174922  0.11025990  1
  Te  Te97  1  0.74370772  0.74237522  0.39075935  1
  Te  Te98  1  0.74038125  0.76381428  0.76660572  1
  Te  Te99  1  0.10049951  0.26985204  0.27341614  1
  Te  Te100  1  0.09111245  0.28558326  0.59192567  1
  Te  Te101  1  0.08082731  0.24973484  0.92574924  1
  Te  Te102  1  0.07290524  0.53269740  0.22982188  1
  Te  Te103  1  0.05900865  0.55690520  0.55698479  1
  Te  Te104  1  0.06565205  0.55187882  0.90384910  1
  Te  Te105  1  0.08604137  0.91148811  0.25400714  1
  Te  Te106  1  0.06002193  0.93258199  0.55941990  1
  Te  Te107  1  0.08016617  0.90778262  0.91978304  1
  Te  Te108  1  0.39732322  0.26843515  0.27108721  1
  Te  Te109  1  0.41794881  0.25072896  0.58654738  1
  Te  Te110  1  0.41195304  0.26097286  0.94176348  1
  Te  Te111  1  0.42062838  0.56948869  0.23643150  1
  Te  Te112  1  0.42039251  0.57548246  0.54228926  1
  Te  Te113  1  0.41448298  0.59226263  0.93980188  1
  Te  Te114  1  0.45239375  0.88740256  0.22274041  1
  Te  Te115  1  0.41563259  0.90818515  0.58876197  1
  Te  Te116  1  0.43564927  0.92127246  0.92053560  1
  Te  Te117  1  0.74991383  0.24747771  0.24506000  1
  Te  Te118  1  0.77295450  0.27701608  0.57149183  1
  Te  Te119  1  0.72523933  0.30227970  0.96109692  1
  Te  Te120  1  0.75039872  0.57467690  0.26561972  1
  Te  Te121  1  0.75520262  0.58997332  0.60346065  1
  Te  Te122  1  0.76041450  0.57103642  0.93785526  1
  Te  Te123  1  0.74553192  0.88943381  0.23327082  1
  Te  Te124  1  0.73648466  0.92498586  0.57988947  1
  Te  Te125  1  0.76293485  0.89010528  0.93941988  1
  Te  Te126  1  0.24025018  0.27603023  0.09616311  1
  Te  Te127  1  0.21797440  0.25759397  0.39398376  1
  Te  Te128  1  0.23018968  0.24028604  0.75295898  1
  Te  Te129  1  0.24835807  0.59259702  0.09371601  1
  Te  Te130  1  0.24547701  0.56285273  0.38178350  1
  Te  Te131  1  0.23937130  0.58650358  0.75421566  1
  Te  Te132  1  0.24861427  0.91201321  0.12285817  1
  Te  Te133  1  0.25396962  0.90805244  0.39503061  1
  Te  Te134  1  0.25014943  0.92554182  0.74979799  1
  Te  Te135  1  0.60165604  0.26953350  0.05198991  1
  Te  Te136  1  0.58165205  0.23988748  0.41659407  1
  Te  Te137  1  0.61979068  0.23599839  0.77358650  1
  Te  Te138  1  0.58435592  0.58715171  0.08836734  1
  Te  Te139  1  0.59930162  0.59871238  0.40727255  1
  Te  Te140  1  0.60446718  0.56183785  0.76277454  1
  Te  Te141  1  0.56303262  0.92601124  0.10206599  1
  Te  Te142  1  0.56776730  0.88706163  0.40707669  1
  Te  Te143  1  0.61920334  0.95446958  0.77365809  1
  Te  Te144  1  0.91686312  0.23951471  0.08382008  1
  Te  Te145  1  0.93215736  0.29450740  0.42174168  1
  Te  Te146  1  0.90879992  0.26887315  0.76077835  1
  Te  Te147  1  0.90283696  0.55436197  0.07928182  1
  Te  Te148  1  0.93091166  0.57791412  0.42715484  1
  Te  Te149  1  0.93132802  0.58370316  0.74746185  1
  Te  Te150  1  0.91432911  0.91851389  0.06630794  1
  Te  Te151  1  0.89351878  0.89212765  0.40230122  1
  Te  Te152  1  0.93430767  0.94065577  0.74641518  1
  Te  Te153  1  0.25340418  0.07582921  0.26400249  1
  Te  Te154  1  0.22785164  0.10441487  0.58645366  1
  Te  Te155  1  0.26258117  0.08112946  0.92845698  1
  Te  Te156  1  0.21111373  0.37392517  0.23308502  1
  Te  Te157  1  0.25604810  0.43404649  0.56425732  1
  Te  Te158  1  0.25814641  0.41239045  0.92422473  1
  Te  Te159  1  0.26756373  0.77978548  0.21013357  1
  Te  Te160  1  0.24135919  0.73755236  0.58003201  1
  Te  Te161  1  0.25544367  0.74748932  0.93769259  1
  Te  Te162  1  0.58802544  0.06957893  0.25985166  1
  Te  Te163  1  0.57713956  0.07832591  0.60058351  1
  Te  Te164  1  0.60109567  0.07347681  0.90001354  1
  Te  Te165  1  0.58096329  0.40204077  0.24390925  1
  Te  Te166  1  0.58447405  0.40646285  0.59133704  1
  Te  Te167  1  0.61067982  0.42342975  0.90757329  1
  Te  Te168  1  0.57083445  0.78940356  0.25465270  1
  Te  Te169  1  0.55786075  0.75246250  0.58535833  1
  Te  Te170  1  0.58748501  0.75873762  0.90770499  1
  Te  Te171  1  0.91605332  0.08174129  0.24202877  1
  Te  Te172  1  0.91346989  0.10422096  0.57843902  1
  Te  Te173  1  0.89333086  0.10777614  0.91645045  1
  Te  Te174  1  0.95718407  0.42981048  0.26530869  1
  Te  Te175  1  0.91401719  0.38172796  0.55394192  1
  Te  Te176  1  0.87023369  0.38964530  0.89772825  1
  Te  Te177  1  0.91731611  0.74187672  0.25148790  1
  Te  Te178  1  0.91238771  0.75991800  0.59119546  1
  Te  Te179  1  0.90705727  0.73757684  0.93653006  1
