# generated using pymatgen
data_In2Te3
_symmetry_space_group_name_H-M   'P 1'
_cell_length_a   19.06104241
_cell_length_b   19.05217554
_cell_length_c   19.09747164
_cell_angle_alpha   89.98463924
_cell_angle_beta   90.06283787
_cell_angle_gamma   90.17330142
_symmetry_Int_Tables_number   1
_chemical_formula_structural   In2Te3
_chemical_formula_sum   'In72 Te108'
_cell_volume   6935.29330334
_cell_formula_units_Z   36
loop_
 _symmetry_equiv_pos_site_id
 _symmetry_equiv_pos_as_xyz
  1  'x, y, z'
loop_
 _atom_site_type_symbol
 _atom_site_label
 _atom_site_symmetry_multiplicity
 _atom_site_fract_x
 _atom_site_fract_y
 _atom_site_fract_z
 _atom_site_occupancy
  In  In0  1  0.69504810  0.17944013  0.15007539  1
  In  In1  1  0.49706179  0.15800596  0.65313988  1
  In  In2  1  0.48817476  0.01853249  0.50315065  1
  In  In3  1  0.46470017  0.65702126  0.14703855  1
  In  In4  1  0.49190671  0.48833823  0.72070554  1
  In  In5  1  0.00434806  -0.00722262  0.00126636  1
  In  In6  1  0.31013626  0.50950839  0.83456998  1
  In  In7  1  0.01499105  0.33794884  0.67480898  1
  In  In8  1  0.15389036  0.49790058  0.32191529  1
  In  In9  1  -0.01378305  0.68611029  0.65262628  1
  In  In10  1  0.49287434  0.32049101  0.50940448  1
  In  In11  1  0.85093270  -0.01605196  0.83886601  1
  In  In12  1  0.49962981  -0.02194289  0.83456374  1
  In  In13  1  0.50764259  0.82121387  0.69462602  1
  In  In14  1  0.52075138  0.65348922  0.84992888  1
  In  In15  1  0.84779636  0.83600137  -0.00826390  1
  In  In16  1  0.82973173  0.35076850  0.15777618  1
  In  In17  1  0.15259983  0.82629999  -0.00414895  1
  In  In18  1  0.68311747  0.65097734  0.01113260  1
  In  In19  1  0.83210841  0.16056063  0.33331187  1
  In  In20  1  0.01235929  0.52581902  0.50876789  1
  In  In21  1  0.82952593  0.82470658  0.34379972  1
  In  In22  1  0.15532023  -0.00305379  0.17672851  1
  In  In23  1  0.31674970  -0.00704285  0.66387000  1
  In  In24  1  0.00354234  0.83081537  0.49314248  1
  In  In25  1  0.18610278  0.86398991  0.36286777  1
  In  In26  1  0.50268930  0.15499902  0.01536619  1
  In  In27  1  0.34198606  0.49206169  0.51406181  1
  In  In28  1  0.70744402  0.71105514  0.68493180  1
  In  In29  1  0.50405058  0.17909036  0.34758608  1
  In  In30  1  0.17341412  0.51320918  0.66445858  1
  In  In31  1  0.32916988  0.68620647  0.37485544  1
  In  In32  1  0.16004092  0.14363407  -0.02807923  1
  In  In33  1  0.73748477  0.65844294  0.28433763  1
  In  In34  1  0.00780620  0.66797179  -0.00958971  1
  In  In35  1  0.66552537  0.16855243  0.82908976  1
  In  In36  1  0.18747286  0.32806322  0.83646271  1
  In  In37  1  0.84955502  0.53244991  0.69150015  1
  In  In38  1  0.00708175  0.67484352  0.33595683  1
  In  In39  1  0.49034718  -0.00950474  0.14924343  1
  In  In40  1  0.83876987  0.33493166  0.49746153  1
  In  In41  1  0.66839056  0.49770235  0.84748700  1
  In  In42  1  0.84110516  0.01653817  0.16024561  1
  In  In43  1  0.67564695  0.85788663  0.50648078  1
  In  In44  1  0.32530204  0.82939358  0.16287892  1
  In  In45  1  0.35502129  0.31894101  0.01864560  1
  In  In46  1  0.30689240  0.16314125  0.17713650  1
  In  In47  1  0.00664217  0.01017999  0.32538091  1
  In  In48  1  0.49506542  0.47756630  -0.01525586  1
  In  In49  1  0.14898722  0.18340654  0.33598675  1
  In  In50  1  0.70042665  -0.03460629  0.69005984  1
  In  In51  1  0.52469888  0.33776732  0.18502630  1
  In  In52  1  -0.02703311  0.13972018  0.52298267  1
  In  In53  1  0.65409523  0.02583150  0.32749761  1
  In  In54  1  0.84332087  0.48626531  -0.00369924  1
  In  In55  1  0.84593842  0.31481701  0.83477747  1
  In  In56  1  0.33641885  0.83004951  0.84382750  1
  In  In57  1  0.67314867  0.33716978  0.64709606  1
  In  In58  1  0.29010922  0.52722018  0.12521225  1
  In  In59  1  0.16043228  -0.03059004  0.79620414  1
  In  In60  1  0.66044563  0.16901578  0.50957317  1
  In  In61  1  0.49788760  0.51983912  0.31087195  1
  In  In62  1  -0.01418829  0.34076907  0.00803034  1
  In  In63  1  0.01587815  0.13613041  0.81250135  1
  In  In64  1  0.31512499  0.16763929  0.83974264  1
  In  In65  1  0.00248286  0.49647934  0.15832505  1
  In  In66  1  0.66366883  0.82350574  0.17419827  1
  In  In67  1  0.49714440  0.81534817  0.31056246  1
  In  In68  1  0.66586344  0.52069263  0.50163618  1
  In  In69  1  0.14562680  0.34921920  0.49757123  1
  In  In70  1  0.30615222  0.35346339  0.32481652  1
  In  In71  1  0.46377508  0.67464870  0.52106120  1
  Te  Te72  1  0.07865306  0.09261935  0.08877680  1
  Te  Te73  1  0.08050532  0.08431317  0.43190754  1
  Te  Te74  1  0.07578300  0.05207576  0.70795072  1
  Te  Te75  1  0.08887494  0.43926687  0.05048935  1
  Te  Te76  1  0.05263293  0.42287516  0.40542440  1
  Te  Te77  1  0.09780323  0.42581738  0.76375244  1
  Te  Te78  1  0.06464898  0.75865130  0.09035387  1
  Te  Te79  1  0.10812087  0.74775166  0.42299086  1
  Te  Te80  1  0.03889547  0.81794524  0.70018133  1
  Te  Te81  1  0.38917870  0.07938158  0.07965579  1
  Te  Te82  1  0.40417441  0.09941891  0.41721003  1
  Te  Te83  1  0.41718376  0.07887649  0.75606416  1
  Te  Te84  1  0.42010097  0.42034331  0.11061283  1
  Te  Te85  1  0.42301766  0.41577613  0.40356299  1
  Te  Te86  1  0.38687821  0.40206986  0.76890951  1
  Te  Te87  1  0.41953670  0.76946144  0.06681033  1
  Te  Te88  1  0.39927120  0.81217736  0.42480356  1
  Te  Te89  1  0.41783577  0.72688776  0.76526198  1
  Te  Te90  1  0.73825772  0.06650341  0.06931707  1
  Te  Te91  1  0.75197600  0.07652343  0.43002723  1
  Te  Te92  1  0.76587728  0.08341517  0.75635982  1
  Te  Te93  1  0.73301389  0.43609994  0.08260143  1
  Te  Te94  1  0.75690965  0.43422512  0.42945024  1
  Te  Te95  1  0.75753425  0.41631388  0.74407029  1
  Te  Te96  1  0.76478609  0.75100960  0.08959763  1
  Te  Te97  1  0.71606274  0.75006405  0.40774825  1
  Te  Te98  1  0.81211376  0.76292874  0.77224049  1
  Te  Te99  1  0.12216769  0.28532383  0.23859903  1
  Te  Te100  1  0.07798141  0.24197212  0.57874105  1
  Te  Te101  1  0.07228092  0.24889003  0.90739164  1
  Te  Te102  1  0.08956086  0.60026480  0.23418462  1
  Te  Te103  1  0.10659387  0.61724526  0.57923103  1
  Te  Te104  1  0.12192160  0.57280498  0.96973407  1
  Te  Te105  1  0.07890048  0.89646213  0.25925045  1
  Te  Te106  1  0.07505596  0.91953982  0.58953388  1
  Te  Te107  1  0.06769633  0.90485175  0.89774316  1
  Te  Te108  1  0.40496059  0.25553624  0.24944845  1
  Te  Te109  1  0.39965763  0.24359771  0.58852143  1
  Te  Te110  1  0.42651357  0.23832840  0.91401412  1
  Te  Te111  1  0.37702676  0.58585897  0.24787692  1
  Te  Te112  1  0.41164207  0.57083056  0.62155641  1
  Te  Te113  1  0.40921628  0.58397209  0.92454771  1
  Te  Te114  1  0.40672889  0.92288882  0.25378535  1
  Te  Te115  1  0.43555283  0.92056186  0.60533339  1
  Te  Te116  1  0.42390545  0.90428703  0.93481112  1
  Te  Te117  1  0.74704407  0.26077899  0.26190575  1
  Te  Te118  1  0.76922032  0.23707028  0.59004058  1
  Te  Te119  1  0.74547544  0.25323430  0.91818995  1
  Te  Te120  1  0.73886904  0.53656444  0.20646984  1
  Te  Te121  1  0.75837691  0.60132740  0.59297575  1
  Te  Te122  1  0.77243365  0.58644739  0.90595227  1
  Te  Te123  1  0.74583326  0.93095744  0.25375003  1
  Te  Te124  1  0.79244721  0.91385732  0.58337376  1
  Te  Te125  1  0.75619283  0.93828800  0.94112897  1
  Te  Te126  1  0.23715505  0.23702428  0.06619451  1
  Te  Te127  1  0.24675740  0.26167974  0.42586943  1
  Te  Te128  1  0.22387477  0.22327822  0.74238632  1
  Te  Te129  1  0.23288776  0.63907042  0.04753055  1
  Te  Te130  1  0.24657218  0.56251864  0.42060410  1
  Te  Te131  1  0.22658706  0.60647702  0.76379137  1
  Te  Te132  1  0.23929518  0.92137567  0.07924179  1
  Te  Te133  1  0.21222549  0.92847847  0.49875372  1
  Te  Te134  1  0.25121661  0.87194136  0.72490056  1
  Te  Te135  1  0.59311370  0.26158384  0.07464956  1
  Te  Te136  1  0.60132780  0.27194307  0.41618458  1
  Te  Te137  1  0.58181477  0.25380765  0.73373696  1
  Te  Te138  1  0.56835891  0.57428909  0.07537248  1
  Te  Te139  1  0.55488701  0.59461366  0.42877046  1
  Te  Te140  1  0.60838877  0.59243958  0.73911601  1
  Te  Te141  1  0.57853534  0.89700723  0.08224037  1
  Te  Te142  1  0.57512856  0.92512751  0.40688874  1
  Te  Te143  1  0.61041879  0.88783399  0.78247887  1
  Te  Te144  1  0.89519991  0.25001106  0.07501272  1
  Te  Te145  1  0.92623661  0.24242577  0.41794947  1
  Te  Te146  1  0.92559012  0.23296143  0.73709009  1
  Te  Te147  1  0.91261983  0.58846434  0.08062925  1
  Te  Te148  1  0.91571084  0.60640833  0.43111728  1
  Te  Te149  1  0.96417905  0.58833536  0.75983518  1
  Te  Te150  1  0.92789924  0.90989581  0.10122459  1
  Te  Te151  1  0.91529707  0.92656416  0.41127650  1
  Te  Te152  1  0.90382713  0.88395538  0.74313367  1
  Te  Te153  1  0.23953963  0.07250320  0.27614584  1
  Te  Te154  1  0.25645243  0.06154249  0.55171333  1
  Te  Te155  1  0.24615575  0.04664844  0.89824851  1
  Te  Te156  1  0.21839004  0.40498446  0.21437679  1
  Te  Te157  1  0.24898972  0.40379498  0.59353809  1
  Te  Te158  1  0.26183110  0.40789999  0.94050403  1
  Te  Te159  1  0.24578007  0.75762716  0.26715053  1
  Te  Te160  1  0.32017364  0.72011680  0.52447433  1
  Te  Te161  1  0.24122146  0.73905654  0.91485282  1
  Te  Te162  1  0.56839874  0.10199156  0.23065333  1
  Te  Te163  1  0.60598908  0.05805448  0.60202153  1
  Te  Te164  1  0.58303187  0.07519498  0.91658467  1
  Te  Te165  1  0.60753357  0.43914784  0.25412480  1
  Te  Te166  1  0.56792304  0.42935499  0.58862555  1
  Te  Te167  1  0.58137693  0.39540549  0.90210335  1
  Te  Te168  1  0.57985752  0.71287822  0.24000965  1
  Te  Te169  1  0.58916446  0.75666843  0.58420662  1
  Te  Te170  1  0.61339929  0.74076085  0.91949834  1
  Te  Te171  1  0.93452026  0.10822243  0.23617362  1
  Te  Te172  1  0.87182181  0.04822981  0.57278837  1
  Te  Te173  1  0.92254943  0.09095231  0.92194166  1
  Te  Te174  1  0.92701902  0.41061376  0.24806753  1
  Te  Te175  1  0.92271379  0.42894765  0.59468170  1
  Te  Te176  1  0.93262094  0.42371351  0.89268678  1
  Te  Te177  1  0.88535402  0.72032642  0.25645451  1
  Te  Te178  1  0.90163202  0.73284696  0.53987479  1
  Te  Te179  1  0.91733847  0.74468841  0.89812366  1
