# generated using pymatgen
data_In2Te3
_symmetry_space_group_name_H-M   'P 1'
_cell_length_a   18.76087051
_cell_length_b   18.75536516
_cell_length_c   18.74802116
_cell_angle_alpha   89.98449201
_cell_angle_beta   90.06913985
_cell_angle_gamma   89.99343271
_symmetry_Int_Tables_number   1
_chemical_formula_structural   In2Te3
_chemical_formula_sum   'In72 Te108'
_cell_volume   6596.80444320
_cell_formula_units_Z   36
loop_
 _symmetry_equiv_pos_site_id
 _symmetry_equiv_pos_as_xyz
  1  'x, y, z'
loop_
 _atom_site_type_symbol
 _atom_site_label
 _atom_site_symmetry_multiplicity
 _atom_site_fract_x
 _atom_site_fract_y
 _atom_site_fract_z
 _atom_site_occupancy
  In  In0  1  0.31369193  0.50640715  0.16402451  1
  In  In1  1  0.82358926  0.67731024  0.18265847  1
  In  In2  1  0.48723140  0.64185277  0.86610722  1
  In  In3  1  0.69166801  0.50009043  0.48781295  1
  In  In4  1  0.66650038  0.03929297  0.61477660  1
  In  In5  1  0.13862838  0.85133638  -0.00186666  1
  In  In6  1  0.33834880  0.02006306  0.00623205  1
  In  In7  1  0.83437420  0.16089469  0.63643981  1
  In  In8  1  0.33316210  0.85909188  0.52791194  1
  In  In9  1  0.46611213  0.86784854  0.65954783  1
  In  In10  1  0.14552164  0.18312035  0.64546025  1
  In  In11  1  0.67959683  0.65660388  0.02374072  1
  In  In12  1  0.82553724  0.47329289  0.01089287  1
  In  In13  1  0.66754970  0.84577694  0.48207004  1
  In  In14  1  0.66817053  0.31696437  0.32056536  1
  In  In15  1  0.00325245  0.68506672  0.66731868  1
  In  In16  1  0.15940964  0.14066908  0.02344397  1
  In  In17  1  0.16035870  0.00052618  0.50036749  1
  In  In18  1  0.65347308  0.14984988  0.18103446  1
  In  In19  1  0.33720974  0.65057769  0.68455331  1
  In  In20  1  0.33944941  -0.00550832  0.64904675  1
  In  In21  1  0.31220522  0.81947641  0.85101265  1
  In  In22  1  0.83965774  0.84037880  0.32859186  1
  In  In23  1  0.00859749  0.52955801  0.83310741  1
  In  In24  1  0.86036210  0.65471311  0.83975372  1
  In  In25  1  0.50276447  0.31520620  0.19410688  1
  In  In26  1  0.15160840  0.83205456  0.31937437  1
  In  In27  1  0.51622697  0.84297526  0.33904212  1
  In  In28  1  0.49023884  0.17229744  0.01467720  1
  In  In29  1  0.33707805  0.31321580  0.32076136  1
  In  In30  1  0.81332426  0.32895851  0.81193360  1
  In  In31  1  0.33082721  0.65299856  0.33308787  1
  In  In32  1  0.48861349  0.00146916  0.82110023  1
  In  In33  1  0.84179978  0.82932957  0.66131933  1
  In  In34  1  0.32954407  0.47744481  0.49767830  1
  In  In35  1  0.85347864  0.83274186  0.02443667  1
  In  In36  1  0.67369772  0.19498033  0.83664564  1
  In  In37  1  0.15456008  0.32150582  0.16546210  1
  In  In38  1  0.32229829  0.50909325  0.84535368  1
  In  In39  1  0.32733796  0.83038743  0.17061962  1
  In  In40  1  0.00327282  0.35605203  0.60172429  1
  In  In41  1  0.51254597  0.32045955  0.84834772  1
  In  In42  1  0.32937382  0.31776512  0.00142707  1
  In  In43  1  0.33006846  0.33634057  0.65852448  1
  In  In44  1  0.01098142  0.68115351  0.00478077  1
  In  In45  1  0.68157374  0.30458747  0.65902394  1
  In  In46  1  0.83915917  -0.00023025  0.17857995  1
  In  In47  1  -0.01143293  0.50430180  0.18270901  1
  In  In48  1  0.50335402  0.31664435  0.46523610  1
  In  In49  1  0.17001116  0.33348449  0.82667816  1
  In  In50  1  -0.00653293  0.15651948  0.83619140  1
  In  In51  1  0.50210089  0.51424184  0.00522635  1
  In  In52  1  0.18733869  0.49862700  0.65616481  1
  In  In53  1  0.86234875  0.16236571  -0.01916732  1
  In  In54  1  0.16155947  0.66924486  0.48310536  1
  In  In55  1  0.65377470  -0.01322686  0.01269715  1
  In  In56  1  0.50413995  0.49379806  0.65241838  1
  In  In57  1  0.67335685  0.66129553  0.32081620  1
  In  In58  1  0.17659220  0.17589291  0.32672639  1
  In  In59  1  0.86508060  0.02084728  0.83314387  1
  In  In60  1  0.67669285  0.64839778  0.64195686  1
  In  In61  1  0.67007640  0.46638712  0.81552972  1
  In  In62  1  0.83661013  0.32797335  0.18776990  1
  In  In63  1  -0.01197823  0.33733706  0.02080776  1
  In  In64  1  -0.01270980  0.64716565  0.33730296  1
  In  In65  1  0.33949324  0.04354389  0.33689250  1
  In  In66  1  -0.00145332  -0.01680093  0.33097676  1
  In  In67  1  0.15335281  0.84000291  0.68327025  1
  In  In68  1  0.50527253  0.83981202  0.04189708  1
  In  In69  1  -0.01217331  0.01685622  0.64862132  1
  In  In70  1  0.66831618  0.84063900  0.83795598  1
  In  In71  1  0.52885163  0.68541113  0.48155839  1
  Te  Te72  1  0.04953630  0.06757602  0.08895988  1
  Te  Te73  1  0.07837032  0.09097595  0.41177422  1
  Te  Te74  1  0.09013641  0.07929682  0.74418241  1
  Te  Te75  1  0.08613182  0.43334165  0.08504708  1
  Te  Te76  1  0.03535540  0.43278236  0.46945393  1
  Te  Te77  1  0.07688476  0.41530445  0.73715855  1
  Te  Te78  1  0.07846954  0.76473309  0.10517401  1
  Te  Te79  1  0.06020094  0.76159578  0.41893637  1
  Te  Te80  1  0.09077438  0.74052408  0.77292170  1
  Te  Te81  1  0.42976165  0.07613045  0.10828034  1
  Te  Te82  1  0.42475350  0.08225795  0.45153506  1
  Te  Te83  1  0.42076148  0.09144324  0.72676714  1
  Te  Te84  1  0.42032791  0.40486008  0.08634838  1
  Te  Te85  1  0.42247984  0.42249766  0.39077072  1
  Te  Te86  1  0.41984674  0.42044807  0.76558945  1
  Te  Te87  1  0.42259284  0.73622148  0.10500988  1
  Te  Te88  1  0.40528543  0.75683956  0.42614995  1
  Te  Te89  1  0.42668885  0.74975704  0.75988115  1
  Te  Te90  1  0.75533362  0.08728603  0.07159697  1
  Te  Te91  1  0.71542117  0.11535691  0.48764414  1
  Te  Te92  1  0.75110552  0.08808526  0.75203501  1
  Te  Te93  1  0.74082435  0.41961392  0.11850932  1
  Te  Te94  1  0.76720511  0.40211401  0.39971210  1
  Te  Te95  1  0.76540836  0.42893664  0.70485774  1
  Te  Te96  1  0.73561328  0.77553156  0.10298790  1
  Te  Te97  1  0.75986486  0.74220614  0.41737858  1
  Te  Te98  1  0.75170855  0.74163180  0.75414530  1
  Te  Te99  1  0.06588543  0.25866558  0.26648206  1
  Te  Te100  1  0.04827336  0.22812375  0.54067387  1
  Te  Te101  1  0.08004072  0.25347522  0.92506326  1
  Te  Te102  1  0.09200988  0.57985157  0.25668311  1
  Te  Te103  1  0.08298889  0.58281201  0.58209093  1
  Te  Te104  1  0.09578340  0.57485032  0.94269042  1
  Te  Te105  1  0.10328446  0.94245741  0.23168099  1
  Te  Te106  1  0.06816485  0.90567057  0.57573521  1
  Te  Te107  1  0.06861217  0.93344656  0.89746362  1
  Te  Te108  1  0.42159844  0.20806451  0.25634251  1
  Te  Te109  1  0.41255797  0.25598028  0.56658959  1
  Te  Te110  1  0.40272464  0.22843935  0.90157723  1
  Te  Te111  1  0.41861879  0.57537042  0.24397502  1
  Te  Te112  1  0.41582664  0.59120138  0.56633333  1
  Te  Te113  1  0.37175528  0.59965461  0.96280521  1
  Te  Te114  1  0.40495690  0.92044357  0.26759840  1
  Te  Te115  1  0.45838642  0.95225794  0.52763015  1
  Te  Te116  1  0.42538197  0.90540117  0.92170308  1
  Te  Te117  1  0.77483253  0.20360302  0.27350825  1
  Te  Te118  1  0.76633408  0.25930758  0.54312967  1
  Te  Te119  1  0.75719200  0.26856257  0.94109935  1
  Te  Te120  1  0.77094994  0.56526004  0.26199851  1
  Te  Te121  1  0.78182173  0.60395639  0.54895681  1
  Te  Te122  1  0.74669492  0.57555966  0.90885011  1
  Te  Te123  1  0.73740788  0.92692068  0.26143616  1
  Te  Te124  1  0.76551730  0.92544684  0.57015212  1
  Te  Te125  1  0.76846665  0.92415873  0.91890624  1
  Te  Te126  1  0.25854396  0.22867451  0.10242604  1
  Te  Te127  1  0.25421678  0.25291045  0.42832862  1
  Te  Te128  1  0.25336385  0.23683840  0.74650530  1
  Te  Te129  1  0.25319448  0.60004483  0.06587939  1
  Te  Te130  1  0.23361332  0.55820689  0.40801008  1
  Te  Te131  1  0.22267658  0.59846515  0.77036719  1
  Te  Te132  1  0.24672201  0.92684637  0.08359887  1
  Te  Te133  1  0.24899234  0.91397394  0.40930862  1
  Te  Te134  1  0.25334270  0.92686690  0.75918223  1
  Te  Te135  1  0.59677925  0.25428226  0.08587940  1
  Te  Te136  1  0.58767210  0.21166355  0.39527538  1
  Te  Te137  1  0.56660934  0.23561018  0.73355979  1
  Te  Te138  1  0.58160357  0.58573863  0.10780117  1
  Te  Te139  1  0.57906195  0.56597036  0.40650991  1
  Te  Te140  1  0.58384837  0.58771608  0.75297546  1
  Te  Te141  1  0.57485269  0.93891620  0.12914915  1
  Te  Te142  1  0.61492212  0.95293026  0.38488282  1
  Te  Te143  1  0.59557357  0.92953002  0.73642630  1
  Te  Te144  1  0.92545657  0.22948555  0.10540935  1
  Te  Te145  1  0.87397828  0.27858912  0.36537911  1
  Te  Te146  1  0.91866391  0.24654390  0.73601078  1
  Te  Te147  1  0.90237097  0.58874343  0.07460599  1
  Te  Te148  1  0.92913089  0.54366507  0.42809878  1
  Te  Te149  1  0.90980517  0.56912946  0.72464202  1
  Te  Te150  1  0.94342333  0.91933330  0.10607358  1
  Te  Te151  1  0.90395187  0.92623531  0.43172833  1
  Te  Te152  1  0.93571079  0.91192610  0.75018114  1
  Te  Te153  1  0.23385281  0.07176476  0.23645211  1
  Te  Te154  1  0.25185109  0.09642758  0.57334464  1
  Te  Te155  1  0.24424426  0.08726944  0.91491250  1
  Te  Te156  1  0.23695247  0.41212732  0.25748690  1
  Te  Te157  1  0.22310503  0.38463580  0.55836872  1
  Te  Te158  1  0.23616788  0.41857115  0.93472860  1
  Te  Te159  1  0.23366088  0.72988753  0.24169472  1
  Te  Te160  1  0.24661029  0.74286243  0.59272011  1
  Te  Te161  1  0.23838927  0.74399051  0.95379202  1
  Te  Te162  1  0.58197444  0.05986427  0.27278913  1
  Te  Te163  1  0.57098167  0.13103360  0.54257574  1
  Te  Te164  1  0.58651277  0.08702189  0.91475785  1
  Te  Te165  1  0.59147644  0.42078582  0.24714932  1
  Te  Te166  1  0.59142092  0.40383897  0.56804987  1
  Te  Te167  1  0.59594081  0.41151728  0.93705189  1
  Te  Te168  1  0.57623431  0.74499526  0.24625070  1
  Te  Te169  1  0.58578566  0.76783323  0.59667826  1
  Te  Te170  1  0.58645735  0.74877034  0.92875810  1
  Te  Te171  1  0.90713001  0.09041677  0.27653449  1
  Te  Te172  1  0.92125043  0.09107796  0.53722313  1
  Te  Te173  1  0.97170342  0.04125362  0.95462108  1
  Te  Te174  1  0.94743568  0.38941362  0.27537189  1
  Te  Te175  1  0.89269685  0.43004185  0.53397457  1
  Te  Te176  1  0.91773318  0.41433932  0.90054697  1
  Te  Te177  1  0.93654003  0.75904588  0.24182292  1
  Te  Te178  1  0.91821730  0.74827851  0.56397997  1
  Te  Te179  1  0.93127626  0.77100697  0.90710962  1
