# generated using pymatgen
data_In2Te3
_symmetry_space_group_name_H-M   'P 1'
_cell_length_a   18.90044001
_cell_length_b   18.88537015
_cell_length_c   18.89080730
_cell_angle_alpha   90.09917949
_cell_angle_beta   89.86517274
_cell_angle_gamma   89.77611252
_symmetry_Int_Tables_number   1
_chemical_formula_structural   In2Te3
_chemical_formula_sum   'In72 Te108'
_cell_volume   6742.83850694
_cell_formula_units_Z   36
loop_
 _symmetry_equiv_pos_site_id
 _symmetry_equiv_pos_as_xyz
  1  'x, y, z'
loop_
 _atom_site_type_symbol
 _atom_site_label
 _atom_site_symmetry_multiplicity
 _atom_site_fract_x
 _atom_site_fract_y
 _atom_site_fract_z
 _atom_site_occupancy
  In  In0  1  0.50395153  0.51861632  0.66145721  1
  In  In1  1  0.33308686  0.46439597  0.15519058  1
  In  In2  1  0.16878138  0.83542461  0.67384040  1
  In  In3  1  0.31227365  0.65561162  -0.01048523  1
  In  In4  1  0.34321740  0.01729546  0.65506759  1
  In  In5  1  0.00850035  0.51025104  0.15655360  1
  In  In6  1  0.52261256  0.87395251  0.68257643  1
  In  In7  1  0.64603834  0.17633882  0.49099827  1
  In  In8  1  0.35520934  0.82251096  0.85143197  1
  In  In9  1  0.33482961  0.00278661  0.35600705  1
  In  In10  1  0.19517124  0.32813244  0.48573598  1
  In  In11  1  0.79698669  0.84798713  0.64034443  1
  In  In12  1  0.63256977  0.48625137  0.17956219  1
  In  In13  1  0.53453395  0.85955813  0.36810536  1
  In  In14  1  0.16979816  0.34030852  0.84102140  1
  In  In15  1  0.33040964  0.15500371  0.83226862  1
  In  In16  1  -0.02962291  0.52941068  0.49035958  1
  In  In17  1  0.32812794  0.49297843  0.80683914  1
  In  In18  1  0.68689245  0.34563399  0.66458036  1
  In  In19  1  0.50075669  0.67333380  0.50077303  1
  In  In20  1  0.34838060  0.33672876  0.32552265  1
  In  In21  1  0.48344306  0.15555236  0.33638210  1
  In  In22  1  0.16149585  -0.00941135  0.85281391  1
  In  In23  1  0.66614648  0.68790277  0.67010473  1
  In  In24  1  0.15957341  0.48971150  -0.00456391  1
  In  In25  1  0.68539048  0.67424544  0.32995206  1
  In  In26  1  0.81942198  0.30500819  0.43349205  1
  In  In27  1  0.81780214  0.49999726  0.34205858  1
  In  In28  1  0.65680237  0.31301776  0.00588265  1
  In  In29  1  0.33326354  0.65807864  0.33618774  1
  In  In30  1  0.51229647  0.31149557  0.84358964  1
  In  In31  1  0.01656462  0.19440084  0.84439714  1
  In  In32  1  0.03685689  0.17259394  0.49652329  1
  In  In33  1  0.51481193  0.15937692  0.02415466  1
  In  In34  1  0.81749040  0.03134838  0.49797338  1
  In  In35  1  0.49626645  0.67703256  0.19300704  1
  In  In36  1  0.17960764  0.66937773  0.48126050  1
  In  In37  1  0.00351383  -0.00103380  0.30687220  1
  In  In38  1  0.48970287  0.17913468  0.64761259  1
  In  In39  1  0.49519862  0.48089560  0.01212010  1
  In  In40  1  0.16519197  -0.01668814  0.15238712  1
  In  In41  1  0.01969153  0.02644200  0.68080529  1
  In  In42  1  -0.02408618  0.50092301  0.86410422  1
  In  In43  1  0.52859726  0.65728256  0.83355551  1
  In  In44  1  -0.01703257  0.00062534  0.01164086  1
  In  In45  1  0.81639921  0.48558049  0.00605554  1
  In  In46  1  0.83898295  0.66742429  0.48081129  1
  In  In47  1  0.01172188  0.32919819  0.64213709  1
  In  In48  1  0.66452687  0.48651105  0.49705141  1
  In  In49  1  0.00649086  0.65204646  0.67926925  1
  In  In50  1  0.29686095  0.18190257  0.13154508  1
  In  In51  1  0.14369763  0.50547186  0.31879776  1
  In  In52  1  0.18635222  0.47088088  0.65774525  1
  In  In53  1  0.81531083  0.00399642  0.82824070  1
  In  In54  1  0.16784352  0.17271859  0.33466605  1
  In  In55  1  0.79957359  0.13844304  0.02893496  1
  In  In56  1  -0.03035318  0.85352503  0.84284716  1
  In  In57  1  0.82525679  0.84418238  0.30578405  1
  In  In58  1  0.51553600  0.01196049  0.17440840  1
  In  In59  1  0.32859476  0.65554013  0.67646113  1
  In  In60  1  0.65982691  0.13778033  0.85105372  1
  In  In61  1  0.81995880  0.16448541  0.69418701  1
  In  In62  1  0.00612677  0.68701386  0.02594427  1
  In  In63  1  0.49345665  0.85317818  0.01852052  1
  In  In64  1  0.00512392  0.84897510  0.50551992  1
  In  In65  1  -0.00238338  0.34189165  0.32600325  1
  In  In66  1  0.84500862  0.48588120  0.66731506  1
  In  In67  1  0.17940879  0.85100214  0.32834282  1
  In  In68  1  0.68407046  0.67822620  -0.00066969  1
  In  In69  1  0.81407115  0.84459728  0.00897232  1
  In  In70  1  0.32678107  0.85073408  0.16583008  1
  In  In71  1  -0.02196607  0.15920721  0.16777816  1
  Te  Te72  1  0.08386321  0.09015047  0.08071769  1
  Te  Te73  1  0.09808007  0.06113868  0.41049175  1
  Te  Te74  1  0.11428054  0.10897793  0.76342254  1
  Te  Te75  1  0.09128362  0.40141497  0.09429960  1
  Te  Te76  1  0.07805724  0.41407012  0.43380643  1
  Te  Te77  1  0.06982104  0.42375195  0.74865301  1
  Te  Te78  1  0.08401224  0.75891455  0.12625664  1
  Te  Te79  1  0.08185298  0.75922480  0.40898066  1
  Te  Te80  1  0.06852174  0.76343380  0.76139748  1
  Te  Te81  1  0.40517173  0.07661508  0.09228536  1
  Te  Te82  1  0.44191612  0.05869738  0.44317200  1
  Te  Te83  1  0.43971373  0.08161490  0.75377249  1
  Te  Te84  1  0.43780724  0.37576142  0.09683218  1
  Te  Te85  1  0.46215466  0.40210486  0.39284031  1
  Te  Te86  1  0.44022923  0.41001222  0.74774097  1
  Te  Te87  1  0.40711783  0.73782255  0.08058335  1
  Te  Te88  1  0.41955327  0.76012197  0.40684454  1
  Te  Te89  1  0.43706859  0.74060147  0.74110011  1
  Te  Te90  1  0.72615418  0.02667271  0.08930409  1
  Te  Te91  1  0.73229682  0.09829966  0.39466554  1
  Te  Te92  1  0.71423313  0.05991706  0.72101289  1
  Te  Te93  1  0.73290343  0.40133818  0.10400265  1
  Te  Te94  1  0.70215408  0.39424689  0.37478747  1
  Te  Te95  1  0.77181577  0.40683427  0.76666617  1
  Te  Te96  1  0.75183916  0.75145750  0.10553134  1
  Te  Te97  1  0.74860702  0.77368986  0.42395989  1
  Te  Te98  1  0.75930785  0.76316813  0.75414155  1
  Te  Te99  1  0.08101758  0.24979004  0.23815887  1
  Te  Te100  1  0.12551844  0.24191784  0.59935465  1
  Te  Te101  1  0.10624698  0.25580695  0.94719534  1
  Te  Te102  1  0.09067406  0.61158841  0.22954434  1
  Te  Te103  1  0.09394741  0.57859847  0.57692441  1
  Te  Te104  1  0.07754799  0.59585991  0.92413427  1
  Te  Te105  1  0.06495182  0.88512498  0.21993312  1
  Te  Te106  1  0.10060819  0.93920419  0.58528362  1
  Te  Te107  1  0.07553514  0.90077212  0.94073855  1
  Te  Te108  1  0.40217230  0.23214288  0.22777416  1
  Te  Te109  1  0.35406382  0.23379862  0.61471181  1
  Te  Te110  1  0.41885435  0.23770462  0.93254290  1
  Te  Te111  1  0.41239202  0.56353682  0.24725637  1
  Te  Te112  1  0.40232227  0.57798416  0.56587496  1
  Te  Te113  1  0.41895226  0.57865461  0.90581510  1
  Te  Te114  1  0.42860585  0.91291652  0.25957184  1
  Te  Te115  1  0.42073836  0.91243646  0.58530181  1
  Te  Te116  1  0.43862369  0.93158462  0.90513039  1
  Te  Te117  1  0.76092814  0.26963926  0.30500817  1
  Te  Te118  1  0.76360501  0.24827238  0.57215949  1
  Te  Te119  1  0.75374061  0.23502604  0.91649124  1
  Te  Te120  1  0.74484924  0.57598782  0.23159935  1
  Te  Te121  1  0.75430335  0.58385469  0.57750924  1
  Te  Te122  1  0.74196554  0.57400700  0.91426247  1
  Te  Te123  1  0.76070201  0.94971684  0.22288552  1
  Te  Te124  1  0.71468290  0.93217410  0.54704519  1
  Te  Te125  1  0.72966072  0.90921009  0.90128118  1
  Te  Te126  1  0.21314975  0.28305343  0.06647428  1
  Te  Te127  1  0.28453519  0.22710530  0.41313341  1
  Te  Te128  1  0.27440833  0.27351709  0.75775753  1
  Te  Te129  1  0.24248855  0.57293054  0.09450713  1
  Te  Te130  1  0.25372521  0.55431762  0.41326744  1
  Te  Te131  1  0.22085209  0.58748627  0.75728429  1
  Te  Te132  1  0.25641640  0.91710362  0.05644298  1
  Te  Te133  1  0.25381752  0.91207918  0.43805401  1
  Te  Te134  1  0.26474970  0.92113086  0.75617020  1
  Te  Te135  1  0.61198517  0.22437364  0.11689345  1
  Te  Te136  1  0.53577697  0.26056712  0.43251991  1
  Te  Te137  1  0.60208752  0.23991855  0.74034597  1
  Te  Te138  1  0.56770369  0.59575935  0.08141635  1
  Te  Te139  1  0.58790357  0.58687540  0.41021339  1
  Te  Te140  1  0.61746946  0.56670943  0.74931689  1
  Te  Te141  1  0.60397924  0.92005325  0.09295317  1
  Te  Te142  1  0.62836305  0.96201780  0.41622412  1
  Te  Te143  1  0.63488772  0.91981921  0.76334159  1
  Te  Te144  1  0.88778191  0.24078231  0.08418783  1
  Te  Te145  1  0.93858471  0.21645801  0.39171230  1
  Te  Te146  1  0.92285789  0.26525520  0.74788262  1
  Te  Te147  1  0.90427475  0.58901534  0.08059898  1
  Te  Te148  1  0.92901641  0.61345999  0.36416379  1
  Te  Te149  1  0.89899949  0.58983969  0.76475692  1
  Te  Te150  1  0.90041127  0.92088766  0.10417336  1
  Te  Te151  1  0.91129675  0.93209522  0.41811145  1
  Te  Te152  1  0.90809447  0.92819487  0.71686882  1
  Te  Te153  1  0.25034126  0.07164144  0.24569653  1
  Te  Te154  1  0.26720193  0.11665306  0.57684369  1
  Te  Te155  1  0.24657010  0.08231030  0.92966754  1
  Te  Te156  1  0.23249187  0.40035029  0.25080389  1
  Te  Te157  1  0.28698523  0.40948881  0.57020093  1
  Te  Te158  1  0.27474484  0.41584403  0.92470802  1
  Te  Te159  1  0.25016253  0.74499424  0.24386998  1
  Te  Te160  1  0.25856621  0.75252278  0.58175182  1
  Te  Te161  1  0.23981102  0.75646886  0.91215579  1
  Te  Te162  1  0.59521035  0.11681863  0.24391728  1
  Te  Te163  1  0.56041901  0.07697480  0.56391504  1
  Te  Te164  1  0.56469876  0.05742213  0.92727585  1
  Te  Te165  1  0.53583141  0.40507636  0.25469666  1
  Te  Te166  1  0.57172506  0.40414970  0.58282426  1
  Te  Te167  1  0.59437664  0.41817577  0.91470832  1
  Te  Te168  1  0.59526205  0.77313487  0.25557256  1
  Te  Te169  1  0.58408060  0.77305299  0.57644629  1
  Te  Te170  1  0.58103568  0.76397720  0.92363863  1
  Te  Te171  1  0.88774272  0.05993859  0.23411037  1
  Te  Te172  1  0.92550497  0.10416240  0.58731292  1
  Te  Te173  1  0.92171486  0.08489516  0.89893174  1
  Te  Te174  1  0.90721820  0.42652875  0.24138868  1
  Te  Te175  1  0.91051134  0.40365572  0.55611246  1
  Te  Te176  1  0.92333460  0.39764576  0.95167073  1
  Te  Te177  1  0.90919547  0.73274189  0.26718053  1
  Te  Te178  1  0.92435338  0.74583865  0.58715876  1
  Te  Te179  1  0.90480504  0.74852518  0.92762815  1
