# generated using pymatgen
data_In2Te3
_symmetry_space_group_name_H-M   'P 1'
_cell_length_a   18.82017414
_cell_length_b   18.83845656
_cell_length_c   18.82664573
_cell_angle_alpha   89.90841726
_cell_angle_beta   90.07138792
_cell_angle_gamma   90.06368728
_symmetry_Int_Tables_number   1
_chemical_formula_structural   In2Te3
_chemical_formula_sum   'In72 Te108'
_cell_volume   6674.83826146
_cell_formula_units_Z   36
loop_
 _symmetry_equiv_pos_site_id
 _symmetry_equiv_pos_as_xyz
  1  'x, y, z'
loop_
 _atom_site_type_symbol
 _atom_site_label
 _atom_site_symmetry_multiplicity
 _atom_site_fract_x
 _atom_site_fract_y
 _atom_site_fract_z
 _atom_site_occupancy
  In  In0  1  0.00784500  0.04262958  0.02000988  1
  In  In1  1  0.15603930  0.82156643  0.00823410  1
  In  In2  1  0.82617548  -0.02224891  0.17102779  1
  In  In3  1  0.33545043  0.17117629  0.52488255  1
  In  In4  1  0.67049659  0.65165929  0.67936215  1
  In  In5  1  0.30997583  0.19762454  0.16900886  1
  In  In6  1  0.32682727  -0.01031700  -0.01882399  1
  In  In7  1  0.51875484  0.65636493  0.49896408  1
  In  In8  1  0.50777233  0.69553495  0.18453135  1
  In  In9  1  0.67625694  0.83869606  0.48340306  1
  In  In10  1  0.31420888  0.16419722  0.80816150  1
  In  In11  1  0.01351792  0.00705378  0.66083124  1
  In  In12  1  -0.03395236  0.66993379  0.34055706  1
  In  In13  1  0.69624112  0.33071410  -0.02868557  1
  In  In14  1  0.48976984  0.85205433  0.66868322  1
  In  In15  1  0.34370167  0.66811125  0.33170369  1
  In  In16  1  0.85862227  0.29637133  0.81672096  1
  In  In17  1  0.17555261  0.52435611  0.34013709  1
  In  In18  1  0.51186486  0.52764351  0.02009608  1
  In  In19  1  -0.00139019  0.18427984  0.49770855  1
  In  In20  1  0.17309950  0.48185180  0.66761566  1
  In  In21  1  0.82766318  0.03373102  0.81903134  1
  In  In22  1  0.33268637  0.49248792  0.82921137  1
  In  In23  1  0.14847676  0.32426247  0.81359235  1
  In  In24  1  0.16143064  0.34029059  0.17977001  1
  In  In25  1  0.49442978  0.15189884  -0.00767932  1
  In  In26  1  0.00355203  0.32469129  -0.00910660  1
  In  In27  1  0.33344013  0.83188384  0.87291237  1
  In  In28  1  0.82703603  0.47835069  -0.01220350  1
  In  In29  1  -0.00411660  0.66643533  0.67167897  1
  In  In30  1  -0.00036663  0.00283465  0.32478857  1
  In  In31  1  0.83530558  0.33705469  0.15046575  1
  In  In32  1  -0.00942884  0.85180812  0.18186683  1
  In  In33  1  -0.00517360  0.64574824  -0.02066852  1
  In  In34  1  0.50000519  -0.01851216  0.15302507  1
  In  In35  1  -0.01045345  0.29791730  0.33588042  1
  In  In36  1  0.53722505  0.02845358  0.52043070  1
  In  In37  1  0.16536144  0.67719219  0.48871568  1
  In  In38  1  0.18518751  0.66026310  0.15040041  1
  In  In39  1  0.81263534  0.00524414  0.50669729  1
  In  In40  1  0.50395695  0.34322444  0.79875665  1
  In  In41  1  0.33375539  0.82168218  0.15991011  1
  In  In42  1  0.85025280  0.50691503  0.66982755  1
  In  In43  1  0.49893127  0.51912379  0.33469007  1
  In  In44  1  0.34025686  0.65488231  0.65025529  1
  In  In45  1  0.51914435  0.17509178  0.33913296  1
  In  In46  1  0.69506317  0.68785551  0.03273488  1
  In  In47  1  0.66406721  0.49660373  0.83301746  1
  In  In48  1  0.66631981  0.32016925  0.65674894  1
  In  In49  1  0.00727577  0.82317392  0.52764698  1
  In  In50  1  0.48395449  -0.00129473  0.83793717  1
  In  In51  1  0.15706730  0.00433215  0.81808914  1
  In  In52  1  0.66644985  -0.02219676  0.01063561  1
  In  In53  1  0.81290483  0.83522696  0.35002385  1
  In  In54  1  0.32189109  0.34238971  -0.01615570  1
  In  In55  1  0.32061770  0.00379437  0.32945686  1
  In  In56  1  0.52019908  0.36093651  0.15995472  1
  In  In57  1  0.32180228  0.01125862  0.66591104  1
  In  In58  1  0.15638625  0.32615646  0.51045481  1
  In  In59  1  0.12856309  0.17112226  0.32725625  1
  In  In60  1  -0.01748806  0.48077149  0.49486032  1
  In  In61  1  0.67162757  0.83213666  0.82559733  1
  In  In62  1  0.68940388  0.35789850  0.37182003  1
  In  In63  1  0.00211669  0.80889008  0.84332744  1
  In  In64  1  0.84632008  0.82351323  0.66128901  1
  In  In65  1  0.83373694  0.15872430  0.35391352  1
  In  In66  1  0.67282300  0.15997926  0.16453306  1
  In  In67  1  0.33063765  0.82249447  0.47908939  1
  In  In68  1  0.51756298  0.65671117  0.83385759  1
  In  In69  1  0.32022719  0.34871044  0.32957169  1
  In  In70  1  -0.03654544  0.50030068  0.18393330  1
  In  In71  1  0.51681895  0.31806154  0.50069851  1
  Te  Te72  1  0.09826560  0.09657876  0.12046949  1
  Te  Te73  1  0.08166359  0.07350222  0.43426080  1
  Te  Te74  1  0.06695202  0.11055986  0.75878038  1
  Te  Te75  1  0.06213545  0.42310002  0.09629551  1
  Te  Te76  1  0.08830564  0.40850191  0.39092377  1
  Te  Te77  1  0.06450555  0.43134018  0.75203595  1
  Te  Te78  1  0.06102554  0.73920692  0.09758309  1
  Te  Te79  1  0.07233119  0.76157274  0.40259310  1
  Te  Te80  1  0.09282663  0.74881913  0.74611319  1
  Te  Te81  1  0.39879997  0.08913022  0.09394308  1
  Te  Te82  1  0.41681376  0.09188737  0.41571439  1
  Te  Te83  1  0.43004496  0.09536183  0.73458447  1
  Te  Te84  1  0.40762433  0.42466310  0.07935809  1
  Te  Te85  1  0.42504949  0.41284560  0.41620004  1
  Te  Te86  1  0.39938902  0.41255012  0.72413692  1
  Te  Te87  1  0.41142928  0.72932506  0.07627186  1
  Te  Te88  1  0.44488195  0.75459304  0.40503041  1
  Te  Te89  1  0.41896150  0.75040100  0.75818139  1
  Te  Te90  1  0.76179193  0.07956721  0.07329548  1
  Te  Te91  1  0.73279553  0.05925227  0.39478418  1
  Te  Te92  1  0.74518736  0.11353520  0.72129384  1
  Te  Te93  1  0.72438561  0.42227968  0.08771071  1
  Te  Te94  1  0.75504746  0.45213102  0.46560771  1
  Te  Te95  1  0.75860771  0.40522020  0.75875615  1
  Te  Te96  1  0.78066818  0.77632288  0.11398225  1
  Te  Te97  1  0.73501457  0.72231961  0.41053432  1
  Te  Te98  1  0.76934460  0.73477323  0.75981216  1
  Te  Te99  1  0.05124988  0.23296996  0.20754991  1
  Te  Te100  1  0.06232797  0.26359386  0.60999246  1
  Te  Te101  1  0.08014625  0.22962757  0.90745883  1
  Te  Te102  1  0.07174256  0.59568587  0.25350056  1
  Te  Te103  1  0.07990108  0.57723195  0.56622228  1
  Te  Te104  1  0.12265585  0.59322003  0.93014823  1
  Te  Te105  1  0.09873178  0.92141672  0.25251812  1
  Te  Te106  1  0.10384535  0.91025926  0.59595906  1
  Te  Te107  1  0.07983892  0.92542811  0.92376421  1
  Te  Te108  1  0.43148817  0.26193005  0.24753536  1
  Te  Te109  1  0.43597171  0.24593133  0.60137110  1
  Te  Te110  1  0.41265664  0.24843069  0.90462731  1
  Te  Te111  1  0.41088177  0.58209535  0.22708664  1
  Te  Te112  1  0.43102317  0.56744744  0.57629305  1
  Te  Te113  1  0.41260670  0.58838893  0.92033756  1
  Te  Te114  1  0.41550501  0.90786097  0.25688529  1
  Te  Te115  1  0.41123595  0.93336200  0.56654183  1
  Te  Te116  1  0.44633775  0.90119934  0.94889641  1
  Te  Te117  1  0.74583013  0.25519040  0.25685202  1
  Te  Te118  1  0.75118324  0.21125155  0.59835087  1
  Te  Te119  1  0.76762635  0.22012965  0.90829230  1
  Te  Te120  1  0.82351356  0.54169791  0.22267599  1
  Te  Te121  1  0.73719605  0.55827162  0.58060604  1
  Te  Te122  1  0.74350210  0.58849452  0.92026903  1
  Te  Te123  1  0.72032147  0.90737145  0.25248567  1
  Te  Te124  1  0.73869999  0.91339210  0.60313875  1
  Te  Te125  1  0.76382777  0.92020266  0.90865459  1
  Te  Te126  1  0.22188837  0.25849311  0.06251771  1
  Te  Te127  1  0.24512032  0.24055949  0.40480451  1
  Te  Te128  1  0.24932210  0.26331592  0.72203501  1
  Te  Te129  1  0.22037238  0.56772134  0.04294186  1
  Te  Te130  1  0.27548438  0.58264610  0.43801701  1
  Te  Te131  1  0.24465227  0.59062939  0.74894268  1
  Te  Te132  1  0.24233185  0.92056319  0.08686714  1
  Te  Te133  1  0.23851133  0.92021800  0.41898247  1
  Te  Te134  1  0.26063760  0.90811092  0.76093656  1
  Te  Te135  1  0.58293812  0.24801578  0.07391520  1
  Te  Te136  1  0.62366908  0.23338047  0.43224951  1
  Te  Te137  1  0.60302281  0.24116342  0.76760860  1
  Te  Te138  1  0.60726573  0.59535866  0.11696121  1
  Te  Te139  1  0.60789605  0.60408333  0.39081902  1
  Te  Te140  1  0.56458529  0.55389014  0.73312946  1
  Te  Te141  1  0.59531558  0.87753837  0.09863794  1
  Te  Te142  1  0.57315508  0.92550316  0.42258504  1
  Te  Te143  1  0.59033975  0.93521824  0.74700236  1
  Te  Te144  1  0.90402866  0.24135302  0.06418757  1
  Te  Te145  1  0.88437325  0.27037829  0.44433595  1
  Te  Te146  1  0.96174148  0.23278218  0.72966070  1
  Te  Te147  1  0.88732443  0.58933131  0.07905695  1
  Te  Te148  1  0.88875449  0.56982113  0.41949796  1
  Te  Te149  1  0.92163146  0.58673353  0.77125181  1
  Te  Te150  1  0.92250008  0.92320487  0.06536882  1
  Te  Te151  1  0.91914554  0.91338062  0.42866721  1
  Te  Te152  1  0.92156603  0.91991350  0.75287372  1
  Te  Te153  1  0.22771323  0.08904303  0.23739217  1
  Te  Te154  1  0.22774860  0.09905675  0.59444441  1
  Te  Te155  1  0.23621670  0.09237426  0.91798473  1
  Te  Te156  1  0.25676481  0.44815094  0.23419969  1
  Te  Te157  1  0.25788036  0.41545227  0.56694779  1
  Te  Te158  1  0.21985436  0.42473259  0.90840362  1
  Te  Te159  1  0.24003150  0.75228903  0.26050241  1
  Te  Te160  1  0.24620543  0.75875115  0.58966448  1
  Te  Te161  1  0.23557603  0.73066098  0.92148518  1
  Te  Te162  1  0.58232078  0.07035591  0.24770189  1
  Te  Te163  1  0.63284545  0.10398364  0.60435667  1
  Te  Te164  1  0.59578257  0.07457444  0.91272103  1
  Te  Te165  1  0.60434547  0.42938277  0.26546220  1
  Te  Te166  1  0.60015600  0.42185675  0.56940141  1
  Te  Te167  1  0.56757765  0.41655656  0.92792140  1
  Te  Te168  1  0.61457136  0.79028825  0.22820114  1
  Te  Te169  1  0.58933971  0.75745197  0.60093663  1
  Te  Te170  1  0.59559573  0.74714559  0.92664458  1
  Te  Te171  1  0.90737531  0.08841615  0.24054188  1
  Te  Te172  1  0.90955098  0.09072445  0.58492994  1
  Te  Te173  1  0.93389295  0.09736663  0.90244393  1
  Te  Te174  1  0.88704383  0.40537901  0.28302405  1
  Te  Te175  1  0.91765043  0.39663750  0.59722247  1
  Te  Te176  1  0.92763858  0.41577412  0.89444589  1
  Te  Te177  1  0.88072370  0.75145068  0.23320089  1
  Te  Te178  1  0.89957693  0.72105006  0.56379028  1
  Te  Te179  1  0.90025879  0.74643697  0.92752809  1
