# generated using pymatgen
data_In2Te3
_symmetry_space_group_name_H-M   'P 1'
_cell_length_a   18.80793142
_cell_length_b   18.81749112
_cell_length_c   18.81422468
_cell_angle_alpha   90.04720208
_cell_angle_beta   90.07158830
_cell_angle_gamma   90.08620889
_symmetry_Int_Tables_number   1
_chemical_formula_structural   In2Te3
_chemical_formula_sum   'In72 Te108'
_cell_volume   6658.67931797
_cell_formula_units_Z   36
loop_
 _symmetry_equiv_pos_site_id
 _symmetry_equiv_pos_as_xyz
  1  'x, y, z'
loop_
 _atom_site_type_symbol
 _atom_site_label
 _atom_site_symmetry_multiplicity
 _atom_site_fract_x
 _atom_site_fract_y
 _atom_site_fract_z
 _atom_site_occupancy
  In  In0  1  0.18502626  0.33350966  0.49803408  1
  In  In1  1  0.00629496  0.83427640  0.15823787  1
  In  In2  1  -0.00999594  0.49240657  0.49183148  1
  In  In3  1  0.00110299  0.33528313  0.00227279  1
  In  In4  1  0.49842147  0.47517139  0.70357408  1
  In  In5  1  -0.02152564  0.65031654  0.69378086  1
  In  In6  1  0.32937603  0.00593534  0.33508365  1
  In  In7  1  0.81553808  0.80357363  0.70206628  1
  In  In8  1  -0.00918518  0.14987258  0.48286962  1
  In  In9  1  0.62690228  0.84255424  0.15041655  1
  In  In10  1  0.50808099  0.84277963  0.32687383  1
  In  In11  1  -0.00041113  0.83970800  0.85398499  1
  In  In12  1  0.50577920  0.67252654  0.48044513  1
  In  In13  1  0.17183728  0.67346008  0.14697657  1
  In  In14  1  0.66639139  0.01197390  0.33407984  1
  In  In15  1  0.33259365  0.00975775  0.67165063  1
  In  In16  1  0.17246060  0.49092156  -0.00809242  1
  In  In17  1  0.21034181  0.49367394  0.31419245  1
  In  In18  1  0.48893825  0.85175097  0.67702841  1
  In  In19  1  0.48957100  0.00304991  0.85202717  1
  In  In20  1  -0.01568764  0.49482031  0.82520077  1
  In  In21  1  0.82568947  0.83015669  0.00250387  1
  In  In22  1  -0.00781061  0.15836622  0.83861782  1
  In  In23  1  0.64590153  0.51112874  0.15359234  1
  In  In24  1  0.00384017  0.31453048  0.67778722  1
  In  In25  1  0.79840722  0.67037368  0.51502164  1
  In  In26  1  0.65825109  0.33280239  0.00103256  1
  In  In27  1  0.64063266  0.18316899  0.51844015  1
  In  In28  1  0.36977044  0.81511363  0.13168582  1
  In  In29  1  0.17213918  0.70445505  0.51559528  1
  In  In30  1  0.01812541  0.16630437  0.14887044  1
  In  In31  1  0.17403268  0.85160300  0.67264144  1
  In  In32  1  0.17920392  0.15244309  -0.01877788  1
  In  In33  1  0.16549028  0.83723506  0.00617533  1
  In  In34  1  0.66492296  0.83517785  0.49309686  1
  In  In35  1  0.78065059  0.46130308  0.69581095  1
  In  In36  1  0.34514291  0.64621108  0.34280335  1
  In  In37  1  0.80242348  0.35063752  0.51025135  1
  In  In38  1  0.68164029  0.66435182  0.68633601  1
  In  In39  1  0.50687146  0.17832392  0.31969022  1
  In  In40  1  0.35024771  0.33422653  -0.00708223  1
  In  In41  1  0.83469389  -0.02025085  0.84802361  1
  In  In42  1  0.18772523  0.16871615  0.70677429  1
  In  In43  1  -0.00660378  0.30875676  0.32890049  1
  In  In44  1  0.81538051  0.33910229  0.15052250  1
  In  In45  1  0.80109335  0.16514690  0.30011033  1
  In  In46  1  0.65992054  0.17398794  0.14880486  1
  In  In47  1  -0.00062109  -0.02583346  0.32980079  1
  In  In48  1  0.49690547  0.49353853  0.32239086  1
  In  In49  1  0.18572473  0.65931956  0.83590925  1
  In  In50  1  0.81732974  0.00630679  0.15001049  1
  In  In51  1  0.31126055  0.65875592  0.66704214  1
  In  In52  1  -0.01922116  0.66605964  0.29824356  1
  In  In53  1  0.35144968  0.83927402  0.84326154  1
  In  In54  1  0.81583014  0.47990324  0.33393370  1
  In  In55  1  0.17681948  0.84124373  0.33479433  1
  In  In56  1  0.84791472  -0.00089670  0.51253981  1
  In  In57  1  0.51912633  0.67709794  0.87721432  1
  In  In58  1  0.63954359  0.18722470  0.82630302  1
  In  In59  1  0.17135073  0.50240770  0.66729558  1
  In  In60  1  0.36465883  0.48657941  0.49651423  1
  In  In61  1  0.82952577  0.18217925  0.65901038  1
  In  In62  1  0.49988378  0.49776558  -0.01611192  1
  In  In63  1  0.65355386  0.01494494  0.66686894  1
  In  In64  1  -0.00897797  0.51466297  0.13020530  1
  In  In65  1  0.18007041  0.16382091  0.33289746  1
  In  In66  1  0.36922111  0.18768553  0.52828044  1
  In  In67  1  0.35215777  0.17166549  0.85519632  1
  In  In68  1  0.36521129  0.14637179  0.13247997  1
  In  In69  1  0.83428878  0.65531135  0.13769399  1
  In  In70  1  0.00661391  0.84983930  0.50923556  1
  In  In71  1  0.33582524  0.49966053  0.17038562  1
  Te  Te72  1  0.08699950  0.06913693  0.06447308  1
  Te  Te73  1  0.09369957  0.06462333  0.41186785  1
  Te  Te74  1  0.08633255  0.07723247  0.75731381  1
  Te  Te75  1  0.09645550  0.41086072  0.09802761  1
  Te  Te76  1  0.08774884  0.41133842  0.40473108  1
  Te  Te77  1  0.09314159  0.40876897  0.75869434  1
  Te  Te78  1  0.06125532  0.73107883  0.06169839  1
  Te  Te79  1  0.06876532  0.74410253  0.40236243  1
  Te  Te80  1  0.09229783  0.74522741  0.74838793  1
  Te  Te81  1  0.44731108  0.05905839  0.04119344  1
  Te  Te82  1  0.42212841  0.09512124  0.41700558  1
  Te  Te83  1  0.43186416  0.09691435  0.74628356  1
  Te  Te84  1  0.43598842  0.41366591  0.09298839  1
  Te  Te85  1  0.43682467  0.38999525  0.41206687  1
  Te  Te86  1  0.42408783  0.35783415  0.76202583  1
  Te  Te87  1  0.46989474  0.71672158  0.08985933  1
  Te  Te88  1  0.40562514  0.76586521  0.41527134  1
  Te  Te89  1  0.42055645  0.73611105  0.75286059  1
  Te  Te90  1  0.73960373  0.08916761  0.05766104  1
  Te  Te91  1  0.75254830  0.09244704  0.43693463  1
  Te  Te92  1  0.75378311  0.08782148  0.75592365  1
  Te  Te93  1  0.74812527  0.44160365  0.06167272  1
  Te  Te94  1  0.71111116  0.42442004  0.42117043  1
  Te  Te95  1  0.72076989  0.39672242  0.81477032  1
  Te  Te96  1  0.72569039  0.74378382  0.07868696  1
  Te  Te97  1  0.73299928  0.74067547  0.40389095  1
  Te  Te98  1  0.71984223  0.75221022  0.81295313  1
  Te  Te99  1  0.10314871  0.25746725  0.23868067  1
  Te  Te100  1  0.08192849  0.24328816  0.56748752  1
  Te  Te101  1  0.08973336  0.25452699  0.90852012  1
  Te  Te102  1  0.09276639  0.57622207  0.24460115  1
  Te  Te103  1  0.07861940  0.58977076  0.58186828  1
  Te  Te104  1  0.07871478  0.58159534  0.91135166  1
  Te  Te105  1  0.10437899  0.92599890  0.23025431  1
  Te  Te106  1  0.09323364  0.93948243  0.58571672  1
  Te  Te107  1  0.09105904  0.93268783  0.92009182  1
  Te  Te108  1  0.40714968  0.24770315  0.23330575  1
  Te  Te109  1  0.45586741  0.28869696  0.60705962  1
  Te  Te110  1  0.45778314  0.24304750  0.93820248  1
  Te  Te111  1  0.43346443  0.60411166  0.22814638  1
  Te  Te112  1  0.42677929  0.59107846  0.59023829  1
  Te  Te113  1  0.40978652  0.57956987  0.89804758  1
  Te  Te114  1  0.41213023  0.91975854  0.23802115  1
  Te  Te115  1  0.42431436  0.93872972  0.57827560  1
  Te  Te116  1  0.44454474  0.89388780  0.95027086  1
  Te  Te117  1  0.71705828  0.28069014  0.25259875  1
  Te  Te118  1  0.71891895  0.27715255  0.61518936  1
  Te  Te119  1  0.74736414  0.25828025  0.90519973  1
  Te  Te120  1  0.74883341  0.58242024  0.24275678  1
  Te  Te121  1  0.72719683  0.55665404  0.58649939  1
  Te  Te122  1  0.78378812  0.62526709  0.89341009  1
  Te  Te123  1  0.73706747  0.91599418  0.24078986  1
  Te  Te124  1  0.75406395  0.91071783  0.59671646  1
  Te  Te125  1  0.72765562  0.92061911  0.93403530  1
  Te  Te126  1  0.25782594  0.24394338  0.07491680  1
  Te  Te127  1  0.27757291  0.24691792  0.41628056  1
  Te  Te128  1  0.28248008  0.26848643  0.75949341  1
  Te  Te129  1  0.26683516  0.58717057  0.06592693  1
  Te  Te130  1  0.24165558  0.58111235  0.44199956  1
  Te  Te131  1  0.27444881  0.55191220  0.77066779  1
  Te  Te132  1  0.26261589  0.90773170  0.09233833  1
  Te  Te133  1  0.25036651  0.92408796  0.43067689  1
  Te  Te134  1  0.25111333  0.93269059  0.77668829  1
  Te  Te135  1  0.55534226  0.24750814  0.06923727  1
  Te  Te136  1  0.57396347  0.26924688  0.41849524  1
  Te  Te137  1  0.55404527  0.26646693  0.73011943  1
  Te  Te138  1  0.57891676  0.60706788  0.05666306  1
  Te  Te139  1  0.58776346  0.57241551  0.41248504  1
  Te  Te140  1  0.58453107  0.58130654  0.77122271  1
  Te  Te141  1  0.54419560  0.93991269  0.07277620  1
  Te  Te142  1  0.57355123  0.93815966  0.42929704  1
  Te  Te143  1  0.59033845  0.91940939  0.76675061  1
  Te  Te144  1  0.90383488  0.24015233  0.07712961  1
  Te  Te145  1  0.88999770  0.25301929  0.42554814  1
  Te  Te146  1  0.89814551  0.26161406  0.77080249  1
  Te  Te147  1  0.89695299  0.57069932  0.03124535  1
  Te  Te148  1  0.90432504  0.59114117  0.41180818  1
  Te  Te149  1  0.85776310  0.58182462  0.76823916  1
  Te  Te150  1  0.92278741  0.92853570  0.07212656  1
  Te  Te151  1  0.89598608  0.89664514  0.41051409  1
  Te  Te152  1  0.92196746  0.90653093  0.74126355  1
  Te  Te153  1  0.25521287  0.08449189  0.22810842  1
  Te  Te154  1  0.25166062  0.10574280  0.58320923  1
  Te  Te155  1  0.27775751  0.06064340  0.91818286  1
  Te  Te156  1  0.28703882  0.38479182  0.25290191  1
  Te  Te157  1  0.27112171  0.41210619  0.59484674  1
  Te  Te158  1  0.25177965  0.40213473  0.90591015  1
  Te  Te159  1  0.25917662  0.74199139  0.25197571  1
  Te  Te160  1  0.28086607  0.78459061  0.58579036  1
  Te  Te161  1  0.26603359  0.74736041  0.93037301  1
  Te  Te162  1  0.57593047  0.07449133  0.23067272  1
  Te  Te163  1  0.55252330  0.08413725  0.58534448  1
  Te  Te164  1  0.58310482  0.09283432  0.92847909  1
  Te  Te165  1  0.57671962  0.40707057  0.23066968  1
  Te  Te166  1  0.55910880  0.40042623  0.59253004  1
  Te  Te167  1  0.58496102  0.41148294  0.89266273  1
  Te  Te168  1  0.58979372  0.74414833  0.25545138  1
  Te  Te169  1  0.58689418  0.75115488  0.59748416  1
  Te  Te170  1  0.60958354  0.78784943  0.91543450  1
  Te  Te171  1  0.92436527  0.08718154  0.25446350  1
  Te  Te172  1  0.93380694  0.08214175  0.60752711  1
  Te  Te173  1  0.91087694  0.07547885  0.93074629  1
  Te  Te174  1  0.92374508  0.41945756  0.24003910  1
  Te  Te175  1  0.91330419  0.42041042  0.60287030  1
  Te  Te176  1  0.90590782  0.40924651  0.91627135  1
  Te  Te177  1  0.89083295  0.76702168  0.23148032  1
  Te  Te178  1  0.91346938  0.74612143  0.58436794  1
  Te  Te179  1  0.90389059  0.73960537  0.90822472  1
