# generated using pymatgen
data_In2Te3
_symmetry_space_group_name_H-M   'P 1'
_cell_length_a   18.75968696
_cell_length_b   18.77702546
_cell_length_c   18.77048238
_cell_angle_alpha   90.05173967
_cell_angle_beta   90.00852214
_cell_angle_gamma   89.88928198
_symmetry_Int_Tables_number   1
_chemical_formula_structural   In2Te3
_chemical_formula_sum   'In72 Te108'
_cell_volume   6611.90832667
_cell_formula_units_Z   36
loop_
 _symmetry_equiv_pos_site_id
 _symmetry_equiv_pos_as_xyz
  1  'x, y, z'
loop_
 _atom_site_type_symbol
 _atom_site_label
 _atom_site_symmetry_multiplicity
 _atom_site_fract_x
 _atom_site_fract_y
 _atom_site_fract_z
 _atom_site_occupancy
  In  In0  1  0.66316817  0.83059625  0.83617591  1
  In  In1  1  -0.00621239  0.68155729  0.32180194  1
  In  In2  1  0.16299130  0.01129022  0.50357146  1
  In  In3  1  0.50863949  0.63015521  0.84837543  1
  In  In4  1  -0.01855608  0.51977324  0.15869349  1
  In  In5  1  0.36080535  -0.00744638  0.01611050  1
  In  In6  1  0.51003515  0.18051987  0.34703285  1
  In  In7  1  0.65961518  0.65597497  0.33229376  1
  In  In8  1  0.65558591  0.83444977  0.51617430  1
  In  In9  1  0.01253231  0.66588169  0.67645988  1
  In  In10  1  0.52401772  0.84026750  0.00573757  1
  In  In11  1  0.67138985  0.48971285  0.16383061  1
  In  In12  1  0.53059272  0.67169503  0.15843276  1
  In  In13  1  -0.03609642  0.33017284  0.35039207  1
  In  In14  1  0.17936736  0.48856504  -0.02091987  1
  In  In15  1  0.00470465  0.85443794  0.16888371  1
  In  In16  1  0.16247975  0.33237324  0.50420907  1
  In  In17  1  -0.04453793  0.03442740  0.64117479  1
  In  In18  1  0.14707133  0.16603145  0.33268089  1
  In  In19  1  0.82368666  0.86083324  0.67020174  1
  In  In20  1  0.81272566  0.49208953  0.00282846  1
  In  In21  1  0.81726380  0.13948998  0.33190024  1
  In  In22  1  0.19482096  0.67309797  0.50231707  1
  In  In23  1  0.15219859  0.15859694  -0.01263356  1
  In  In24  1  -0.01644981  0.29565456  0.68716071  1
  In  In25  1  0.17676409  0.33527086  0.85078718  1
  In  In26  1  0.83701854  0.65312756  0.86266137  1
  In  In27  1  0.18299792  0.51518684  0.66727789  1
  In  In28  1  -0.02204434  0.33159300  -0.00269208  1
  In  In29  1  0.50759891  0.36042577  0.83229557  1
  In  In30  1  0.31772761  -0.00856182  0.66096344  1
  In  In31  1  0.34342107  0.47319995  0.14188009  1
  In  In32  1  0.51491624  0.01247947  0.48729004  1
  In  In33  1  0.34431563  0.18253659  0.82945454  1
  In  In34  1  0.33685196  0.14146799  0.15583266  1
  In  In35  1  0.80769437  0.86796378  0.31965755  1
  In  In36  1  0.51814620  0.01651941  0.85405857  1
  In  In37  1  -0.01603280  0.86599160  0.49353028  1
  In  In38  1  0.82194989  0.02282135  0.81310070  1
  In  In39  1  0.80833972  0.79700835  0.01927119  1
  In  In40  1  0.16010760  0.65052247  0.15816783  1
  In  In41  1  0.16281735  0.00383960  0.81206444  1
  In  In42  1  0.48358481  0.50081850  0.35271729  1
  In  In43  1  0.15585953  0.32357865  0.18566409  1
  In  In44  1  0.64285656  0.64158492  0.69806749  1
  In  In45  1  0.48654471  0.20016788  0.64829477  1
  In  In46  1  0.15549886  0.00981967  0.16231078  1
  In  In47  1  0.69954422  0.01171616  0.66593347  1
  In  In48  1  0.50128010  0.80477867  0.68093192  1
  In  In49  1  0.18701931  0.64902221  0.82365683  1
  In  In50  1  0.00810753  0.50044089  0.83237506  1
  In  In51  1  0.82127700  0.65204032  0.51954587  1
  In  In52  1  0.35980103  0.51268348  0.51019356  1
  In  In53  1  -0.02182414  0.46834306  0.51000084  1
  In  In54  1  0.16712641  0.84167434  0.32091862  1
  In  In55  1  0.34415992  0.66200425  0.34875399  1
  In  In56  1  0.79740747  0.46189174  0.68879090  1
  In  In57  1  0.65521957  0.17693710  0.16426934  1
  In  In58  1  0.51913188  -0.00096999  0.17831763  1
  In  In59  1  0.34793511  0.33805540  -0.00491360  1
  In  In60  1  0.17894461  0.81197985  0.65122610  1
  In  In61  1  -0.01501289  -0.00869937  0.01226366  1
  In  In62  1  0.51080373  0.33181862  0.14312179  1
  In  In63  1  0.81997512  0.17989571  -0.01235938  1
  In  In64  1  0.67744356  0.32102545  0.35421880  1
  In  In65  1  0.17194865  0.81197508  -0.00612906  1
  In  In66  1  0.16379023  0.16114350  0.66258784  1
  In  In67  1  0.37443884  0.83757604  0.17604181  1
  In  In68  1  0.34554519  0.35080818  0.34369224  1
  In  In69  1  0.65828938  0.01369879  0.00600530  1
  In  In70  1  0.80297101  0.50360118  0.32498710  1
  In  In71  1  0.34150115  0.81613503  0.49466909  1
  Te  Te72  1  0.05725933  0.10251915  0.09311518  1
  Te  Te73  1  0.06477071  0.09690815  0.43435192  1
  Te  Te74  1  0.05822848  0.09227142  0.74694338  1
  Te  Te75  1  0.08726395  0.41604960  0.07993763  1
  Te  Te76  1  0.07856745  0.41575951  0.40693459  1
  Te  Te77  1  0.08538410  0.41162459  0.73378907  1
  Te  Te78  1  0.06608071  0.74388443  0.08170024  1
  Te  Te79  1  0.08431235  0.76043155  0.42400272  1
  Te  Te80  1  0.08859302  0.75893041  0.76534294  1
  Te  Te81  1  0.45804280  0.09512720  0.07339926  1
  Te  Te82  1  0.41298264  0.09318533  0.41545979  1
  Te  Te83  1  0.41793084  0.07467570  0.74707671  1
  Te  Te84  1  0.45857616  0.44290139  0.04073097  1
  Te  Te85  1  0.44543718  0.38354061  0.45787435  1
  Te  Te86  1  0.39635051  0.42789856  0.76090195  1
  Te  Te87  1  0.42105397  0.74488536  0.06838621  1
  Te  Te88  1  0.44177826  0.75806950  0.40166466  1
  Te  Te89  1  0.42894839  0.74732172  0.79459749  1
  Te  Te90  1  0.75798534  0.08592807  0.09563357  1
  Te  Te91  1  0.75198825  0.08985941  0.45686202  1
  Te  Te92  1  0.76621358  0.13421689  0.72558220  1
  Te  Te93  1  0.74244023  0.38588785  0.08191211  1
  Te  Te94  1  0.75538792  0.41804317  0.44098432  1
  Te  Te95  1  0.70013912  0.38084924  0.77104507  1
  Te  Te96  1  0.72361830  0.71394171  0.10516742  1
  Te  Te97  1  0.75986682  0.75098981  0.42004609  1
  Te  Te98  1  0.75602787  0.74407079  0.74179326  1
  Te  Te99  1  0.04424101  0.24309033  0.24933125  1
  Te  Te100  1  0.06522327  0.23562135  0.57098440  1
  Te  Te101  1  0.06363259  0.24652270  0.89847759  1
  Te  Te102  1  0.08267389  0.57151943  0.26292302  1
  Te  Te103  1  0.07678227  0.57954498  0.56642673  1
  Te  Te104  1  0.08083343  0.59440902  0.92494968  1
  Te  Te105  1  0.06807999  0.94783217  0.27398814  1
  Te  Te106  1  0.08246209  0.92315593  0.60127473  1
  Te  Te107  1  0.09285480  0.92538939  0.92511564  1
  Te  Te108  1  0.41235565  0.25595331  0.23447765  1
  Te  Te109  1  0.39721707  0.28138025  0.56690976  1
  Te  Te110  1  0.44413244  0.24395717  0.92384928  1
  Te  Te111  1  0.41828160  0.57945632  0.23432314  1
  Te  Te112  1  0.43170305  0.61457777  0.58649247  1
  Te  Te113  1  0.42239729  0.56437657  0.94827899  1
  Te  Te114  1  0.41681090  0.94161618  0.26917000  1
  Te  Te115  1  0.42546694  0.91072866  0.58698765  1
  Te  Te116  1  0.42466550  0.90661165  0.90737931  1
  Te  Te117  1  0.76015276  0.25513258  0.24526315  1
  Te  Te118  1  0.72046366  0.29334591  0.55682692  1
  Te  Te119  1  0.77427467  0.28163308  0.88647196  1
  Te  Te120  1  0.76479078  0.60778836  0.21728492  1
  Te  Te121  1  0.72596436  0.56108980  0.59449083  1
  Te  Te122  1  0.72571831  0.55977692  0.89589733  1
  Te  Te123  1  0.71135955  0.94592268  0.23993247  1
  Te  Te124  1  0.76768783  0.93497405  0.54961883  1
  Te  Te125  1  0.75310006  0.92342879  0.91611682  1
  Te  Te126  1  0.24650865  0.24952646  0.07785721  1
  Te  Te127  1  0.25070592  0.25020448  0.40976243  1
  Te  Te128  1  0.25205424  0.26104237  0.73810573  1
  Te  Te129  1  0.26253147  0.58252127  0.06778955  1
  Te  Te130  1  0.24927293  0.56185272  0.41295622  1
  Te  Te131  1  0.29295337  0.57503062  0.74717758  1
  Te  Te132  1  0.25054249  0.91188804  0.09264271  1
  Te  Te133  1  0.25362856  0.91776997  0.42067034  1
  Te  Te134  1  0.25616966  0.89394514  0.76012039  1
  Te  Te135  1  0.61768776  0.27476073  0.05582716  1
  Te  Te136  1  0.59921209  0.23975888  0.45682307  1
  Te  Te137  1  0.58087556  0.25721182  0.74835928  1
  Te  Te138  1  0.59918939  0.57774475  0.06732609  1
  Te  Te139  1  0.59037516  0.56836448  0.42845459  1
  Te  Te140  1  0.53502770  0.54105698  0.72696252  1
  Te  Te141  1  0.61978163  0.90032492  0.11174411  1
  Te  Te142  1  0.58953364  0.91126979  0.40867523  1
  Te  Te143  1  0.59146567  0.92287811  0.73717928  1
  Te  Te144  1  0.90858144  0.24233134  0.09091845  1
  Te  Te145  1  0.89302464  0.22883065  0.43382488  1
  Te  Te146  1  0.87504062  0.24037932  0.77257991  1
  Te  Te147  1  0.91029028  0.59337424  0.05309974  1
  Te  Te148  1  0.91394361  0.57997868  0.41323275  1
  Te  Te149  1  0.90590606  0.57227710  0.73392004  1
  Te  Te150  1  0.88421815  0.91301644  0.09360106  1
  Te  Te151  1  0.90768344  0.95443396  0.39829918  1
  Te  Te152  1  0.92959954  0.92633377  0.75354295  1
  Te  Te153  1  0.25190939  0.07457453  0.26208977  1
  Te  Te154  1  0.26891984  0.10242775  0.56867689  1
  Te  Te155  1  0.26316246  0.07525887  0.92008797  1
  Te  Te156  1  0.24713979  0.42636308  0.25152391  1
  Te  Te157  1  0.26289594  0.41424038  0.58365519  1
  Te  Te158  1  0.29313327  0.43376246  0.88199422  1
  Te  Te159  1  0.25289557  0.74246884  0.24239961  1
  Te  Te160  1  0.29788959  0.71960628  0.60723091  1
  Te  Te161  1  0.26833070  0.73594982  0.91328504  1
  Te  Te162  1  0.60616428  0.08143294  0.27679227  1
  Te  Te163  1  0.58478035  0.09065231  0.59743028  1
  Te  Te164  1  0.62567192  0.10719086  0.89498002  1
  Te  Te165  1  0.57667644  0.40929463  0.26384220  1
  Te  Te166  1  0.61422790  0.39021575  0.54390391  1
  Te  Te167  1  0.62031308  0.43966023  0.89357266  1
  Te  Te168  1  0.57649335  0.76045812  0.26722150  1
  Te  Te169  1  0.57409313  0.71986255  0.57662005  1
  Te  Te170  1  0.60255288  0.73251819  0.93089432  1
  Te  Te171  1  0.91373367  0.04460411  0.26931280  1
  Te  Te172  1  0.86578160  0.12310281  0.55666425  1
  Te  Te173  1  0.91932611  0.08718137  0.91396625  1
  Te  Te174  1  0.90048378  0.42051035  0.24077649  1
  Te  Te175  1  0.89146945  0.37965799  0.59660314  1
  Te  Te176  1  0.90012214  0.41440963  0.89474341  1
  Te  Te177  1  0.90043060  0.76716720  0.24199953  1
  Te  Te178  1  0.92067965  0.75240938  0.58587119  1
  Te  Te179  1  0.90743435  0.77117031  0.91262416  1
