# generated using pymatgen
data_In2Te3
_symmetry_space_group_name_H-M   'P 1'
_cell_length_a   19.02518685
_cell_length_b   19.00521042
_cell_length_c   19.00341524
_cell_angle_alpha   89.96635520
_cell_angle_beta   89.97469976
_cell_angle_gamma   89.84422750
_symmetry_Int_Tables_number   1
_chemical_formula_structural   In2Te3
_chemical_formula_sum   'In72 Te108'
_cell_volume   6871.18353846
_cell_formula_units_Z   36
loop_
 _symmetry_equiv_pos_site_id
 _symmetry_equiv_pos_as_xyz
  1  'x, y, z'
loop_
 _atom_site_type_symbol
 _atom_site_label
 _atom_site_symmetry_multiplicity
 _atom_site_fract_x
 _atom_site_fract_y
 _atom_site_fract_z
 _atom_site_occupancy
  In  In0  1  0.32809671  0.84090728  0.49764728  1
  In  In1  1  0.46210041  0.81195952  0.68098219  1
  In  In2  1  0.29266021  0.64006683  0.34088639  1
  In  In3  1  0.16618342  0.50275069  0.64395885  1
  In  In4  1  0.20763131  0.12841601  0.31349661  1
  In  In5  1  0.01648967  0.00222126  0.65658184  1
  In  In6  1  0.47955600  0.51331156  0.34214764  1
  In  In7  1  -0.00920559  0.84909979  0.18536173  1
  In  In8  1  0.32905454  0.84253867  0.85397982  1
  In  In9  1  0.82148119  0.66611571  0.17877331  1
  In  In10  1  0.63488513  0.19524629  0.81303406  1
  In  In11  1  0.00363032  0.82073327  0.84415354  1
  In  In12  1  0.84894410  0.14978069  0.01167351  1
  In  In13  1  0.47916857  0.31961298  0.16966430  1
  In  In14  1  0.82819465  0.66027982  0.83848073  1
  In  In15  1  0.18304383  0.48398694  0.01251337  1
  In  In16  1  0.18103960  0.65679971  0.82979900  1
  In  In17  1  0.00363438  0.66981154  -0.01557797  1
  In  In18  1  0.89026237  0.46718060  0.28610934  1
  In  In19  1  0.03004990  0.66071098  0.35530927  1
  In  In20  1  0.01785245  0.00809031  0.32529965  1
  In  In21  1  0.00710369  -0.01205856  0.00137026  1
  In  In22  1  0.19459391  0.84629613  0.67183413  1
  In  In23  1  0.87491782  0.01970938  0.47285745  1
  In  In24  1  0.17506587  0.34602986  0.17765053  1
  In  In25  1  0.66057359  0.00438853  0.69224958  1
  In  In26  1  0.83759950  0.31750795  0.48927394  1
  In  In27  1  0.85997946  0.32040452  0.85813739  1
  In  In28  1  0.62238907  0.48203456  0.50364739  1
  In  In29  1  0.49663258  0.68156616  0.17384576  1
  In  In30  1  0.46985673  0.00282174  0.17597410  1
  In  In31  1  0.17154565  0.64587331  0.15331712  1
  In  In32  1  0.32324749  0.15825495  0.49512315  1
  In  In33  1  0.48437983  0.51343171  0.67188849  1
  In  In34  1  0.65456689  0.30287965  0.33912862  1
  In  In35  1  0.82635598  0.85786399  0.33556416  1
  In  In36  1  0.62570809  0.84080858  0.15742591  1
  In  In37  1  0.02514611  0.48049749  0.49299924  1
  In  In38  1  0.80630216  -0.00671047  0.83589240  1
  In  In39  1  0.84342728  0.50657178  0.68770626  1
  In  In40  1  0.02552084  0.32361202  0.65745232  1
  In  In41  1  0.63841891  0.68062589  -0.00514647  1
  In  In42  1  0.67910133  0.14827753  0.51352350  1
  In  In43  1  0.49465543  0.13882266  -0.00016054  1
  In  In44  1  0.16921430  0.85690982  0.01440708  1
  In  In45  1  0.16787006  0.16862544  0.64294010  1
  In  In46  1  0.51610718  0.01001186  0.49544254  1
  In  In47  1  0.67514897  0.85396231  0.51834984  1
  In  In48  1  0.46933286  0.18681468  0.33553235  1
  In  In49  1  0.66770573  0.64529549  0.64993587  1
  In  In50  1  0.01389357  0.16535049  0.15580365  1
  In  In51  1  0.68774660  0.17102197  0.15905595  1
  In  In52  1  0.03220363  0.18340044  0.84499941  1
  In  In53  1  0.66105510  0.35239199  -0.01679959  1
  In  In54  1  0.65544731  0.81018635  0.85725920  1
  In  In55  1  0.84599317  0.48902162  0.00902757  1
  In  In56  1  0.15198321  0.83309587  0.35045799  1
  In  In57  1  0.64748220  0.49522306  0.82771310  1
  In  In58  1  0.85510145  0.67301475  0.49474384  1
  In  In59  1  0.33746433  0.84007318  0.16016932  1
  In  In60  1  0.86609233  0.18152787  0.32771113  1
  In  In61  1  0.64304885  -0.00519593  0.32461152  1
  In  In62  1  0.66805914  0.49616872  0.17619614  1
  In  In63  1  0.47333324  0.66399356  0.50336866  1
  In  In64  1  0.30056774  0.13948907  0.86198482  1
  In  In65  1  0.31379780  0.35078686  0.65461419  1
  In  In66  1  0.46196314  0.52300915  -0.01829949  1
  In  In67  1  0.16819748  0.34760454  0.83541189  1
  In  In68  1  0.47566548  -0.00282688  0.83214981  1
  In  In69  1  0.34047302  0.33018355  0.00315073  1
  In  In70  1  0.49141385  0.35637755  0.52923799  1
  In  In71  1  0.83619190  0.83702664  0.65013229  1
  Te  Te72  1  0.10098282  0.07943743  0.07000045  1
  Te  Te73  1  0.10683063  0.08247095  0.41158583  1
  Te  Te74  1  0.10015372  0.08584122  0.75293228  1
  Te  Te75  1  0.07407332  0.42614953  0.09760705  1
  Te  Te76  1  0.10411640  0.44860098  0.36632309  1
  Te  Te77  1  0.07722027  0.42996826  0.74843956  1
  Te  Te78  1  0.07375143  0.75643791  0.08843153  1
  Te  Te79  1  0.12210660  0.72557343  0.44861423  1
  Te  Te80  1  0.09472665  0.75107293  0.74912568  1
  Te  Te81  1  0.40200760  0.12427041  0.11661399  1
  Te  Te82  1  0.41100469  0.06732927  0.40431984  1
  Te  Te83  1  0.38941689  0.08715491  0.75597560  1
  Te  Te84  1  0.40843363  0.42902262  0.09500039  1
  Te  Te85  1  0.41667896  0.40069024  0.41021989  1
  Te  Te86  1  0.41404495  0.40855573  0.74641312  1
  Te  Te87  1  0.41943582  0.75413270  0.07349156  1
  Te  Te88  1  0.39268251  0.73665050  0.39963394  1
  Te  Te89  1  0.38412536  0.72427850  0.77104008  1
  Te  Te90  1  0.74726359  0.06829524  0.07581502  1
  Te  Te91  1  0.75059132  0.08024447  0.39740537  1
  Te  Te92  1  0.75206946  0.10659263  0.75200990  1
  Te  Te93  1  0.75268726  0.40317442  0.09200844  1
  Te  Te94  1  0.72618370  0.40232399  0.42666141  1
  Te  Te95  1  0.76507040  0.41479678  0.77808086  1
  Te  Te96  1  0.73534720  0.74936134  0.08814437  1
  Te  Te97  1  0.75152225  0.76065016  0.42486810  1
  Te  Te98  1  0.74456600  0.75024190  0.73595713  1
  Te  Te99  1  0.10724615  0.23165510  0.25179866  1
  Te  Te100  1  0.10374594  0.26404871  0.55059643  1
  Te  Te101  1  0.10851468  0.26321723  0.94238865  1
  Te  Te102  1  0.08070533  0.57382579  0.24648351  1
  Te  Te103  1  0.07341751  0.59346709  0.57296542  1
  Te  Te104  1  0.09278222  0.57058277  0.91936476  1
  Te  Te105  1  0.10759531  0.92692952  0.23495895  1
  Te  Te106  1  0.10634105  0.91988639  0.57808399  1
  Te  Te107  1  0.09899123  0.92359704  0.89778401  1
  Te  Te108  1  0.37713446  0.28487496  0.27269574  1
  Te  Te109  1  0.40456393  0.24811994  0.58863537  1
  Te  Te110  1  0.41381605  0.23178366  0.91378177  1
  Te  Te111  1  0.39796565  0.58814216  0.24075223  1
  Te  Te112  1  0.39554757  0.55818746  0.56506139  1
  Te  Te113  1  0.42501305  0.63138315  0.89166084  1
  Te  Te114  1  0.42633339  0.89362408  0.26241601  1
  Te  Te115  1  0.42723981  0.92053846  0.58452092  1
  Te  Te116  1  0.40208541  0.93652720  0.94248721  1
  Te  Te117  1  0.76843475  0.26456598  0.24691266  1
  Te  Te118  1  0.75976030  0.24284775  0.58804776  1
  Te  Te119  1  0.74415573  0.24191399  0.92178858  1
  Te  Te120  1  0.76427791  0.56009963  0.27046994  1
  Te  Te121  1  0.76190937  0.56670288  0.56569610  1
  Te  Te122  1  0.73782489  0.57747131  0.92811538  1
  Te  Te123  1  0.73856550  0.92188702  0.23374216  1
  Te  Te124  1  0.76570223  0.95606769  0.58258890  1
  Te  Te125  1  0.73477697  0.90837307  0.92934165  1
  Te  Te126  1  0.22493447  0.26134122  0.06414245  1
  Te  Te127  1  0.25993725  0.24383397  0.39222968  1
  Te  Te128  1  0.24623057  0.24655742  0.75417981  1
  Te  Te129  1  0.27328141  0.58418361  0.06947119  1
  Te  Te130  1  0.22857172  0.52509020  0.41443782  1
  Te  Te131  1  0.25464299  0.56232747  0.74532252  1
  Te  Te132  1  0.26766596  0.95372975  0.07630278  1
  Te  Te133  1  0.23982455  0.92802447  0.41839903  1
  Te  Te134  1  0.27378375  0.93753362  0.75587154  1
  Te  Te135  1  0.58004403  0.25432708  0.07490060  1
  Te  Te136  1  0.56946723  0.23995325  0.44708563  1
  Te  Te137  1  0.56395561  0.29069570  0.73077058  1
  Te  Te138  1  0.57641043  0.56617951  0.07958646  1
  Te  Te139  1  0.58212370  0.59648128  0.41599470  1
  Te  Te140  1  0.57179365  0.60597965  0.75876348  1
  Te  Te141  1  0.55610545  0.93973663  0.07593261  1
  Te  Te142  1  0.57358387  0.89443387  0.41336431  1
  Te  Te143  1  0.57721722  0.89281344  0.74926505  1
  Te  Te144  1  0.92183302  0.25729439  0.08143790  1
  Te  Te145  1  0.94813856  0.27175823  0.40525755  1
  Te  Te146  1  0.93280283  0.24490635  0.74852612  1
  Te  Te147  1  0.91908188  0.59435924  0.08849026  1
  Te  Te148  1  0.91719094  0.55902552  0.40934256  1
  Te  Te149  1  0.92922463  0.60636098  0.74918792  1
  Te  Te150  1  0.91158481  0.91303554  0.08194767  1
  Te  Te151  1  0.94564686  0.90112837  0.41639525  1
  Te  Te152  1  0.91453995  0.91373514  0.75587572  1
  Te  Te153  1  0.29687607  0.06436400  0.21384900  1
  Te  Te154  1  0.24439849  0.06369503  0.57534517  1
  Te  Te155  1  0.23591568  0.06599544  0.97164010  1
  Te  Te156  1  0.22800918  0.45381170  0.26794278  1
  Te  Te157  1  0.23585185  0.41357198  0.54579129  1
  Te  Te158  1  0.27577508  0.42694882  0.90484731  1
  Te  Te159  1  0.23623126  0.75040578  0.24628866  1
  Te  Te160  1  0.26679534  0.74649657  0.59028173  1
  Te  Te161  1  0.23935037  0.74987457  0.93824829  1
  Te  Te162  1  0.57929277  0.11185894  0.25291692  1
  Te  Te163  1  0.57066905  0.09249368  0.60982499  1
  Te  Te164  1  0.58761060  0.07852730  0.89666298  1
  Te  Te165  1  0.57498484  0.40830627  0.25970587  1
  Te  Te166  1  0.60528434  0.40338452  0.63072925  1
  Te  Te167  1  0.54679987  0.41633095  0.90861594  1
  Te  Te168  1  0.60819099  0.73123211  0.25240279  1
  Te  Te169  1  0.57874527  0.74907265  0.58140950  1
  Te  Te170  1  0.53315004  0.75916371  0.92631395  1
  Te  Te171  1  0.91630373  0.07518566  0.23555256  1
  Te  Te172  1  0.93593671  0.09748112  0.57831358  1
  Te  Te173  1  0.92548891  0.08098042  0.90027072  1
  Te  Te174  1  0.95461748  0.38116266  0.18798080  1
  Te  Te175  1  0.91694575  0.41518145  0.58863632  1
  Te  Te176  1  0.94032393  0.42496715  0.91892197  1
  Te  Te177  1  0.91792160  0.74411176  0.26989241  1
  Te  Te178  1  0.93541147  0.75454566  0.58341413  1
  Te  Te179  1  0.89423380  0.76071191  0.93005841  1
