# generated using pymatgen
data_In2Te3
_symmetry_space_group_name_H-M   'P 1'
_cell_length_a   18.94468158
_cell_length_b   18.94554782
_cell_length_c   18.95751959
_cell_angle_alpha   89.85641280
_cell_angle_beta   90.06918164
_cell_angle_gamma   89.94705497
_symmetry_Int_Tables_number   1
_chemical_formula_structural   In2Te3
_chemical_formula_sum   'In72 Te108'
_cell_volume   6804.15384035
_cell_formula_units_Z   36
loop_
 _symmetry_equiv_pos_site_id
 _symmetry_equiv_pos_as_xyz
  1  'x, y, z'
loop_
 _atom_site_type_symbol
 _atom_site_label
 _atom_site_symmetry_multiplicity
 _atom_site_fract_x
 _atom_site_fract_y
 _atom_site_fract_z
 _atom_site_occupancy
  In  In0  1  -0.01792790  0.85333682  0.51221369  1
  In  In1  1  0.29493410  0.34105116  -0.02580192  1
  In  In2  1  0.13614823  0.01196464  0.16334153  1
  In  In3  1  0.67672469  0.32674044  0.32143550  1
  In  In4  1  0.15376723  0.30034000  0.51074140  1
  In  In5  1  0.32275223  -0.01072015  -0.00496496  1
  In  In6  1  -0.01232585  0.66543645  0.34843955  1
  In  In7  1  0.70741984  0.16087684  0.81157043  1
  In  In8  1  0.30885397  0.16743172  0.81331701  1
  In  In9  1  0.00002693  0.02624799  0.32275794  1
  In  In10  1  0.48827833  0.50124550  0.00501180  1
  In  In11  1  0.68914290  0.18751408  0.16134789  1
  In  In12  1  0.00135046  0.17144314  0.15235962  1
  In  In13  1  -0.00740839  0.01659666  0.65542305  1
  In  In14  1  0.49565334  0.33861017  0.83967347  1
  In  In15  1  0.29686210  0.68670558  -0.02090346  1
  In  In16  1  0.48191058  0.34829660  0.50566573  1
  In  In17  1  0.69938180  0.00457053  0.67409749  1
  In  In18  1  0.15167301  0.67387575  0.53259431  1
  In  In19  1  -0.01335116  0.63339539  -0.00415250  1
  In  In20  1  0.85413565  0.17702620  -0.02490164  1
  In  In21  1  0.83361477  0.33248982  0.83581728  1
  In  In22  1  0.50194624  -0.00965564  0.85650176  1
  In  In23  1  0.50241320  0.49128240  0.68924128  1
  In  In24  1  0.51678814  0.84945559  0.32870152  1
  In  In25  1  -0.02736833  0.34226131  0.33880873  1
  In  In26  1  0.50015861  0.65346039  0.84345311  1
  In  In27  1  0.15995792  -0.01885542  0.84527495  1
  In  In28  1  0.16368965  0.17442923  0.33329376  1
  In  In29  1  0.49126763  0.33742452  0.18579380  1
  In  In30  1  0.69031419  0.51703347  0.82398069  1
  In  In31  1  0.10483679  0.85130780  0.71061088  1
  In  In32  1  -0.01375149  0.81985742  0.15383520  1
  In  In33  1  0.65527301  0.49623955  0.50343966  1
  In  In34  1  0.34223536  0.83252449  0.16541879  1
  In  In35  1  0.67143496  0.66069342  -0.01266947  1
  In  In36  1  0.33281051  0.84921285  0.50847248  1
  In  In37  1  0.49730175  0.51023516  0.35118221  1
  In  In38  1  0.15985187  0.65773974  0.14591445  1
  In  In39  1  0.85676692  0.31455547  0.52191135  1
  In  In40  1  0.33317802  0.63757662  0.66262842  1
  In  In41  1  0.69802677  -0.01101817  -0.01285673  1
  In  In42  1  0.47199550  0.84241822  0.01687986  1
  In  In43  1  0.14864346  0.48596345  0.70613354  1
  In  In44  1  0.16273450  0.34961825  0.13840843  1
  In  In45  1  0.15996755  0.46959481  0.32100868  1
  In  In46  1  0.50233975  0.16755882  0.67222940  1
  In  In47  1  0.68670445  0.17933824  0.49356033  1
  In  In48  1  0.50591471  0.17224190  0.01617160  1
  In  In49  1  0.50078299  0.82058426  0.66205495  1
  In  In50  1  0.34814302  0.66318689  0.32562591  1
  In  In51  1  0.32001960  0.49475094  0.47615844  1
  In  In52  1  0.85295493  0.48868797  0.66164753  1
  In  In53  1  0.49896423  0.01236245  0.47863952  1
  In  In54  1  0.00652554  0.65980409  0.69576546  1
  In  In55  1  0.69007694  0.81597361  0.82845910  1
  In  In56  1  0.27911178  0.05018148  0.64858838  1
  In  In57  1  0.33061724  0.33598819  0.67321504  1
  In  In58  1  0.48118064  0.16616025  0.32579158  1
  In  In59  1  0.86748869  0.83452077  -0.02461312  1
  In  In60  1  0.85289278  0.83368083  0.32003699  1
  In  In61  1  0.70536713  0.48626133  0.13521582  1
  In  In62  1  0.67777285  0.81131998  0.17613747  1
  In  In63  1  0.82210208  0.50446169  0.32473165  1
  In  In64  1  0.52702126  0.67762144  0.51350504  1
  In  In65  1  0.82267566  0.66540678  0.48178840  1
  In  In66  1  -0.00911486  0.35633627  -0.01122534  1
  In  In67  1  0.18500442  0.85768219  0.35100797  1
  In  In68  1  0.66776505  -0.00581296  0.33635249  1
  In  In69  1  -0.00824924  0.17748783  0.83518446  1
  In  In70  1  0.48956797  -0.01185166  0.17401369  1
  In  In71  1  0.84559986  0.83144353  0.68656629  1
  Te  Te72  1  0.05716672  0.07495816  0.05477035  1
  Te  Te73  1  0.10192060  0.07019951  0.41818038  1
  Te  Te74  1  0.08303256  0.08373938  0.75710222  1
  Te  Te75  1  0.06337537  0.45768059  0.08377183  1
  Te  Te76  1  0.07587842  0.41111970  0.42845506  1
  Te  Te77  1  0.10422573  0.37549045  0.79884950  1
  Te  Te78  1  0.08033051  0.75116375  0.05777248  1
  Te  Te79  1  0.08040501  0.76258780  0.42524826  1
  Te  Te80  1  0.11547538  0.71827640  0.78097409  1
  Te  Te81  1  0.40719139  0.08018693  0.08592454  1
  Te  Te82  1  0.39514949  0.09843904  0.42324506  1
  Te  Te83  1  0.41594935  0.07380218  0.75685659  1
  Te  Te84  1  0.40574812  0.39088556  0.06591845  1
  Te  Te85  1  0.39721535  0.39796341  0.39055552  1
  Te  Te86  1  0.39361576  0.43022463  0.77464070  1
  Te  Te87  1  0.40807582  0.72401828  0.08327782  1
  Te  Te88  1  0.42056694  0.75274267  0.42935714  1
  Te  Te89  1  0.41105233  0.73564351  0.75050705  1
  Te  Te90  1  0.76793509  0.09263914  0.07164126  1
  Te  Te91  1  0.75673772  0.08343131  0.40983819  1
  Te  Te92  1  0.80613774  0.07851818  0.74252128  1
  Te  Te93  1  0.77638336  0.37267885  0.08230785  1
  Te  Te94  1  0.75289936  0.40464150  0.43032404  1
  Te  Te95  1  0.74510609  0.40975909  0.73475636  1
  Te  Te96  1  0.75851171  0.76072602  0.06107407  1
  Te  Te97  1  0.75193510  0.76070343  0.39718008  1
  Te  Te98  1  0.78810455  0.72244288  0.77170931  1
  Te  Te99  1  0.07314793  0.27062632  0.24301731  1
  Te  Te100  1  0.06159210  0.21357161  0.58850373  1
  Te  Te101  1  0.08125901  0.25924754  0.92391400  1
  Te  Te102  1  0.08768210  0.58934831  0.26111175  1
  Te  Te103  1  0.07219965  0.56274132  0.59672204  1
  Te  Te104  1  0.10876492  0.55426943  0.95601267  1
  Te  Te105  1  0.07090617  0.89872690  0.25598283  1
  Te  Te106  1  0.09249507  0.92767340  0.57799493  1
  Te  Te107  1  0.10571513  0.88315767  0.94200656  1
  Te  Te108  1  0.39606088  0.23625088  0.22984781  1
  Te  Te109  1  0.40613973  0.24061668  0.58056713  1
  Te  Te110  1  0.41008933  0.23359991  0.91141972  1
  Te  Te111  1  0.40937028  0.55989400  0.24369221  1
  Te  Te112  1  0.43227620  0.56287986  0.56559305  1
  Te  Te113  1  0.39302698  0.57949193  0.91664239  1
  Te  Te114  1  0.39663593  0.92440049  0.27499692  1
  Te  Te115  1  0.42748199  0.93371461  0.59325845  1
  Te  Te116  1  0.39171827  0.89430005  0.89784275  1
  Te  Te117  1  0.77981601  0.23943771  0.26579157  1
  Te  Te118  1  0.75900007  0.24067472  0.60371763  1
  Te  Te119  1  0.73411949  0.25918193  0.92383099  1
  Te  Te120  1  0.74908158  0.58895974  0.22961604  1
  Te  Te121  1  0.75233767  0.57901438  0.58500468  1
  Te  Te122  1  0.76461675  0.55522260  0.94506145  1
  Te  Te123  1  0.75658826  0.92342385  0.23519691  1
  Te  Te124  1  0.77635052  0.91631340  0.58765081  1
  Te  Te125  1  0.78072564  0.92532120  0.88093468  1
  Te  Te126  1  0.22629580  0.24280636  0.05962159  1
  Te  Te127  1  0.24889954  0.27315503  0.40322614  1
  Te  Te128  1  0.21970721  0.26753030  0.74818673  1
  Te  Te129  1  0.25128285  0.57457111  0.06621446  1
  Te  Te130  1  0.23740491  0.60910446  0.42182600  1
  Te  Te131  1  0.23404568  0.59362607  0.76365830  1
  Te  Te132  1  0.23778564  0.91424007  0.09445319  1
  Te  Te133  1  0.24920423  0.95292062  0.44285408  1
  Te  Te134  1  0.24158591  0.92777447  0.72777008  1
  Te  Te135  1  0.59011089  0.27596440  0.08613739  1
  Te  Te136  1  0.57328861  0.25954203  0.41506841  1
  Te  Te137  1  0.59019810  0.25163086  0.75960297  1
  Te  Te138  1  0.58750404  0.58003617  0.08473987  1
  Te  Te139  1  0.60461199  0.60161346  0.40614315  1
  Te  Te140  1  0.59464491  0.60127940  0.73768238  1
  Te  Te141  1  0.58759011  0.92517902  0.07485000  1
  Te  Te142  1  0.60072292  0.90521696  0.44052626  1
  Te  Te143  1  0.59258377  0.91998735  0.75682655  1
  Te  Te144  1  0.90059242  0.27879789  0.08805745  1
  Te  Te145  1  0.93134614  0.22765580  0.42696439  1
  Te  Te146  1  0.92160913  0.26577820  0.73654979  1
  Te  Te147  1  0.93396520  0.53667418  0.09838997  1
  Te  Te148  1  0.91943974  0.55980125  0.43231199  1
  Te  Te149  1  0.94053300  0.54716853  0.76916954  1
  Te  Te150  1  0.90983872  0.92225214  0.08409740  1
  Te  Te151  1  0.90758047  0.93861629  0.41451987  1
  Te  Te152  1  0.96264470  0.89739223  0.75262498  1
  Te  Te153  1  0.23571109  0.08773283  0.23773030  1
  Te  Te154  1  0.20935884  0.16448191  0.58067039  1
  Te  Te155  1  0.23572349  0.08967854  0.92210027  1
  Te  Te156  1  0.25676115  0.42805456  0.22138649  1
  Te  Te157  1  0.24413500  0.43208555  0.59093270  1
  Te  Te158  1  0.19743649  0.43524522  0.90847851  1
  Te  Te159  1  0.24037532  0.75069851  0.24979168  1
  Te  Te160  1  0.25726673  0.75716948  0.60269855  1
  Te  Te161  1  0.21994198  0.79280381  0.90497789  1
  Te  Te162  1  0.58750228  0.08925673  0.23640008  1
  Te  Te163  1  0.59258320  0.08395972  0.58476543  1
  Te  Te164  1  0.59702822  0.09151987  0.91896088  1
  Te  Te165  1  0.59261162  0.43262390  0.25434983  1
  Te  Te166  1  0.58661431  0.40045033  0.60169324  1
  Te  Te167  1  0.58619596  0.43676463  0.90880393  1
  Te  Te168  1  0.56056647  0.74771967  0.23446882  1
  Te  Te169  1  0.61546485  0.75642155  0.59909294  1
  Te  Te170  1  0.57237209  0.76543680  0.91987570  1
  Te  Te171  1  0.90541696  0.10008821  0.23923292  1
  Te  Te172  1  0.94822647  0.11353147  0.55136726  1
  Te  Te173  1  0.94268704  0.06903748  0.92602145  1
  Te  Te174  1  0.92615156  0.44359879  0.23757565  1
  Te  Te175  1  0.94850701  0.38220133  0.61866855  1
  Te  Te176  1  0.91487344  0.44389085  0.89358896  1
  Te  Te177  1  0.90520845  0.71861779  0.23224027  1
  Te  Te178  1  0.92421988  0.73255203  0.58365639  1
  Te  Te179  1  0.90806788  0.71413360  0.89864793  1
