# generated using pymatgen
data_In2Te3
_symmetry_space_group_name_H-M   'P 1'
_cell_length_a   18.94887445
_cell_length_b   18.94069741
_cell_length_c   18.95397671
_cell_angle_alpha   89.99736419
_cell_angle_beta   89.84108105
_cell_angle_gamma   89.97644132
_symmetry_Int_Tables_number   1
_chemical_formula_structural   In2Te3
_chemical_formula_sum   'In72 Te108'
_cell_volume   6802.64831197
_cell_formula_units_Z   36
loop_
 _symmetry_equiv_pos_site_id
 _symmetry_equiv_pos_as_xyz
  1  'x, y, z'
loop_
 _atom_site_type_symbol
 _atom_site_label
 _atom_site_symmetry_multiplicity
 _atom_site_fract_x
 _atom_site_fract_y
 _atom_site_fract_z
 _atom_site_occupancy
  In  In0  1  0.81533277  0.50679793  0.63833096  1
  In  In1  1  0.17053394  0.50515697  0.34490593  1
  In  In2  1  0.66696165  0.66427287  0.32909458  1
  In  In3  1  0.68412593  0.67681030  0.64256294  1
  In  In4  1  -0.00382753  0.14729483  0.84476688  1
  In  In5  1  0.18245405  0.16048143  0.00907028  1
  In  In6  1  0.80240074  0.00361990  0.50453947  1
  In  In7  1  0.33864978  0.65522550  0.32029567  1
  In  In8  1  0.67280531  0.49926683  0.81571492  1
  In  In9  1  0.00282367  0.83466481  0.51286377  1
  In  In10  1  0.66888010  0.30737895  -0.00726486  1
  In  In11  1  0.00161755  0.33721344  0.68056072  1
  In  In12  1  0.33973976  0.84955724  0.83778683  1
  In  In13  1  0.54632239  -0.01814227  0.80050151  1
  In  In14  1  0.16627681  0.33836765  0.52164778  1
  In  In15  1  -0.00594905  0.51359672  0.50982270  1
  In  In16  1  0.63470327  0.64466052  -0.00128759  1
  In  In17  1  0.51352994  -0.00534563  0.48807212  1
  In  In18  1  0.02935544  0.66662887  0.69521727  1
  In  In19  1  0.81279090  0.33747816  0.18165963  1
  In  In20  1  0.31103282  0.02708920  -0.00701470  1
  In  In21  1  0.32025562  0.66201854  0.00242584  1
  In  In22  1  0.34471724  0.81393457  0.17135882  1
  In  In23  1  0.19062111  0.02430987  0.85719363  1
  In  In24  1  0.62271506  0.15585468  0.16166509  1
  In  In25  1  0.47652256  0.30662112  0.85483559  1
  In  In26  1  0.34080681  0.01507048  0.65382739  1
  In  In27  1  0.35735735  0.49970648  0.16962014  1
  In  In28  1  0.82495615  0.64555268  0.16708787  1
  In  In29  1  0.48108112  -0.00745091  0.17366711  1
  In  In30  1  0.01333888  0.16573320  0.18536441  1
  In  In31  1  0.50790786  0.66650105  0.50356421  1
  In  In32  1  0.83883709  0.84583937  0.00389441  1
  In  In33  1  0.17182422  0.50902194  0.68497961  1
  In  In34  1  -0.02252227  0.68872006  0.31833794  1
  In  In35  1  0.69502731  0.82803998  0.18339951  1
  In  In36  1  0.82685138  0.68207434  0.47990788  1
  In  In37  1  0.85323145  0.50277080  0.01390589  1
  In  In38  1  0.02021221  0.85211238  0.82640033  1
  In  In39  1  0.82990125  0.16235287  0.65512049  1
  In  In40  1  0.13936502  0.81967334  0.02432470  1
  In  In41  1  0.30532646  0.70555636  0.64172524  1
  In  In42  1  0.31519687  0.48683963  0.83400258  1
  In  In43  1  0.36699388  0.15663235  0.49639561  1
  In  In44  1  0.35684249  0.33113947  0.32973161  1
  In  In45  1  -0.00611668  -0.01558576  0.35060770  1
  In  In46  1  0.64941562  -0.00026888  -0.00242156  1
  In  In47  1  0.34989834  0.48651459  0.48983779  1
  In  In48  1  0.64560010  0.17595371  0.48767663  1
  In  In49  1  0.15626073  0.17927474  0.33932530  1
  In  In50  1  -0.02029559  0.18830380  0.47407153  1
  In  In51  1  0.81538844  0.83379507  0.64756581  1
  In  In52  1  -0.00290134  0.33708503  0.00987879  1
  In  In53  1  0.17448725  0.50933769  -0.00680590  1
  In  In54  1  0.47126404  0.66869645  0.82344368  1
  In  In55  1  -0.01914684  0.51207006  0.17256011  1
  In  In56  1  0.51085084  0.84271941  0.33912143  1
  In  In57  1  0.66806948  0.35335041  0.32264459  1
  In  In58  1  0.51039234  0.48701304  0.64994944  1
  In  In59  1  0.65107548  0.31838978  0.65586181  1
  In  In60  1  0.50867120  0.48258388  0.02647142  1
  In  In61  1  0.83290112  -0.00936152  0.17351871  1
  In  In62  1  0.01298018  -0.01372707  0.66846482  1
  In  In63  1  0.79525442  0.01086495  0.83240921  1
  In  In64  1  0.33085820  0.27586155  0.67156871  1
  In  In65  1  0.82812796  0.16719806  -0.01825663  1
  In  In66  1  0.18730688  0.84334367  0.37022792  1
  In  In67  1  0.33893621  0.16777132  0.18243594  1
  In  In68  1  0.47351581  0.82522083  -0.00164569  1
  In  In69  1  0.00691021  0.49427458  0.86695891  1
  In  In70  1  0.86018404  0.65759714  0.82104632  1
  In  In71  1  0.17133313  0.00091687  0.17907419  1
  Te  Te72  1  0.08005378  0.07467053  0.08345957  1
  Te  Te73  1  0.08248466  0.08032599  0.42787649  1
  Te  Te74  1  0.09445797  0.08334799  0.74989549  1
  Te  Te75  1  0.08036105  0.43219377  0.08946067  1
  Te  Te76  1  0.07802118  0.41639368  0.42639122  1
  Te  Te77  1  0.09624810  0.41118703  0.77269738  1
  Te  Te78  1  0.06044634  0.71765142  0.08857257  1
  Te  Te79  1  0.07841196  0.74473816  0.41805424  1
  Te  Te80  1  0.11082912  0.78014174  0.73578810  1
  Te  Te81  1  0.42054416  0.09173426  0.07648304  1
  Te  Te82  1  0.44512211  0.08734954  0.39097481  1
  Te  Te83  1  0.46555552  0.07598462  0.71231143  1
  Te  Te84  1  0.40544507  0.39437072  0.07905383  1
  Te  Te85  1  0.44401409  0.38268058  0.44061900  1
  Te  Te86  1  0.42579296  0.41765277  0.75514958  1
  Te  Te87  1  0.42952336  0.71441434  0.09476589  1
  Te  Te88  1  0.41680642  0.74727669  0.41253218  1
  Te  Te89  1  0.41289525  0.77229765  0.72966621  1
  Te  Te90  1  0.74443293  0.08415683  0.08267145  1
  Te  Te91  1  0.76100931  0.11354896  0.41920014  1
  Te  Te92  1  0.72488739  0.08850662  0.72971449  1
  Te  Te93  1  0.74476716  0.41520237  0.07175681  1
  Te  Te94  1  0.79462983  0.36496664  0.39782831  1
  Te  Te95  1  0.75611997  0.40541393  0.73500062  1
  Te  Te96  1  0.74054088  0.73491231  0.06303493  1
  Te  Te97  1  0.72158004  0.76663977  0.42278825  1
  Te  Te98  1  0.75435754  0.74684628  0.75822453  1
  Te  Te99  1  0.09430406  0.27248900  0.24395680  1
  Te  Te100  1  0.07235984  0.24023337  0.58743658  1
  Te  Te101  1  0.08268554  0.24188443  0.92666221  1
  Te  Te102  1  0.07882411  0.59041666  0.25826024  1
  Te  Te103  1  0.10127838  0.59445285  0.58146697  1
  Te  Te104  1  0.10327082  0.59806136  0.89938290  1
  Te  Te105  1  0.09041436  0.90505232  0.26424695  1
  Te  Te106  1  0.10840313  0.91414215  0.58040518  1
  Te  Te107  1  0.09280298  0.93081421  0.93265597  1
  Te  Te108  1  0.44259555  0.26037347  0.23322015  1
  Te  Te109  1  0.43848436  0.26133224  0.57454556  1
  Te  Te110  1  0.38768640  0.22163352  0.93525455  1
  Te  Te111  1  0.43950493  0.55151517  0.28304713  1
  Te  Te112  1  0.40669566  0.58932806  0.59926173  1
  Te  Te113  1  0.42060681  0.56901986  0.92690943  1
  Te  Te114  1  0.39365065  0.91572412  0.27079285  1
  Te  Te115  1  0.40407863  0.91680297  0.55759069  1
  Te  Te116  1  0.42685885  0.94581972  0.91486763  1
  Te  Te117  1  0.72785963  0.23007544  0.24202710  1
  Te  Te118  1  0.75727754  0.25602492  0.56306830  1
  Te  Te119  1  0.73479926  0.22832618  0.88861773  1
  Te  Te120  1  0.74479282  0.55860056  0.25597545  1
  Te  Te121  1  0.72923994  0.57643657  0.53667633  1
  Te  Te122  1  0.75647989  0.58187137  0.91437287  1
  Te  Te123  1  0.72731488  0.94359485  0.26560829  1
  Te  Te124  1  0.71865855  0.94698463  0.61850194  1
  Te  Te125  1  0.72835912  0.90049547  0.91307664  1
  Te  Te126  1  0.22722072  0.24426451  0.12011544  1
  Te  Te127  1  0.25474837  0.25912070  0.42589309  1
  Te  Te128  1  0.23144332  0.25242095  0.77350714  1
  Te  Te129  1  0.24585093  0.58421977  0.10631220  1
  Te  Te130  1  0.25608486  0.59168173  0.43466490  1
  Te  Te131  1  0.26195833  0.60725702  0.75634086  1
  Te  Te132  1  0.26217760  0.91446035  0.08545015  1
  Te  Te133  1  0.28340334  0.92192723  0.45343036  1
  Te  Te134  1  0.25152475  0.93355266  0.75016098  1
  Te  Te135  1  0.56131561  0.26170766  0.08126101  1
  Te  Te136  1  0.57085352  0.27115583  0.40087902  1
  Te  Te137  1  0.55878173  0.24844001  0.74724077  1
  Te  Te138  1  0.60227833  0.55660550  0.11810778  1
  Te  Te139  1  0.56168695  0.57968054  0.39663772  1
  Te  Te140  1  0.58572719  0.59897261  0.74115133  1
  Te  Te141  1  0.57569541  0.90050158  0.09041068  1
  Te  Te142  1  0.61665307  0.91532738  0.41378744  1
  Te  Te143  1  0.59212278  0.89283909  0.69306844  1
  Te  Te144  1  0.90761207  0.24215555  0.08975380  1
  Te  Te145  1  0.91941895  0.27725022  0.37362142  1
  Te  Te146  1  0.91296393  0.23940792  0.75749412  1
  Te  Te147  1  0.94340652  0.61774938  0.05911952  1
  Te  Te148  1  0.90845472  0.57983455  0.40404664  1
  Te  Te149  1  0.92941694  0.55041830  0.73711464  1
  Te  Te150  1  0.92826141  0.90414296  0.10271593  1
  Te  Te151  1  0.89432611  0.90314084  0.43223011  1
  Te  Te152  1  0.89962158  0.92090701  0.74932009  1
  Te  Te153  1  0.25367516  0.07987795  0.27593845  1
  Te  Te154  1  0.26121974  0.12750622  0.59764940  1
  Te  Te155  1  0.29840688  0.13636031  0.84483286  1
  Te  Te156  1  0.25704118  0.41925215  0.25639785  1
  Te  Te157  1  0.26569697  0.41785003  0.60508292  1
  Te  Te158  1  0.25084157  0.39940032  0.93153961  1
  Te  Te159  1  0.23789678  0.74915476  0.25565563  1
  Te  Te160  1  0.24324124  0.80429171  0.54902783  1
  Te  Te161  1  0.24639454  0.76585586  0.92323074  1
  Te  Te162  1  0.55796379  0.07622796  0.26964957  1
  Te  Te163  1  0.56132741  0.09878268  0.58555337  1
  Te  Te164  1  0.58022632  0.08438555  0.90091989  1
  Te  Te165  1  0.59995143  0.45284430  0.23530745  1
  Te  Te166  1  0.61529628  0.43088822  0.56576125  1
  Te  Te167  1  0.58510700  0.41642109  0.90682308  1
  Te  Te168  1  0.57768487  0.74948948  0.23793369  1
  Te  Te169  1  0.58264554  0.76839029  0.58375952  1
  Te  Te170  1  0.56958879  0.74927622  0.90652830  1
  Te  Te171  1  0.91572477  0.08234587  0.26538582  1
  Te  Te172  1  0.92796404  0.07305656  0.57538019  1
  Te  Te173  1  0.90975612  0.05234126  0.92569740  1
  Te  Te174  1  0.91985931  0.40656021  0.25952308  1
  Te  Te175  1  0.91282051  0.40507934  0.57698251  1
  Te  Te176  1  0.89724448  0.39755575  0.91207823  1
  Te  Te177  1  0.87505059  0.76196038  0.24206833  1
  Te  Te178  1  0.91903737  0.72776552  0.59904543  1
  Te  Te179  1  0.92755451  0.76193530  0.90637895  1
