# generated using pymatgen
data_In2Te3
_symmetry_space_group_name_H-M   'P 1'
_cell_length_a   19.00488011
_cell_length_b   18.99200185
_cell_length_c   19.00834127
_cell_angle_alpha   89.84257816
_cell_angle_beta   90.01376530
_cell_angle_gamma   89.79763632
_symmetry_Int_Tables_number   1
_chemical_formula_structural   In2Te3
_chemical_formula_sum   'In72 Te108'
_cell_volume   6860.81544658
_cell_formula_units_Z   36
loop_
 _symmetry_equiv_pos_site_id
 _symmetry_equiv_pos_as_xyz
  1  'x, y, z'
loop_
 _atom_site_type_symbol
 _atom_site_label
 _atom_site_symmetry_multiplicity
 _atom_site_fract_x
 _atom_site_fract_y
 _atom_site_fract_z
 _atom_site_occupancy
  In  In0  1  0.82556315  0.35849171  0.84664880  1
  In  In1  1  0.45125706  0.50284786  0.36161624  1
  In  In2  1  0.64846329  0.80905107  0.82439814  1
  In  In3  1  0.17922486  0.15595212  0.31517685  1
  In  In4  1  0.34775578  0.33699540  -0.00935551  1
  In  In5  1  0.00366035  0.48946766  0.50380464  1
  In  In6  1  0.65941561  0.51308671  0.48241234  1
  In  In7  1  0.87038966  0.14473319  0.66858724  1
  In  In8  1  0.33706917  0.83920049  0.16489455  1
  In  In9  1  0.00155302  0.01833165  0.63560439  1
  In  In10  1  0.19758975  0.14934799  0.66476297  1
  In  In11  1  0.67297535  0.66522831  0.70071556  1
  In  In12  1  0.20047220  0.66319162  0.83099501  1
  In  In13  1  0.81194440  0.68272194  0.18329182  1
  In  In14  1  0.46886110  0.80435322  0.66832054  1
  In  In15  1  0.85412881  -0.00304654  0.84151012  1
  In  In16  1  0.33162438  0.51007186  0.15918395  1
  In  In17  1  0.81080477  0.16740980  0.33913336  1
  In  In18  1  0.66495599  0.83851826  0.49269078  1
  In  In19  1  0.34282755  0.00332916  0.33736708  1
  In  In20  1  -0.01477135  0.17905547  0.49247545  1
  In  In21  1  0.16127353  0.17213216  0.01065895  1
  In  In22  1  0.47556330  0.19244260  0.64997415  1
  In  In23  1  0.85690866  0.65066996  0.50071525  1
  In  In24  1  0.17078725  0.65465422  0.15844109  1
  In  In25  1  0.16887840  0.01301912  0.49804389  1
  In  In26  1  0.67908492  0.16250881  0.83557617  1
  In  In27  1  0.63034086  0.35041049  0.04543738  1
  In  In28  1  0.15104831  0.49895830  0.65886022  1
  In  In29  1  0.52705820  0.49739596  0.64490986  1
  In  In30  1  0.66750297  0.51217001  0.17186749  1
  In  In31  1  0.48252209  0.67591261  0.49646438  1
  In  In32  1  0.81240412  0.80694812  -0.00347378  1
  In  In33  1  0.50738432  0.82551749  -0.01279224  1
  In  In34  1  0.16573669  0.53744258  0.35334481  1
  In  In35  1  -0.01698686  0.16230479  0.18943509  1
  In  In36  1  0.84074239  0.15440363  0.00532017  1
  In  In37  1  0.65478328  0.32766224  0.30752358  1
  In  In38  1  0.16307311  0.79746565  0.37517471  1
  In  In39  1  -0.00998363  0.33848469  0.65787675  1
  In  In40  1  0.52601253  0.37143579  0.85681589  1
  In  In41  1  0.18444518  0.31447084  0.48063402  1
  In  In42  1  0.83331102  0.83906902  0.36539924  1
  In  In43  1  0.20267156  0.81107419  0.62495597  1
  In  In44  1  0.76477200  0.01593667  0.21011029  1
  In  In45  1  0.85743939  0.50159446  0.67425091  1
  In  In46  1  0.18597653  0.35357315  0.16038397  1
  In  In47  1  0.01648097  0.82047221  0.80736806  1
  In  In48  1  -0.00598838  0.35194925  -0.01593593  1
  In  In49  1  -0.02740725  0.86308424  0.18973538  1
  In  In50  1  0.83821663  0.58993135  0.86305679  1
  In  In51  1  0.45769932  0.34147499  0.18354893  1
  In  In52  1  0.64190586  0.16837627  0.48319283  1
  In  In53  1  -0.04490850  0.49181373  0.19840738  1
  In  In54  1  0.16116956  -0.03564254  0.19048335  1
  In  In55  1  0.18893772  0.00659375  0.82684066  1
  In  In56  1  0.17302691  0.49318283  -0.00322165  1
  In  In57  1  0.81950832  0.81201445  0.62793204  1
  In  In58  1  -0.01798615  -0.00766031  0.00933261  1
  In  In59  1  0.51380136  0.68544011  0.19455342  1
  In  In60  1  0.51599701  0.00820935  0.82135800  1
  In  In61  1  0.50364658  0.00646777  0.47753392  1
  In  In62  1  0.31581042  0.34051592  0.65451685  1
  In  In63  1  0.34781178  0.00293819  0.65253966  1
  In  In64  1  0.00165221  0.65999773  0.02175698  1
  In  In65  1  0.36748137  0.01074717  0.00429250  1
  In  In66  1  0.35378551  0.49745038  0.83178166  1
  In  In67  1  0.16159816  0.81615737  -0.01275333  1
  In  In68  1  0.68494567  0.32668753  0.65636792  1
  In  In69  1  0.50889415  0.01183381  0.19046629  1
  In  In70  1  0.66312378  -0.00011549  0.01248472  1
  In  In71  1  0.80404210  0.30576538  0.45988576  1
  Te  Te72  1  0.07552970  0.06442907  0.10390333  1
  Te  Te73  1  0.07708417  0.09115252  0.40653372  1
  Te  Te74  1  0.08729730  0.08454079  0.74421074  1
  Te  Te75  1  0.07266183  0.43489944  0.09460279  1
  Te  Te76  1  0.09388388  0.41272995  0.40776069  1
  Te  Te77  1  0.06607490  0.42205726  0.74929390  1
  Te  Te78  1  0.06862505  0.77387520  0.10162555  1
  Te  Te79  1  0.07758295  0.71786153  0.46399373  1
  Te  Te80  1  0.11368888  0.73876270  0.72863929  1
  Te  Te81  1  0.43518632  0.09986394  0.09702619  1
  Te  Te82  1  0.43707098  0.10538856  0.38819167  1
  Te  Te83  1  0.41321224  0.09599894  0.75137918  1
  Te  Te84  1  0.42627521  0.44157679  0.06466846  1
  Te  Te85  1  0.39541969  0.41837938  0.46659137  1
  Te  Te86  1  0.43496777  0.40493693  0.73395857  1
  Te  Te87  1  0.42081826  0.74568924  0.08229938  1
  Te  Te88  1  0.36905594  0.73797100  0.42238522  1
  Te  Te89  1  0.45688728  0.70511648  0.77778247  1
  Te  Te90  1  0.72817436  0.10943638  0.09321355  1
  Te  Te91  1  0.71718807  0.06946137  0.40204786  1
  Te  Te92  1  0.75995771  0.07132544  0.74667729  1
  Te  Te93  1  0.74924210  0.40417408  0.11140328  1
  Te  Te94  1  0.74132283  0.42539255  0.39015306  1
  Te  Te95  1  0.74006623  0.43342873  0.74689399  1
  Te  Te96  1  0.71318745  0.75010270  0.09164764  1
  Te  Te97  1  0.74854324  0.72961017  0.42789765  1
  Te  Te98  1  0.77848295  0.75586127  0.76229072  1
  Te  Te99  1  0.09597141  0.25395646  0.23442568  1
  Te  Te100  1  0.08718545  0.24659268  0.58332076  1
  Te  Te101  1  0.09158077  0.26463766  0.92152020  1
  Te  Te102  1  0.06999797  0.58708313  0.24597071  1
  Te  Te103  1  0.08704699  0.59827909  0.56416539  1
  Te  Te104  1  0.09262569  0.59607402  0.91961183  1
  Te  Te105  1  0.07428009  0.90310407  0.29521204  1
  Te  Te106  1  0.09394615  0.91218370  0.58061176  1
  Te  Te107  1  0.08116612  0.92601791  0.90869227  1
  Te  Te108  1  0.40027975  0.25200586  0.28444836  1
  Te  Te109  1  0.40708806  0.28100601  0.55078751  1
  Te  Te110  1  0.44427784  0.26367719  0.90943457  1
  Te  Te111  1  0.39906663  0.60138192  0.25678943  1
  Te  Te112  1  0.41889857  0.57716029  0.58576404  1
  Te  Te113  1  0.44574038  0.59605651  0.88853766  1
  Te  Te114  1  0.43001378  0.90233103  0.26372047  1
  Te  Te115  1  0.42226260  0.90593474  0.56579187  1
  Te  Te116  1  0.42292036  0.91642214  0.89834399  1
  Te  Te117  1  0.77032487  0.26670542  0.23532523  1
  Te  Te118  1  0.76174536  0.21734941  0.58198262  1
  Te  Te119  1  0.75125472  0.25577782  0.92974245  1
  Te  Te120  1  0.75315813  0.57932495  0.26949455  1
  Te  Te121  1  0.74528180  0.57612615  0.59195206  1
  Te  Te122  1  0.70835205  0.59778023  0.92414208  1
  Te  Te123  1  0.72891160  0.88091057  0.26394755  1
  Te  Te124  1  0.74134883  0.92599232  0.58280734  1
  Te  Te125  1  0.74085729  0.91922364  0.90889066  1
  Te  Te126  1  0.26742145  0.25030368  0.08679706  1
  Te  Te127  1  0.27429477  0.25469347  0.37626914  1
  Te  Te128  1  0.25087572  0.25232442  0.75086459  1
  Te  Te129  1  0.26433777  0.59931428  0.05413582  1
  Te  Te130  1  0.26276348  0.62404599  0.42590834  1
  Te  Te131  1  0.26524417  0.57056885  0.73204466  1
  Te  Te132  1  0.25110943  0.92061139  0.06685710  1
  Te  Te133  1  0.25297358  0.91403380  0.42060661  1
  Te  Te134  1  0.25662926  0.91132960  0.73113133  1
  Te  Te135  1  0.55297275  0.24995255  0.11692548  1
  Te  Te136  1  0.56141154  0.25238285  0.39360183  1
  Te  Te137  1  0.59145011  0.24730675  0.74482263  1
  Te  Te138  1  0.55390288  0.57674231  0.10523597  1
  Te  Te139  1  0.56838158  0.59873397  0.39837886  1
  Te  Te140  1  0.56269577  0.58432268  0.76487107  1
  Te  Te141  1  0.57347574  0.91169236  0.09249931  1
  Te  Te142  1  0.55890810  0.89028832  0.40662773  1
  Te  Te143  1  0.57348896  0.90176187  0.73165971  1
  Te  Te144  1  0.92754392  0.25185414  0.08071880  1
  Te  Te145  1  0.93471664  0.27371386  0.38426600  1
  Te  Te146  1  0.90620441  0.26011411  0.75793635  1
  Te  Te147  1  0.89346119  0.58558194  0.09438424  1
  Te  Te148  1  0.91996947  0.55916397  0.40666402  1
  Te  Te149  1  0.93228946  0.59724512  0.75306600  1
  Te  Te150  1  0.87547045  0.91884093  0.08610257  1
  Te  Te151  1  0.89732537  0.91609467  0.47036150  1
  Te  Te152  1  0.92891323  0.92085267  0.73396112  1
  Te  Te153  1  0.26336921  0.06852534  0.22441547  1
  Te  Te154  1  0.28190698  0.09783303  0.55229134  1
  Te  Te155  1  0.26122781  0.09370676  0.92519368  1
  Te  Te156  1  0.24980411  0.44071221  0.26437579  1
  Te  Te157  1  0.24367867  0.43381694  0.55541583  1
  Te  Te158  1  0.24930773  0.40896628  0.89939246  1
  Te  Te159  1  0.23946345  0.75524211  0.24543667  1
  Te  Te160  1  0.28905847  0.71151063  0.55532403  1
  Te  Te161  1  0.27055287  0.76698868  0.90569376  1
  Te  Te162  1  0.62870512  0.06449276  0.26181166  1
  Te  Te163  1  0.56869045  0.08976556  0.59032447  1
  Te  Te164  1  0.57953253  0.09462932  0.92773295  1
  Te  Te165  1  0.55007531  0.43257014  0.26455505  1
  Te  Te166  1  0.59618110  0.39485927  0.55512470  1
  Te  Te167  1  0.62765175  0.44734335  0.93168995  1
  Te  Te168  1  0.63705222  0.75763957  0.23385374  1
  Te  Te169  1  0.59065340  0.73620361  0.59323185  1
  Te  Te170  1  0.60602250  0.72164823  0.93712293  1
  Te  Te171  1  0.90032391  0.06522766  0.26816854  1
  Te  Te172  1  0.89526938  0.06080644  0.53040807  1
  Te  Te173  1  0.94278206  0.09949662  0.90807133  1
  Te  Te174  1  0.90521252  0.37193265  0.26446761  1
  Te  Te175  1  0.88575232  0.39443981  0.56339407  1
  Te  Te176  1  0.90347198  0.45868344  0.92598443  1
  Te  Te177  1  0.91688645  0.75011138  0.27059622  1
  Te  Te178  1  0.94072002  0.74868677  0.57349205  1
  Te  Te179  1  0.93691917  0.75949164  0.92422844  1
