# generated using pymatgen
data_In2Te3
_symmetry_space_group_name_H-M   'P 1'
_cell_length_a   18.91784913
_cell_length_b   18.93387694
_cell_length_c   18.93107073
_cell_angle_alpha   90.13877028
_cell_angle_beta   90.08988142
_cell_angle_gamma   90.01587448
_symmetry_Int_Tables_number   1
_chemical_formula_structural   In2Te3
_chemical_formula_sum   'In72 Te108'
_cell_volume   6780.85817071
_cell_formula_units_Z   36
loop_
 _symmetry_equiv_pos_site_id
 _symmetry_equiv_pos_as_xyz
  1  'x, y, z'
loop_
 _atom_site_type_symbol
 _atom_site_label
 _atom_site_symmetry_multiplicity
 _atom_site_fract_x
 _atom_site_fract_y
 _atom_site_fract_z
 _atom_site_occupancy
  In  In0  1  -0.00755451  0.48981195  0.14711088  1
  In  In1  1  -0.02336584  0.83126728  0.14984537  1
  In  In2  1  0.50572870  0.84814384  0.00563881  1
  In  In3  1  0.81695743  0.01310602  0.51510585  1
  In  In4  1  0.34756335  0.11496181  0.13916966  1
  In  In5  1  0.16589648  0.84873869  0.35059996  1
  In  In6  1  0.69655613  0.20359270  0.50757194  1
  In  In7  1  0.83096034  0.49970022  0.65112428  1
  In  In8  1  0.66134026  0.01499630  0.00195232  1
  In  In9  1  -0.00959800  0.33515970  -0.03379170  1
  In  In10  1  0.18121709  0.69035823  0.87155804  1
  In  In11  1  0.69898381  0.82185856  0.83472937  1
  In  In12  1  0.65388806  0.82510699  0.51271018  1
  In  In13  1  0.15135596  0.15251609  0.01899827  1
  In  In14  1  -0.02884475  0.48554806  0.49589054  1
  In  In15  1  -0.04800849  0.66280879  0.02434639  1
  In  In16  1  0.33899235  0.63841677  0.65956908  1
  In  In17  1  -0.01432655  0.84313649  0.82236477  1
  In  In18  1  0.36013541  0.85639478  0.85653329  1
  In  In19  1  0.82618811  0.32921513  0.15866803  1
  In  In20  1  0.00439499  0.00333723  0.33671997  1
  In  In21  1  0.33800976  0.31480664  0.31575753  1
  In  In22  1  -0.00276472  0.18058120  0.49791690  1
  In  In23  1  0.52132753  0.48997799  0.02244946  1
  In  In24  1  0.83114808  0.17521760  -0.02008032  1
  In  In25  1  0.84908748  0.83022125  0.30501406  1
  In  In26  1  0.31543228  0.68888788  -0.02082388  1
  In  In27  1  0.48919556  0.00340058  0.51030455  1
  In  In28  1  0.68731702  0.50709953  0.17160271  1
  In  In29  1  0.69168452  -0.01489090  0.31005089  1
  In  In30  1  0.15634584  0.47851302  0.66888095  1
  In  In31  1  0.33795374  0.49786820  0.83306765  1
  In  In32  1  0.64619414  -0.00199519  0.68317816  1
  In  In33  1  0.84089982  0.66203293  0.49884320  1
  In  In34  1  -0.01479163  0.33277934  0.33282174  1
  In  In35  1  0.37253763  0.51070692  0.18753705  1
  In  In36  1  0.51831934  0.50556502  0.35919360  1
  In  In37  1  0.53114379  0.50067363  0.65161908  1
  In  In38  1  0.14968830  0.51457424  0.34312566  1
  In  In39  1  0.14982370  0.83387880  0.67605072  1
  In  In40  1  0.50405031  0.31921610  0.82425402  1
  In  In41  1  0.16649068  0.69457987  0.16003449  1
  In  In42  1  0.49629936  0.31750608  0.15456799  1
  In  In43  1  0.65653009  0.66218376  0.33808444  1
  In  In44  1  0.49355766  0.82846192  0.33364397  1
  In  In45  1  0.14354571  0.35744821  0.81072257  1
  In  In46  1  0.50908905  0.66490039  0.18722281  1
  In  In47  1  -0.03358599  0.18869181  0.80073342  1
  In  In48  1  0.18209152  0.15554774  0.33514734  1
  In  In49  1  0.68136077  0.35631713  0.34195343  1
  In  In50  1  0.32181147  0.32916356  0.64337097  1
  In  In51  1  0.15019500  -0.00024453  0.83780172  1
  In  In52  1  0.51719185  0.83988893  0.67521721  1
  In  In53  1  0.64500863  0.16991163  0.16820418  1
  In  In54  1  0.16409254  0.68237798  0.49552579  1
  In  In55  1  0.32049411  0.15957623  0.50206713  1
  In  In56  1  0.50680616  0.15607850  0.69378159  1
  In  In57  1  0.01175516  0.83063254  0.50363709  1
  In  In58  1  0.15493250  0.16650436  0.64912556  1
  In  In59  1  0.34840330  0.15356683  0.82832274  1
  In  In60  1  0.18672963  0.50383165  -0.00213931  1
  In  In61  1  -0.03323314  0.52502049  0.82752095  1
  In  In62  1  0.51637543  0.34667273  0.50063521  1
  In  In63  1  0.84683717  -0.00208955  0.83886953  1
  In  In64  1  -0.02484223  0.65260471  0.66387752  1
  In  In65  1  0.51204873  0.66967952  0.83986752  1
  In  In66  1  0.32951717  0.84538505  0.16408036  1
  In  In67  1  -0.02212448  0.11702658  0.15498453  1
  In  In68  1  0.66500416  0.17473907  0.84466996  1
  In  In69  1  0.33841245  -0.01529455  0.33630798  1
  In  In70  1  0.69851260  0.51880185  0.84756860  1
  In  In71  1  0.16737703  0.31464822  0.18066178  1
  Te  Te72  1  0.08399448  0.04292441  0.08821110  1
  Te  Te73  1  0.09617539  0.07735386  0.43166422  1
  Te  Te74  1  0.06689610  0.08790254  0.74368835  1
  Te  Te75  1  0.09624884  0.40177915  0.07465246  1
  Te  Te76  1  0.08009640  0.40691453  0.42497883  1
  Te  Te77  1  0.02955990  0.42047215  0.73319861  1
  Te  Te78  1  0.07492431  0.75307925  0.05930152  1
  Te  Te79  1  0.06621197  0.74144826  0.39438484  1
  Te  Te80  1  0.07561810  0.72654108  0.75827990  1
  Te  Te81  1  0.45801302  0.08096006  0.04716425  1
  Te  Te82  1  0.41884963  0.09261704  0.40877914  1
  Te  Te83  1  0.41365114  0.05452804  0.74115068  1
  Te  Te84  1  0.40359428  0.40934119  0.07690948  1
  Te  Te85  1  0.41138838  0.41102386  0.41062507  1
  Te  Te86  1  0.41860671  0.41805645  0.73277233  1
  Te  Te87  1  0.41998414  0.74003746  0.08640944  1
  Te  Te88  1  0.43599455  0.72093078  0.41044456  1
  Te  Te89  1  0.39629131  0.73662793  0.76847364  1
  Te  Te90  1  0.75718089  0.10030306  0.08582138  1
  Te  Te91  1  0.73943338  0.09192108  0.41246280  1
  Te  Te92  1  0.74715811  0.08167053  0.75853620  1
  Te  Te93  1  0.71802050  0.39330685  0.07989037  1
  Te  Te94  1  0.79446556  0.40590533  0.41929189  1
  Te  Te95  1  0.76040673  0.41902951  0.75425942  1
  Te  Te96  1  0.81165334  0.72353964  0.03822225  1
  Te  Te97  1  0.75359114  0.76688191  0.41119361  1
  Te  Te98  1  0.75297179  0.72957811  0.73615765  1
  Te  Te99  1  0.07195914  0.22405854  0.25413936  1
  Te  Te100  1  0.07163935  0.27020553  0.58950982  1
  Te  Te101  1  0.08959541  0.24160569  0.90069004  1
  Te  Te102  1  0.08176465  0.58437665  0.22600749  1
  Te  Te103  1  0.07744999  0.58073584  0.57685442  1
  Te  Te104  1  0.08076959  0.57690122  0.92077339  1
  Te  Te105  1  0.07608307  0.90714004  0.24415906  1
  Te  Te106  1  0.08414572  0.92750798  0.58527071  1
  Te  Te107  1  0.05746898  0.92374802  0.92276675  1
  Te  Te108  1  0.41869296  0.21656440  0.23677861  1
  Te  Te109  1  0.43157736  0.24112603  0.58441318  1
  Te  Te110  1  0.42138176  0.24487569  0.91831274  1
  Te  Te111  1  0.41685916  0.61459534  0.30031391  1
  Te  Te112  1  0.43619924  0.57825457  0.56892507  1
  Te  Te113  1  0.42051628  0.57851480  0.93260745  1
  Te  Te114  1  0.43607812  0.92782890  0.23310990  1
  Te  Te115  1  0.41850653  0.89974808  0.58461472  1
  Te  Te116  1  0.40482618  0.95697145  0.96590335  1
  Te  Te117  1  0.74477456  0.24742794  0.25569348  1
  Te  Te118  1  0.80364979  0.22477760  0.61088278  1
  Te  Te119  1  0.74298036  0.27490045  0.92064546  1
  Te  Te120  1  0.76333657  0.60044178  0.25503754  1
  Te  Te121  1  0.73822596  0.58044938  0.56814197  1
  Te  Te122  1  0.75899455  0.59672390  0.96107526  1
  Te  Te123  1  0.77534771  0.91261758  0.19946627  1
  Te  Te124  1  0.74125367  0.91226915  0.60219572  1
  Te  Te125  1  0.76377432  0.91996719  0.93760183  1
  Te  Te126  1  0.25794500  0.23439819  0.09076093  1
  Te  Te127  1  0.24289879  0.26341503  0.42298391  1
  Te  Te128  1  0.24818416  0.25621469  0.75215654  1
  Te  Te129  1  0.26384222  0.59148506  0.09562292  1
  Te  Te130  1  0.24919932  0.59107661  0.41780426  1
  Te  Te131  1  0.23033201  0.57985185  0.76366375  1
  Te  Te132  1  0.27051961  0.92668242  0.05713854  1
  Te  Te133  1  0.26379790  0.91190404  0.43849003  1
  Te  Te134  1  0.24962433  0.91010256  0.76332637  1
  Te  Te135  1  0.59982252  0.26573919  0.06327053  1
  Te  Te136  1  0.58879325  0.25262784  0.40699365  1
  Te  Te137  1  0.60815283  0.26183196  0.73025481  1
  Te  Te138  1  0.60289363  0.60209779  0.08534912  1
  Te  Te139  1  0.62259468  0.56540907  0.44573476  1
  Te  Te140  1  0.60528562  0.59366178  0.74996677  1
  Te  Te141  1  0.60560130  0.91172341  0.09247636  1
  Te  Te142  1  0.58897870  0.92788609  0.41953536  1
  Te  Te143  1  0.58020757  0.91319037  0.79022282  1
  Te  Te144  1  0.93797581  0.25387498  0.08436947  1
  Te  Te145  1  0.90075978  0.23331657  0.39896805  1
  Te  Te146  1  0.85806079  0.27382039  0.74956814  1
  Te  Te147  1  0.88404255  0.52813478  0.04839573  1
  Te  Te148  1  0.93453514  0.59560392  0.40804614  1
  Te  Te149  1  0.86326699  0.62539548  0.76573233  1
  Te  Te150  1  0.87924978  0.92380138  0.09217551  1
  Te  Te151  1  0.90497530  0.91944143  0.42479269  1
  Te  Te152  1  0.90847632  0.92398557  0.72820409  1
  Te  Te153  1  0.24558168  0.05796713  0.23940924  1
  Te  Te154  1  0.26228169  0.07658885  0.60592883  1
  Te  Te155  1  0.24599954  0.08496516  0.91968973  1
  Te  Te156  1  0.24969486  0.42426237  0.24734537  1
  Te  Te157  1  0.25629188  0.43695152  0.57029270  1
  Te  Te158  1  0.25483929  0.39882289  0.91188639  1
  Te  Te159  1  0.25663239  0.75900811  0.26370444  1
  Te  Te160  1  0.25289399  0.74861721  0.59875770  1
  Te  Te161  1  0.23716273  0.81785936  0.94930032  1
  Te  Te162  1  0.58374619  0.06154155  0.24730406  1
  Te  Te163  1  0.59881104  0.09800480  0.57593397  1
  Te  Te164  1  0.56338600  0.09613322  0.92191269  1
  Te  Te165  1  0.57084115  0.42309410  0.24331600  1
  Te  Te166  1  0.61952408  0.40041634  0.58942488  1
  Te  Te167  1  0.58036895  0.43115903  0.89790014  1
  Te  Te168  1  0.60306006  0.76941061  0.24369313  1
  Te  Te169  1  0.57021201  0.73389459  0.59071902  1
  Te  Te170  1  0.59865489  0.75175218  0.93085075  1
  Te  Te171  1  0.89692001  0.07595829  0.26816770  1
  Te  Te172  1  0.90694156  0.10304387  0.59348040  1
  Te  Te173  1  0.93842927  0.09206442  0.91672588  1
  Te  Te174  1  0.90064136  0.42784885  0.25057849  1
  Te  Te175  1  0.87125087  0.38850897  0.55376028  1
  Te  Te176  1  0.88954407  0.42753832  0.91173094  1
  Te  Te177  1  0.90633584  0.72150020  0.22302413  1
  Te  Te178  1  0.90638197  0.76503681  0.59093819  1
  Te  Te179  1  0.90364553  0.75762859  0.91549201  1
