# generated using pymatgen
data_In2Te3
_symmetry_space_group_name_H-M   'P 1'
_cell_length_a   18.79153277
_cell_length_b   18.77980509
_cell_length_c   18.78488124
_cell_angle_alpha   90.15822203
_cell_angle_beta   90.05416633
_cell_angle_gamma   90.04887687
_symmetry_Int_Tables_number   1
_chemical_formula_structural   In2Te3
_chemical_formula_sum   'In72 Te108'
_cell_volume   6629.17877131
_cell_formula_units_Z   36
loop_
 _symmetry_equiv_pos_site_id
 _symmetry_equiv_pos_as_xyz
  1  'x, y, z'
loop_
 _atom_site_type_symbol
 _atom_site_label
 _atom_site_symmetry_multiplicity
 _atom_site_fract_x
 _atom_site_fract_y
 _atom_site_fract_z
 _atom_site_occupancy
  In  In0  1  -0.00241388  0.14224553  0.50979050  1
  In  In1  1  0.14889603  0.16239881  0.34715264  1
  In  In2  1  0.84443148  0.30789634  0.49531429  1
  In  In3  1  0.67435820  0.52470930  0.17421989  1
  In  In4  1  0.83530147  0.67492870  0.83270222  1
  In  In5  1  -0.00852096  0.32445214  0.35053934  1
  In  In6  1  0.32265579  0.17980879  0.16271767  1
  In  In7  1  0.83846230  0.68445777  0.49402137  1
  In  In8  1  0.51177293  0.16673006  -0.02438245  1
  In  In9  1  0.18409223  0.34330330  0.50556185  1
  In  In10  1  0.31753758  0.00989238  -0.01771011  1
  In  In11  1  0.03282461  0.82241330  0.49930226  1
  In  In12  1  0.50274259  0.52101754  0.34651474  1
  In  In13  1  0.32013048  0.50754104  0.49330802  1
  In  In14  1  0.34824176  0.80250167  0.16023460  1
  In  In15  1  -0.01028740  0.14354574  0.17296141  1
  In  In16  1  0.16134465  0.52939545  0.31924953  1
  In  In17  1  0.32540688  0.65881359  0.33313198  1
  In  In18  1  0.14245857  -0.01624630  0.15963283  1
  In  In19  1  0.31363859  0.52027597  0.16557511  1
  In  In20  1  0.69166591  0.83369185  0.48696053  1
  In  In21  1  0.50916324  0.16603024  0.31970922  1
  In  In22  1  -0.00596339  0.31584186  0.67245996  1
  In  In23  1  0.49780829  0.48093345  0.66986000  1
  In  In24  1  0.85384213  0.13821728  -0.01344343  1
  In  In25  1  0.17145561  0.51585123  0.00841313  1
  In  In26  1  0.69692983  0.84801999  0.18982133  1
  In  In27  1  0.49114291  0.31496681  0.51001285  1
  In  In28  1  -0.01168453  0.00140830  0.33163964  1
  In  In29  1  0.69286173  0.15521882  0.14531489  1
  In  In30  1  -0.01584687  0.51471011  0.50897291  1
  In  In31  1  0.47609405  0.84628096  -0.00345986  1
  In  In32  1  0.01756940  0.70593786  0.70275192  1
  In  In33  1  0.01032464  0.32746514  -0.01679280  1
  In  In34  1  0.16313609  0.11620177  0.69536481  1
  In  In35  1  0.00306953  0.54040229  0.17617023  1
  In  In36  1  0.46125378  0.64669245  0.84379394  1
  In  In37  1  0.17097539  0.30949269  0.84024744  1
  In  In38  1  0.83961822  0.52473738  0.34793788  1
  In  In39  1  0.31832364  -0.01299095  0.35478608  1
  In  In40  1  0.50367775  0.32809691  0.82929257  1
  In  In41  1  0.32244312  0.68772916  0.67684108  1
  In  In42  1  0.67660277  0.49697318  0.81915064  1
  In  In43  1  0.66003095  0.32656081  0.33584561  1
  In  In44  1  -0.00675962  0.50644370  0.82993429  1
  In  In45  1  0.83355144  0.33620270  0.83094846  1
  In  In46  1  0.31158100  0.34144053  0.02132330  1
  In  In47  1  0.64805266  0.33951718  -0.00597422  1
  In  In48  1  0.18063470  0.52175836  0.66852569  1
  In  In49  1  0.66671654  0.00774331  0.65350938  1
  In  In50  1  0.46630120  0.35226149  0.15279564  1
  In  In51  1  0.81518585  0.34111795  0.17081866  1
  In  In52  1  -0.02962224  0.81666554  0.17562475  1
  In  In53  1  0.48173184  0.82974446  0.66219407  1
  In  In54  1  0.15973355  0.84618228  -0.03514067  1
  In  In55  1  0.32617944  0.85102502  0.52734754  1
  In  In56  1  0.85298996  0.14756391  0.66485509  1
  In  In57  1  0.50982056  0.64913538  0.47639718  1
  In  In58  1  0.67475887  0.83879532  0.83785686  1
  In  In59  1  0.68601965  0.67954022  0.67116897  1
  In  In60  1  0.52155731  0.82280649  0.32965205  1
  In  In61  1  0.63942878  0.51568294  0.49688454  1
  In  In62  1  0.83708566  0.00138938  0.48710414  1
  In  In63  1  0.00127817  0.67430099  0.00735619  1
  In  In64  1  0.86247770  0.86159691  -0.01712662  1
  In  In65  1  0.49454936  -0.01435697  0.52611756  1
  In  In66  1  0.66026646  0.14999298  0.82943765  1
  In  In67  1  0.33005363  0.16416814  0.52918799  1
  In  In68  1  0.51380263  -0.01340639  0.15257827  1
  In  In69  1  0.66668224  0.68534833  0.01187535  1
  In  In70  1  0.33580091  0.14093707  0.81210215  1
  In  In71  1  0.19704205  0.34181921  0.15844042  1
  Te  Te72  1  0.07052532  0.07550069  0.06979474  1
  Te  Te73  1  0.09526821  0.05025260  0.43347287  1
  Te  Te74  1  0.04219165  0.04520315  0.74471072  1
  Te  Te75  1  0.07810925  0.42262468  0.09155801  1
  Te  Te76  1  0.08446709  0.42703958  0.42165250  1
  Te  Te77  1  0.08680394  0.41418333  0.74747962  1
  Te  Te78  1  0.08841679  0.77413849  0.07940366  1
  Te  Te79  1  0.07467948  0.71513784  0.40324885  1
  Te  Te80  1  0.13800094  0.76542180  0.78498446  1
  Te  Te81  1  0.42023677  0.08997534  0.08551796  1
  Te  Te82  1  0.42051344  0.08266379  0.41721038  1
  Te  Te83  1  0.43325075  0.05377294  0.74718586  1
  Te  Te84  1  0.41156367  0.45526650  0.05624748  1
  Te  Te85  1  0.41893429  0.41688880  0.42056072  1
  Te  Te86  1  0.40686721  0.42321902  0.76893444  1
  Te  Te87  1  0.40430198  0.72279942  0.04521259  1
  Te  Te88  1  0.41308746  0.76029166  0.42663476  1
  Te  Te89  1  0.40031946  0.77240054  0.77886682  1
  Te  Te90  1  0.75817557  0.05175825  0.06227985  1
  Te  Te91  1  0.73265838  0.04565470  0.39402972  1
  Te  Te92  1  0.76466863  0.06443824  0.75838661  1
  Te  Te93  1  0.74387593  0.43022724  0.07152613  1
  Te  Te94  1  0.75557778  0.41623297  0.41783995  1
  Te  Te95  1  0.75013497  0.40485147  0.73147297  1
  Te  Te96  1  0.77231110  0.77336476  0.07563302  1
  Te  Te97  1  0.76641192  0.75570948  0.38144975  1
  Te  Te98  1  0.77689626  0.78091522  0.73984751  1
  Te  Te99  1  0.08510339  0.25592290  0.24344984  1
  Te  Te100  1  0.09007557  0.24461029  0.57793999  1
  Te  Te101  1  0.07241103  0.22025301  0.90367339  1
  Te  Te102  1  0.09409670  0.63849871  0.24209143  1
  Te  Te103  1  0.07195009  0.60230854  0.59948261  1
  Te  Te104  1  0.08833970  0.59579731  0.90747737  1
  Te  Te105  1  0.07650358  0.89649521  0.26278913  1
  Te  Te106  1  0.10955527  0.89309482  0.61288801  1
  Te  Te107  1  0.06440413  0.94427035  0.90285329  1
  Te  Te108  1  0.40568229  0.26247683  0.26157800  1
  Te  Te109  1  0.41815497  0.24394952  0.61650468  1
  Te  Te110  1  0.39820890  0.25215451  0.92411629  1
  Te  Te111  1  0.42777314  0.59708960  0.23827169  1
  Te  Te112  1  0.41615269  0.59298242  0.58595397  1
  Te  Te113  1  0.38777551  0.58790391  0.95616253  1
  Te  Te114  1  0.41763083  0.91899357  0.25147747  1
  Te  Te115  1  0.38574059  0.95597480  0.63462171  1
  Te  Te116  1  0.41468676  0.93651304  0.89604935  1
  Te  Te117  1  0.75760270  0.23434034  0.26267590  1
  Te  Te118  1  0.75935650  0.22298189  0.57922278  1
  Te  Te119  1  0.74860742  0.24389834  0.92966358  1
  Te  Te120  1  0.79132832  0.60380604  0.22820034  1
  Te  Te121  1  0.75468470  0.58330070  0.57415774  1
  Te  Te122  1  0.74760838  0.58787928  0.91928486  1
  Te  Te123  1  0.76875312  0.94316295  0.28351294  1
  Te  Te124  1  0.76793402  0.91075648  0.59226340  1
  Te  Te125  1  0.75101126  0.93845597  0.91803229  1
  Te  Te126  1  0.21859522  0.22409413  0.06070441  1
  Te  Te127  1  0.25748446  0.24627219  0.41452545  1
  Te  Te128  1  0.24884581  0.24000393  0.73093523  1
  Te  Te129  1  0.23354600  0.62043395  0.09286276  1
  Te  Te130  1  0.22404168  0.60982926  0.44065257  1
  Te  Te131  1  0.25738278  0.59336582  0.77242322  1
  Te  Te132  1  0.26162008  0.91241965  0.08543842  1
  Te  Te133  1  0.23067723  0.88663771  0.41759334  1
  Te  Te134  1  0.21319060  0.88340707  0.72204277  1
  Te  Te135  1  0.57308449  0.25220706  0.10022356  1
  Te  Te136  1  0.59357338  0.22954839  0.43117803  1
  Te  Te137  1  0.58246510  0.23952403  0.74256028  1
  Te  Te138  1  0.57985931  0.58860276  0.08226665  1
  Te  Te139  1  0.62325717  0.61141219  0.37929636  1
  Te  Te140  1  0.57617894  0.59947865  0.74110007  1
  Te  Te141  1  0.59973464  0.89453741  0.07138402  1
  Te  Te142  1  0.58977127  0.92625703  0.41911330  1
  Te  Te143  1  0.58200297  0.91481424  0.74256232  1
  Te  Te144  1  0.90823004  0.25304557  0.08470311  1
  Te  Te145  1  0.91067449  0.20568291  0.40079200  1
  Te  Te146  1  0.92660536  0.22885419  0.77593996  1
  Te  Te147  1  0.90467417  0.58591624  0.07685118  1
  Te  Te148  1  0.95373596  0.61957963  0.39774230  1
  Te  Te149  1  0.91183137  0.58879557  0.73280726  1
  Te  Te150  1  0.93577459  0.93419861  0.09145248  1
  Te  Te151  1  0.92315179  0.89471774  0.41878972  1
  Te  Te152  1  0.95302314  0.92478815  0.79368936  1
  Te  Te153  1  0.24271346  0.07832065  0.24783820  1
  Te  Te154  1  0.22774463  0.06594460  0.57190788  1
  Te  Te155  1  0.22589245  0.07098088  0.88308339  1
  Te  Te156  1  0.26076459  0.42304788  0.27187708  1
  Te  Te157  1  0.27335511  0.41535935  0.60556453  1
  Te  Te158  1  0.24483651  0.42328831  0.90951303  1
  Te  Te159  1  0.25127979  0.76748314  0.26527350  1
  Te  Te160  1  0.22003887  0.76528729  0.59591466  1
  Te  Te161  1  0.24367059  0.74916980  0.89236545  1
  Te  Te162  1  0.60229313  0.07384600  0.24144443  1
  Te  Te163  1  0.57451223  0.09734092  0.58077823  1
  Te  Te164  1  0.59018182  0.05640536  0.92094636  1
  Te  Te165  1  0.57804648  0.41778595  0.24547098  1
  Te  Te166  1  0.59690960  0.40045762  0.58583381  1
  Te  Te167  1  0.57014704  0.44042182  0.91337788  1
  Te  Te168  1  0.58794392  0.75041392  0.22052306  1
  Te  Te169  1  0.58438526  0.75192850  0.57337281  1
  Te  Te170  1  0.57390848  0.74418979  0.90183921  1
  Te  Te171  1  0.88622877  0.05323597  0.23335855  1
  Te  Te172  1  0.93898067  0.03556308  0.60035759  1
  Te  Te173  1  0.93142216  0.04167913  0.89862797  1
  Te  Te174  1  0.92127324  0.42132854  0.25409399  1
  Te  Te175  1  0.90721560  0.41174582  0.59121244  1
  Te  Te176  1  0.90782371  0.42751270  0.92869019  1
  Te  Te177  1  0.87154020  0.74469906  0.26021300  1
  Te  Te178  1  0.92422047  0.76322222  0.59363052  1
  Te  Te179  1  0.94247763  0.76248004  0.89644168  1
