# generated using pymatgen
data_In2Te3
_symmetry_space_group_name_H-M   'P 1'
_cell_length_a   18.80210599
_cell_length_b   18.79290808
_cell_length_c   18.80557136
_cell_angle_alpha   89.98474811
_cell_angle_beta   90.00759194
_cell_angle_gamma   89.97276029
_symmetry_Int_Tables_number   1
_chemical_formula_structural   In2Te3
_chemical_formula_sum   'In72 Te108'
_cell_volume   6644.87706513
_cell_formula_units_Z   36
loop_
 _symmetry_equiv_pos_site_id
 _symmetry_equiv_pos_as_xyz
  1  'x, y, z'
loop_
 _atom_site_type_symbol
 _atom_site_label
 _atom_site_symmetry_multiplicity
 _atom_site_fract_x
 _atom_site_fract_y
 _atom_site_fract_z
 _atom_site_occupancy
  In  In0  1  0.31151613  0.32770768  0.67902980  1
  In  In1  1  0.14983568  0.49618837  0.67777037  1
  In  In2  1  -0.00317860  0.34060540  0.67405663  1
  In  In3  1  0.66385740  0.67096837  0.67261589  1
  In  In4  1  0.69201945  0.18548026  0.83282681  1
  In  In5  1  -0.00970832  0.15211666  0.48884406  1
  In  In6  1  0.65303034  0.52034765  0.82112515  1
  In  In7  1  0.67462667  -0.00921944  0.01578824  1
  In  In8  1  -0.00673023  0.84301526  0.83643419  1
  In  In9  1  0.67519767  0.66428882  0.34024315  1
  In  In10  1  0.49237691  0.33831920  0.50057166  1
  In  In11  1  0.67074786  0.14686696  0.16991342  1
  In  In12  1  0.01556255  0.68723167  0.01598450  1
  In  In13  1  0.15253405  0.48076915  -0.00357798  1
  In  In14  1  0.65567596  0.82437281  0.81387238  1
  In  In15  1  0.51363634  0.00035785  0.14866420  1
  In  In16  1  0.84681427  0.34088505  0.84180034  1
  In  In17  1  0.84534251  0.66781603  0.16345568  1
  In  In18  1  0.68840479  0.53600887  0.16471765  1
  In  In19  1  0.48517899  0.15535930  -0.00266780  1
  In  In20  1  0.34574694  0.18682359  0.47941922  1
  In  In21  1  0.32531639  0.49009121  0.16568845  1
  In  In22  1  0.34689089  -0.00071870  0.66606076  1
  In  In23  1  0.87901463  0.31743062  0.14977552  1
  In  In24  1  0.51227860  0.51196684  0.34187314  1
  In  In25  1  0.34770299  0.66290806  0.63893589  1
  In  In26  1  0.16076174  -0.01185695  0.85389174  1
  In  In27  1  0.50605313  0.82549396  0.34999227  1
  In  In28  1  0.32907492  0.66700676  -0.01019988  1
  In  In29  1  0.15738363  0.34964497  0.49890281  1
  In  In30  1  0.86967330  -0.01245827  0.16159000  1
  In  In31  1  0.66251976  0.33349234  0.34902108  1
  In  In32  1  0.46938351  0.18118527  0.35935435  1
  In  In33  1  0.16725829  0.67702020  0.84131648  1
  In  In34  1  0.32684211  0.02824819  0.33106424  1
  In  In35  1  0.51408786  0.33015786  0.81967760  1
  In  In36  1  0.14432298  0.02980865  0.14447364  1
  In  In37  1  0.32754764  0.01194713  -0.01956977  1
  In  In38  1  0.66985507  0.81536498  0.51833586  1
  In  In39  1  0.83158107  0.15584483  0.33658775  1
  In  In40  1  0.01295667  0.33725540  0.32512228  1
  In  In41  1  0.83112068  0.50769455  0.67481334  1
  In  In42  1  0.29311303  0.66773822  0.35959994  1
  In  In43  1  0.48345382  0.34447682  0.15950933  1
  In  In44  1  0.82822440  -0.03120892  0.51662814  1
  In  In45  1  0.67288802  0.49218653  0.49761222  1
  In  In46  1  0.65559016  0.31646526  0.64747136  1
  In  In47  1  0.67993288  0.32655415  -0.01840626  1
  In  In48  1  0.14447295  0.81185715  0.33703407  1
  In  In49  1  0.32019638  0.84472073  0.17521460  1
  In  In50  1  0.15519826  -0.02136699  0.49605102  1
  In  In51  1  -0.01997747  0.67120162  0.67894605  1
  In  In52  1  0.68251843  0.00088114  0.34185021  1
  In  In53  1  0.84430132  0.49539105  0.00061784  1
  In  In54  1  -0.03046353  0.53611425  0.50354242  1
  In  In55  1  0.84065528  0.83651016  0.00026841  1
  In  In56  1  0.35076998  0.50550655  0.84963974  1
  In  In57  1  0.82776595  0.15871750  0.65359140  1
  In  In58  1  0.16870264  0.31647201  0.15478286  1
  In  In59  1  0.84929933  0.01918247  0.82112125  1
  In  In60  1  0.33811697  0.84167439  0.52236940  1
  In  In61  1  0.49967843  0.67116388  0.16633990  1
  In  In62  1  0.33987798  0.82521055  0.82156845  1
  In  In63  1  0.66721534  0.67292062  -0.01979947  1
  In  In64  1  0.01277246  0.01342834  0.32462387  1
  In  In65  1  0.17502423  0.14846988  0.67754284  1
  In  In66  1  0.00225131  0.81103108  0.50409505  1
  In  In67  1  0.33462815  0.36332699  0.32112626  1
  In  In68  1  0.84302237  0.82573574  0.30264105  1
  In  In69  1  0.02632527  0.16279888  0.86089646  1
  In  In70  1  0.32584501  0.32449662  0.01667630  1
  In  In71  1  0.50083321  -0.00055895  0.81975918  1
  Te  Te72  1  0.05022291  0.09502523  0.04686150  1
  Te  Te73  1  0.10790025  0.09598610  0.41012538  1
  Te  Te74  1  0.07223603  0.06432914  0.75079738  1
  Te  Te75  1  0.08079386  0.43097932  0.11726654  1
  Te  Te76  1  0.06808935  0.44547528  0.42212477  1
  Te  Te77  1  0.08592877  0.40332937  0.77245010  1
  Te  Te78  1  0.10753730  0.72449185  0.12627447  1
  Te  Te79  1  0.06822585  0.70710508  0.41360657  1
  Te  Te80  1  0.08736914  0.76120238  0.74472444  1
  Te  Te81  1  0.39843843  0.08528915  0.09958795  1
  Te  Te82  1  0.43029926  0.05115992  0.44800864  1
  Te  Te83  1  0.40304895  0.09380406  0.76422506  1
  Te  Te84  1  0.42182343  0.43840838  0.05825312  1
  Te  Te85  1  0.40137059  0.44774089  0.43579423  1
  Te  Te86  1  0.41835759  0.41980218  0.74227594  1
  Te  Te87  1  0.40984842  0.76154662  0.08308435  1
  Te  Te88  1  0.41007398  0.73853114  0.42822515  1
  Te  Te89  1  0.42702487  0.73953143  0.73791496  1
  Te  Te90  1  0.77560677  0.08491365  0.08040655  1
  Te  Te91  1  0.75319993  0.08525573  0.44690136  1
  Te  Te92  1  0.73128175  0.07431193  0.73562324  1
  Te  Te93  1  0.74981379  0.41132906  0.08920441  1
  Te  Te94  1  0.76598263  0.41745410  0.41037750  1
  Te  Te95  1  0.73695071  0.40219984  0.75471028  1
  Te  Te96  1  0.74523910  0.75249078  0.08609707  1
  Te  Te97  1  0.77111255  0.75583652  0.41581472  1
  Te  Te98  1  0.76273182  0.73923420  0.75912584  1
  Te  Te99  1  0.09302868  0.23525849  0.25361546  1
  Te  Te100  1  0.08190966  0.24319390  0.58397142  1
  Te  Te101  1  0.05460542  0.28121047  0.94634226  1
  Te  Te102  1  0.06338855  0.64610152  0.26849899  1
  Te  Te103  1  0.08251858  0.59752536  0.58848709  1
  Te  Te104  1  0.07302247  0.58460472  0.91570167  1
  Te  Te105  1  0.09163294  0.91688316  0.23950544  1
  Te  Te106  1  0.07560982  0.90351291  0.59264687  1
  Te  Te107  1  0.07430870  0.90601939  0.94469594  1
  Te  Te108  1  0.39654516  0.24913213  0.23784908  1
  Te  Te109  1  0.41745140  0.24730555  0.60111423  1
  Te  Te110  1  0.41448351  0.25462158  0.90868400  1
  Te  Te111  1  0.40881025  0.58879589  0.25805955  1
  Te  Te112  1  0.39759186  0.55888228  0.54845781  1
  Te  Te113  1  0.43850131  0.61182173  0.90623706  1
  Te  Te114  1  0.42530286  0.92180417  0.25930468  1
  Te  Te115  1  0.44496413  0.90193680  0.60836650  1
  Te  Te116  1  0.42521188  0.91274069  0.91881486  1
  Te  Te117  1  0.75269525  0.25423907  0.24245359  1
  Te  Te118  1  0.76535275  0.26066899  0.56719552  1
  Te  Te119  1  0.79198994  0.23290872  0.93807388  1
  Te  Te120  1  0.78597019  0.57286899  0.28035562  1
  Te  Te121  1  0.75744362  0.59305693  0.57507092  1
  Te  Te122  1  0.76552114  0.58322889  0.90413783  1
  Te  Te123  1  0.74711428  0.92065710  0.23023556  1
  Te  Te124  1  0.73579506  0.90902919  0.61416048  1
  Te  Te125  1  0.75159306  0.91999722  0.90417193  1
  Te  Te126  1  0.22983504  0.21985201  0.05808169  1
  Te  Te127  1  0.24205041  0.26868388  0.40136409  1
  Te  Te128  1  0.22663541  0.24953377  0.77177887  1
  Te  Te129  1  0.23929870  0.57977579  0.07678147  1
  Te  Te130  1  0.21905551  0.54423282  0.38740642  1
  Te  Te131  1  0.25535081  0.58529285  0.75690603  1
  Te  Te132  1  0.24126636  0.92903124  0.07738238  1
  Te  Te133  1  0.25671327  0.90603375  0.39798824  1
  Te  Te134  1  0.24529705  0.91628955  0.74365588  1
  Te  Te135  1  0.58349346  0.24787352  0.08382982  1
  Te  Te136  1  0.59716544  0.23066026  0.44334862  1
  Te  Te137  1  0.57784869  0.21968300  0.73595743  1
  Te  Te138  1  0.57885663  0.58114172  0.07130016  1
  Te  Te139  1  0.57961328  0.60339131  0.44184079  1
  Te  Te140  1  0.55473119  0.59205474  0.73930526  1
  Te  Te141  1  0.58070159  0.89378756  0.07456044  1
  Te  Te142  1  0.59169492  0.91961898  0.43306670  1
  Te  Te143  1  0.57443622  0.91444221  0.72325599  1
  Te  Te144  1  0.97358211  0.23309250  0.07060960  1
  Te  Te145  1  0.91279154  0.25891019  0.41507744  1
  Te  Te146  1  0.91948029  0.23037590  0.75588311  1
  Te  Te147  1  0.93835706  0.57332428  0.09065696  1
  Te  Te148  1  0.89223050  0.59619425  0.39475947  1
  Te  Te149  1  0.93698191  0.55665697  0.76338632  1
  Te  Te150  1  0.95221700  0.89535252  0.07934180  1
  Te  Te151  1  0.92076278  0.91958310  0.40124982  1
  Te  Te152  1  0.89997659  0.90727879  0.74076508  1
  Te  Te153  1  0.23210545  0.09882573  0.24361942  1
  Te  Te154  1  0.25462818  0.08360167  0.56316139  1
  Te  Te155  1  0.23171305  0.10499842  0.91497108  1
  Te  Te156  1  0.21664364  0.44867895  0.26611366  1
  Te  Te157  1  0.25311377  0.43230294  0.58348329  1
  Te  Te158  1  0.25161295  0.40541245  0.90879802  1
  Te  Te159  1  0.23594157  0.72833493  0.22908028  1
  Te  Te160  1  0.24185461  0.74192841  0.57141061  1
  Te  Te161  1  0.24035516  0.77582822  0.93009827  1
  Te  Te162  1  0.57094529  0.08996383  0.27098775  1
  Te  Te163  1  0.53465909  0.11925853  0.53547905  1
  Te  Te164  1  0.60020640  0.09025552  0.92126966  1
  Te  Te165  1  0.58751083  0.42268448  0.24163749  1
  Te  Te166  1  0.57109275  0.43133790  0.59446805  1
  Te  Te167  1  0.58181241  0.42451372  0.91901281  1
  Te  Te168  1  0.59699914  0.75719664  0.24752320  1
  Te  Te169  1  0.56315048  0.73836568  0.58454262  1
  Te  Te170  1  0.56513195  0.74860970  0.90516992  1
  Te  Te171  1  0.93324044  0.10670346  0.23451617  1
  Te  Te172  1  0.92796131  0.06007874  0.59100433  1
  Te  Te173  1  0.94084953  0.06012621  0.93417209  1
  Te  Te174  1  0.93045425  0.42477657  0.23563536  1
  Te  Te175  1  0.90627420  0.41445769  0.57900161  1
  Te  Te176  1  0.94556707  0.40546872  0.93405045  1
  Te  Te177  1  0.95420744  0.75062656  0.23260892  1
  Te  Te178  1  0.89619186  0.74589273  0.58247728  1
  Te  Te179  1  0.91280384  0.73458655  0.91292197  1
