# generated using pymatgen
data_In2Te3
_symmetry_space_group_name_H-M   'P 1'
_cell_length_a   19.09501255
_cell_length_b   19.03546037
_cell_length_c   19.04264926
_cell_angle_alpha   89.61213447
_cell_angle_beta   90.13261902
_cell_angle_gamma   90.14026436
_symmetry_Int_Tables_number   1
_chemical_formula_structural   In2Te3
_chemical_formula_sum   'In72 Te108'
_cell_volume   6921.46937695
_cell_formula_units_Z   36
loop_
 _symmetry_equiv_pos_site_id
 _symmetry_equiv_pos_as_xyz
  1  'x, y, z'
loop_
 _atom_site_type_symbol
 _atom_site_label
 _atom_site_symmetry_multiplicity
 _atom_site_fract_x
 _atom_site_fract_y
 _atom_site_fract_z
 _atom_site_occupancy
  In  In0  1  0.19032119  0.35391452  0.52055275  1
  In  In1  1  0.84230140  0.00113337  0.84728558  1
  In  In2  1  0.84174651  0.19276235  0.32680585  1
  In  In3  1  0.66973198  0.48536076  0.15514826  1
  In  In4  1  0.83080340  0.65890741  0.47855922  1
  In  In5  1  0.89559462  0.13330106  0.68459665  1
  In  In6  1  0.67813531  0.32655176  0.00509822  1
  In  In7  1  0.64469822  0.69726258  0.33209762  1
  In  In8  1  0.81681248  0.64959658  0.16142711  1
  In  In9  1  0.16496780  0.83552597  0.34253752  1
  In  In10  1  0.66470189  0.51516094  0.83864681  1
  In  In11  1  0.17546871  0.34493839  0.85170764  1
  In  In12  1  0.48484776  0.69766603  0.12136770  1
  In  In13  1  0.67223742  0.68962649  0.65070999  1
  In  In14  1  0.47963145  0.49117098  0.00125077  1
  In  In15  1  0.67715974  0.03501267  -0.00813032  1
  In  In16  1  0.50470615  0.86106032  0.68094472  1
  In  In17  1  0.85339598  0.36469081  0.85190369  1
  In  In18  1  0.34936269  0.70200465  0.30925624  1
  In  In19  1  0.53148147  0.16989871  0.31313378  1
  In  In20  1  -0.03859639  0.34291128  0.32228971  1
  In  In21  1  0.30748268  0.15405748  0.13905244  1
  In  In22  1  0.48499872  0.14456213  0.70666875  1
  In  In23  1  0.17425403  0.49249158  0.35488081  1
  In  In24  1  0.18455808  0.66591243  0.49345899  1
  In  In25  1  0.19094864  0.48360402  0.66594056  1
  In  In26  1  -0.00445042  0.51902657  0.48591595  1
  In  In27  1  0.32712588  0.50114221  0.84153616  1
  In  In28  1  0.68694828  0.87048946  0.16601504  1
  In  In29  1  0.48810156  0.85792285  0.33533906  1
  In  In30  1  0.15023380  0.00126059  0.20000380  1
  In  In31  1  0.49120047  0.33081792  0.49017259  1
  In  In32  1  -0.00996713  0.17514112  0.18801701  1
  In  In33  1  0.49232214  0.67505953  0.81125316  1
  In  In34  1  -0.02168238  0.81308208  0.83397848  1
  In  In35  1  0.81311885  -0.02875758  0.45789365  1
  In  In36  1  0.32280594  0.51364505  0.18921499  1
  In  In37  1  0.16547707  0.81982602  -0.00387786  1
  In  In38  1  0.02525850  0.13759025  0.55678982  1
  In  In39  1  0.69094158  0.32887156  0.31911490  1
  In  In40  1  0.32896619  0.35566772  0.68216312  1
  In  In41  1  0.16764371  0.67690440  0.84149906  1
  In  In42  1  0.35906227  0.02491583  0.32370012  1
  In  In43  1  0.48634736  0.67304464  0.53909772  1
  In  In44  1  0.32491868  0.16579501  0.85007163  1
  In  In45  1  0.52695762  0.01264360  0.48400193  1
  In  In46  1  0.67802874  0.82407105  0.79778124  1
  In  In47  1  0.33852676  0.31367036  0.33136180  1
  In  In48  1  0.00987393  -0.01245399  -0.00168894  1
  In  In49  1  0.30021448  -0.00610423  -0.01444217  1
  In  In50  1  0.84179220  0.34176789  0.51020271  1
  In  In51  1  0.86243961  0.17050017  0.00041336  1
  In  In52  1  -0.00005469  0.35125436  0.65681246  1
  In  In53  1  0.32060693  0.86174784  0.53001492  1
  In  In54  1  0.67203530  0.66109168  -0.03790183  1
  In  In55  1  0.15630883  0.64170643  0.15702920  1
  In  In56  1  0.84257842  0.82704187  0.62981635  1
  In  In57  1  0.15735698  -0.01413181  0.52746867  1
  In  In58  1  0.84490164  0.83605754  0.01830409  1
  In  In59  1  0.67839486  0.00150903  0.68491534  1
  In  In60  1  0.16638033  0.84726061  0.69104183  1
  In  In61  1  0.48901977  -0.00140801  0.14508028  1
  In  In62  1  0.85896037  0.61010420  0.84681494  1
  In  In63  1  0.70588860  0.15629237  0.50659008  1
  In  In64  1  -0.00054198  0.67364246  0.30278878  1
  In  In65  1  0.64263307  0.34406555  0.68136655  1
  In  In66  1  0.65106766  0.50545613  0.47087364  1
  In  In67  1  0.47186598  0.31954744  0.83415871  1
  In  In68  1  0.31973632  0.15645738  0.53656687  1
  In  In69  1  0.00633438  0.59372098  0.02909253  1
  In  In70  1  0.15716608  0.18529961  -0.00600748  1
  In  In71  1  0.52672716  0.32221957  0.15231416  1
  Te  Te72  1  0.08162511  0.08569657  0.09116222  1
  Te  Te73  1  0.08344261  0.07369066  0.43892868  1
  Te  Te74  1  0.03303333  0.08627259  0.69415413  1
  Te  Te75  1  0.07155728  0.45769616  0.02959262  1
  Te  Te76  1  0.07461830  0.40270911  0.42983999  1
  Te  Te77  1  0.08108422  0.43473159  0.76157197  1
  Te  Te78  1  0.06912598  0.73029552  0.07028457  1
  Te  Te79  1  0.07522635  0.73820314  0.41753481  1
  Te  Te80  1  0.06723565  0.73299599  0.74560237  1
  Te  Te81  1  0.40620748  0.08276867  0.05101881  1
  Te  Te82  1  0.42603100  0.11570526  0.42554387  1
  Te  Te83  1  0.39031855  0.05525054  0.77574520  1
  Te  Te84  1  0.41452767  0.41523919  0.11285311  1
  Te  Te85  1  0.42729299  0.41342654  0.38865467  1
  Te  Te86  1  0.43311413  0.43877800  0.75243284  1
  Te  Te87  1  0.39714311  0.79245232  0.05877041  1
  Te  Te88  1  0.40754014  0.77329372  0.43196391  1
  Te  Te89  1  0.40841689  0.76632992  0.73416096  1
  Te  Te90  1  0.78660307  0.06983024  0.08133871  1
  Te  Te91  1  0.74478088  0.08361981  0.38423896  1
  Te  Te92  1  0.76436366  0.09658026  0.75919995  1
  Te  Te93  1  0.76727509  0.38170561  0.11241404  1
  Te  Te94  1  0.76312891  0.42373657  0.41039041  1
  Te  Te95  1  0.74808073  0.42380289  0.75378895  1
  Te  Te96  1  0.72649898  0.74674482  0.07688375  1
  Te  Te97  1  0.74399592  0.76505054  0.41901498  1
  Te  Te98  1  0.77258953  0.71153991  0.76227411  1
  Te  Te99  1  0.07131100  0.26344476  0.27239231  1
  Te  Te100  1  0.10810708  0.26258110  0.60564368  1
  Te  Te101  1  0.06466908  0.26754754  0.91164130  1
  Te  Te102  1  0.08006661  0.55384246  0.25384880  1
  Te  Te103  1  0.10064578  0.57330945  0.57923921  1
  Te  Te104  1  0.11108304  0.56418413  0.92202212  1
  Te  Te105  1  0.06330112  0.90111558  0.26045058  1
  Te  Te106  1  0.07555793  0.87838054  0.58137456  1
  Te  Te107  1  0.08132375  0.90283876  0.89711739  1
  Te  Te108  1  0.42171865  0.22851941  0.22866272  1
  Te  Te109  1  0.42110889  0.25109598  0.60863241  1
  Te  Te110  1  0.38774785  0.26538281  0.94006789  1
  Te  Te111  1  0.43695966  0.60715930  0.23305129  1
  Te  Te112  1  0.39313046  0.57466167  0.58315976  1
  Te  Te113  1  0.41373546  0.59924556  0.91888903  1
  Te  Te114  1  0.39511834  0.91372900  0.22958343  1
  Te  Te115  1  0.43043251  0.95100625  0.58266017  1
  Te  Te116  1  0.38590570  0.88504234  0.93566646  1
  Te  Te117  1  0.74509546  0.23492750  0.22334895  1
  Te  Te118  1  0.74739181  0.26617311  0.60047953  1
  Te  Te119  1  0.76768163  0.25085034  0.91275610  1
  Te  Te120  1  0.71809987  0.58832012  0.25852119  1
  Te  Te121  1  0.73667207  0.58017432  0.57008223  1
  Te  Te122  1  0.76801054  0.54547136  0.94865450  1
  Te  Te123  1  0.79729969  0.86989752  0.26348248  1
  Te  Te124  1  0.73096660  0.91303021  0.57706408  1
  Te  Te125  1  0.75540625  0.89508986  0.91110394  1
  Te  Te126  1  0.21995360  0.26305099  0.09963639  1
  Te  Te127  1  0.24931878  0.24448898  0.43563051  1
  Te  Te128  1  0.24547315  0.25340644  0.75287724  1
  Te  Te129  1  0.26478736  0.58740279  0.07813506  1
  Te  Te130  1  0.27422003  0.59738723  0.39453696  1
  Te  Te131  1  0.25480250  0.59316743  0.74747777  1
  Te  Te132  1  0.22287686  0.92072479  0.09260000  1
  Te  Te133  1  0.26516651  0.93606503  0.40913766  1
  Te  Te134  1  0.26419043  0.94924773  0.72968968  1
  Te  Te135  1  0.58967991  0.22651895  0.06438495  1
  Te  Te136  1  0.60472525  0.24910051  0.42797834  1
  Te  Te137  1  0.58385115  0.23980471  0.77513302  1
  Te  Te138  1  0.58362526  0.58302883  0.06774797  1
  Te  Te139  1  0.55568628  0.60936074  0.41778693  1
  Te  Te140  1  0.58773407  0.59099792  0.73218250  1
  Te  Te141  1  0.59262333  0.92678610  0.06132780  1
  Te  Te142  1  0.60089755  0.93796373  0.38333242  1
  Te  Te143  1  0.57866054  0.94721221  0.79115474  1
  Te  Te144  1  0.94325407  0.26693011  0.07911003  1
  Te  Te145  1  0.92889868  0.24400349  0.44242284  1
  Te  Te146  1  0.91514966  0.27015916  0.74968004  1
  Te  Te147  1  0.91153164  0.53797375  0.13360522  1
  Te  Te148  1  0.90814749  0.57753932  0.37802097  1
  Te  Te149  1  0.95168264  0.51744490  0.78923206  1
  Te  Te150  1  0.90417314  0.94704957  0.09359696  1
  Te  Te151  1  0.87869714  0.85475308  0.39633863  1
  Te  Te152  1  0.90311164  0.90670457  0.74145459  1
  Te  Te153  1  0.24273014  0.10153161  0.26584542  1
  Te  Te154  1  0.24448555  0.06198029  0.62422382  1
  Te  Te155  1  0.20959673  0.08003137  0.90000036  1
  Te  Te156  1  0.24098450  0.40237761  0.25518295  1
  Te  Te157  1  0.30285935  0.45044903  0.55725332  1
  Te  Te158  1  0.28187276  0.39868461  0.93849177  1
  Te  Te159  1  0.23093762  0.75212396  0.23481810  1
  Te  Te160  1  0.24871663  0.75081001  0.59942609  1
  Te  Te161  1  0.26461492  0.77550066  0.89541454  1
  Te  Te162  1  0.58650313  0.05570521  0.24173642  1
  Te  Te163  1  0.59038417  0.10024473  0.59798072  1
  Te  Te164  1  0.58721202  0.06881657  0.88484467  1
  Te  Te165  1  0.58234362  0.41500127  0.25780495  1
  Te  Te166  1  0.57205875  0.42619653  0.57538438  1
  Te  Te167  1  0.57959723  0.41443172  0.91697434  1
  Te  Te168  1  0.57118438  0.78010267  0.22749152  1
  Te  Te169  1  0.58095483  0.78412047  0.57504809  1
  Te  Te170  1  0.57993193  0.76180384  0.89873514  1
  Te  Te171  1  0.92319814  0.08201157  0.27910682  1
  Te  Te172  1  0.89285203  0.05335026  0.55230535  1
  Te  Te173  1  0.94929963  0.08950659  0.90406523  1
  Te  Te174  1  0.87885174  0.41432766  0.22556040  1
  Te  Te175  1  0.90756738  0.45122312  0.58952436  1
  Te  Te176  1  0.95013914  0.38643407  0.96374660  1
  Te  Te177  1  0.90652295  0.75389564  0.21793785  1
  Te  Te178  1  0.91461651  0.70938524  0.58782193  1
  Te  Te179  1  0.90900416  0.72628629  0.93691574  1
