# generated using pymatgen
data_In2Te3
_symmetry_space_group_name_H-M   'P 1'
_cell_length_a   19.10155744
_cell_length_b   19.05917833
_cell_length_c   19.03434456
_cell_angle_alpha   89.94772556
_cell_angle_beta   89.98206889
_cell_angle_gamma   90.20060198
_symmetry_Int_Tables_number   1
_chemical_formula_structural   In2Te3
_chemical_formula_sum   'In72 Te108'
_cell_volume   6929.59757881
_cell_formula_units_Z   36
loop_
 _symmetry_equiv_pos_site_id
 _symmetry_equiv_pos_as_xyz
  1  'x, y, z'
loop_
 _atom_site_type_symbol
 _atom_site_label
 _atom_site_symmetry_multiplicity
 _atom_site_fract_x
 _atom_site_fract_y
 _atom_site_fract_z
 _atom_site_occupancy
  In  In0  1  -0.00753441  0.31760925  0.33919331  1
  In  In1  1  0.82789864  0.64257981  0.83267117  1
  In  In2  1  0.01524594  0.49938132  0.13835641  1
  In  In3  1  0.81541943  0.14350714  0.00790946  1
  In  In4  1  0.70315267  0.84613874  0.42913273  1
  In  In5  1  0.17147224  0.49875456  0.31041983  1
  In  In6  1  0.18452683  0.02760841  0.82338968  1
  In  In7  1  0.82764197  0.51859054  0.28907244  1
  In  In8  1  0.49520394  0.85065863  0.65936048  1
  In  In9  1  0.69020685  0.33612671  0.67254103  1
  In  In10  1  0.68443716  0.00803916  0.66394866  1
  In  In11  1  0.01528341  -0.01882684  0.63085600  1
  In  In12  1  0.65557774  0.68316106  0.03022858  1
  In  In13  1  0.61860193  0.05199505  0.05217833  1
  In  In14  1  0.01665655  0.86028004  0.81655775  1
  In  In15  1  0.82392402  0.80132595  -0.00762804  1
  In  In16  1  0.50211858  0.30632982  0.86563722  1
  In  In17  1  0.16457290  0.84446401  0.03231741  1
  In  In18  1  0.67314515  0.27361934  0.07267186  1
  In  In19  1  0.51386454  0.34115793  0.44699291  1
  In  In20  1  -0.00383559  0.02136744  0.01273801  1
  In  In21  1  0.00925153  0.48664357  0.51031932  1
  In  In22  1  0.15140158  0.49978080  0.68865582  1
  In  In23  1  0.83007014  0.49405559  0.65170465  1
  In  In24  1  0.83375268  -0.00819190  0.83444561  1
  In  In25  1  0.48598142  -0.01684189  0.19254624  1
  In  In26  1  0.15946716  0.34853765  0.83277457  1
  In  In27  1  0.67555701  0.49592335  0.83499430  1
  In  In28  1  0.84592871  0.18200887  0.69233411  1
  In  In29  1  0.34157645  0.49489006  0.83526057  1
  In  In30  1  0.13977056  0.67426699  0.81806376  1
  In  In31  1  0.17137055  0.18166509  0.01094952  1
  In  In32  1  0.31869823  0.67360161  -0.01663501  1
  In  In33  1  0.32940748  0.01230406  0.65681145  1
  In  In34  1  -0.02442691  0.68740115  0.39855733  1
  In  In35  1  0.50297298  0.85505699  -0.00603168  1
  In  In36  1  -0.00024731  0.83877055  0.19503988  1
  In  In37  1  0.35150206  0.84393666  0.82161830  1
  In  In38  1  0.65141916  0.16454875  0.48245131  1
  In  In39  1  0.50212469  0.82142687  0.35232428  1
  In  In40  1  0.48575186  0.14587287  0.34390312  1
  In  In41  1  0.82089395  0.29755330  0.19557996  1
  In  In42  1  0.49208734  0.50418015  0.00455012  1
  In  In43  1  0.34046404  0.14158319  0.18737640  1
  In  In44  1  0.82934759  -0.04097655  0.18714096  1
  In  In45  1  0.17509577  0.65944643  0.15178831  1
  In  In46  1  0.51806064  0.49730769  0.64567389  1
  In  In47  1  -0.00151190  0.16302899  0.17603019  1
  In  In48  1  0.80716943  0.34367773  0.45817203  1
  In  In49  1  0.32829846  0.83691370  0.19258107  1
  In  In50  1  0.01640876  0.00538703  0.35635769  1
  In  In51  1  0.31889694  0.65976174  0.32500759  1
  In  In52  1  0.26381495  0.88176416  0.50456471  1
  In  In53  1  0.18932842  0.31233434  0.50347261  1
  In  In54  1  0.16713207  0.68941849  0.49126002  1
  In  In55  1  0.00403831  0.34122830  -0.01238818  1
  In  In56  1  0.16230244  0.14315298  0.63417649  1
  In  In57  1  0.66365910  0.52228764  0.46301755  1
  In  In58  1  0.81636137  0.01505221  0.50009290  1
  In  In59  1  0.35754418  0.37437459  0.32613644  1
  In  In60  1  0.66524841  0.83958674  0.82947597  1
  In  In61  1  0.49370448  0.64833366  0.50016491  1
  In  In62  1  0.37185079  0.30340249  0.01053217  1
  In  In63  1  0.66761596  0.66843276  0.65909620  1
  In  In64  1  0.50919433  0.18197860  0.65296853  1
  In  In65  1  0.34632578  0.33327610  0.66284703  1
  In  In66  1  0.49004002  0.67460334  0.17051309  1
  In  In67  1  0.33781918  0.19571466  0.82607716  1
  In  In68  1  0.88636554  0.85529477  0.56840443  1
  In  In69  1  0.16507250  0.16770931  0.33960493  1
  In  In70  1  -0.00011970  0.64057723  -0.01957839  1
  In  In71  1  -0.01155338  0.48934364  0.83593707  1
  Te  Te72  1  0.10196903  0.08087580  0.10113479  1
  Te  Te73  1  0.06855417  0.11653354  0.43888996  1
  Te  Te74  1  0.07229236  0.07757477  0.73673082  1
  Te  Te75  1  0.10242270  0.40460281  0.07258474  1
  Te  Te76  1  0.09615528  0.40641668  0.41342622  1
  Te  Te77  1  0.05332823  0.39292425  0.73366015  1
  Te  Te78  1  0.06140127  0.74445307  0.07952965  1
  Te  Te79  1  0.06849737  0.79246266  0.44931359  1
  Te  Te80  1  0.07282794  0.76331197  0.72463847  1
  Te  Te81  1  0.39307253  0.04040989  0.09298551  1
  Te  Te82  1  0.40494255  0.10980031  0.45817793  1
  Te  Te83  1  0.41868109  0.10097956  0.74456710  1
  Te  Te84  1  0.44406916  0.39884333  0.09301180  1
  Te  Te85  1  0.40875624  0.45044257  0.44527771  1
  Te  Te86  1  0.44037918  0.40389649  0.75859037  1
  Te  Te87  1  0.40043080  0.76459225  0.07448740  1
  Te  Te88  1  0.39737194  0.73940430  0.42498401  1
  Te  Te89  1  0.42923028  0.75136153  0.74403396  1
  Te  Te90  1  0.75129321  0.07237510  0.12419429  1
  Te  Te91  1  0.74546829  0.08822955  0.39387416  1
  Te  Te92  1  0.74648305  0.09662350  0.76889479  1
  Te  Te93  1  0.73768177  0.39433651  0.12457311  1
  Te  Te94  1  0.72842011  0.42963688  0.36236914  1
  Te  Te95  1  0.78169242  0.40566369  0.77374642  1
  Te  Te96  1  0.76057389  0.74625360  0.11280384  1
  Te  Te97  1  0.77361535  0.72752353  0.36349974  1
  Te  Te98  1  0.75655780  0.74902450  0.75056507  1
  Te  Te99  1  0.09320761  0.25955055  0.24212923  1
  Te  Te100  1  0.07622578  0.23836620  0.56214190  1
  Te  Te101  1  0.08294280  0.23942103  0.90386217  1
  Te  Te102  1  0.07435173  0.59133682  0.24374611  1
  Te  Te103  1  0.09010541  0.58811658  0.58425435  1
  Te  Te104  1  0.10203710  0.55855626  0.90889896  1
  Te  Te105  1  0.09696245  0.92694603  0.25918531  1
  Te  Te106  1  0.11931919  0.92194204  0.54513640  1
  Te  Te107  1  0.09280924  0.94240247  0.92038921  1
  Te  Te108  1  0.45720480  0.22941349  0.22288630  1
  Te  Te109  1  0.43053430  0.26732369  0.55739965  1
  Te  Te110  1  0.48055881  0.19886683  0.97037594  1
  Te  Te111  1  0.39009323  0.58229727  0.22485014  1
  Te  Te112  1  0.40830984  0.57680545  0.59660462  1
  Te  Te113  1  0.42509378  0.59793550  0.90716788  1
  Te  Te114  1  0.39751727  0.91781360  0.29760693  1
  Te  Te115  1  0.40307142  0.92005443  0.56389458  1
  Te  Te116  1  0.42065047  0.93760663  0.90714767  1
  Te  Te117  1  0.74160112  0.21560247  0.28876984  1
  Te  Te118  1  0.74940180  0.23727192  0.57499735  1
  Te  Te119  1  0.73314943  0.24358504  0.94305627  1
  Te  Te120  1  0.74619542  0.63316285  0.24825412  1
  Te  Te121  1  0.75491877  0.59150044  0.56373718  1
  Te  Te122  1  0.73748981  0.58782944  0.93745297  1
  Te  Te123  1  0.75830978  0.88316800  0.29015272  1
  Te  Te124  1  0.73656883  0.89515678  0.57760186  1
  Te  Te125  1  0.74622316  0.91672106  0.93221903  1
  Te  Te126  1  0.26749530  0.24714734  0.10578611  1
  Te  Te127  1  0.27257716  0.26303304  0.38967020  1
  Te  Te128  1  0.23389342  0.24893866  0.73279575  1
  Te  Te129  1  0.25220931  0.57272624  0.06493547  1
  Te  Te130  1  0.23957113  0.57458209  0.42149399  1
  Te  Te131  1  0.25278582  0.58790740  0.75761840  1
  Te  Te132  1  0.26442261  0.93037777  0.09479254  1
  Te  Te133  1  0.21113117  0.95220011  0.38534270  1
  Te  Te134  1  0.24537710  0.91851736  0.74141308  1
  Te  Te135  1  0.57131976  0.18059849  0.12691241  1
  Te  Te136  1  0.61270240  0.25537357  0.36639406  1
  Te  Te137  1  0.59455320  0.25353928  0.75481958  1
  Te  Te138  1  0.58306838  0.57433666  0.10490987  1
  Te  Te139  1  0.57888142  0.61132189  0.38675936  1
  Te  Te140  1  0.58558633  0.58250590  0.75187124  1
  Te  Te141  1  0.58998072  0.91072496  0.10270814  1
  Te  Te142  1  0.58177447  0.92790032  0.41937382  1
  Te  Te143  1  0.58196365  0.93644831  0.75069707  1
  Te  Te144  1  0.91605483  0.24259130  0.07860500  1
  Te  Te145  1  0.89020158  0.23647768  0.40476537  1
  Te  Te146  1  0.90179670  0.29406518  0.76192423  1
  Te  Te147  1  0.90796917  0.57605696  0.07349214  1
  Te  Te148  1  0.91353858  0.54960893  0.41119553  1
  Te  Te149  1  0.92238158  0.58192621  0.73319508  1
  Te  Te150  1  0.91861284  0.90597242  0.07114118  1
  Te  Te151  1  0.91315317  0.92260852  0.43180807  1
  Te  Te152  1  0.90523358  0.91312202  0.72717681  1
  Te  Te153  1  0.25646193  0.06278639  0.28482064  1
  Te  Te154  1  0.27897931  0.10641750  0.55020798  1
  Te  Te155  1  0.26836147  0.10366288  0.92271683  1
  Te  Te156  1  0.27122425  0.43656594  0.22526800  1
  Te  Te157  1  0.24339663  0.41934065  0.59593571  1
  Te  Te158  1  0.27809787  0.38519017  0.91712620  1
  Te  Te159  1  0.22064769  0.75506957  0.25972333  1
  Te  Te160  1  0.25559437  0.75897242  0.58322195  1
  Te  Te161  1  0.22025773  0.76630482  0.91491064  1
  Te  Te162  1  0.57699765  0.03936023  0.29559226  1
  Te  Te163  1  0.57837326  0.07147075  0.57680604  1
  Te  Te164  1  0.58102975  0.09899146  0.92051628  1
  Te  Te165  1  0.50021183  0.42505066  0.32117789  1
  Te  Te166  1  0.61121257  0.41036701  0.56640315  1
  Te  Te167  1  0.58871354  0.41446887  0.92762358  1
  Te  Te168  1  0.57755311  0.76732506  0.24029334  1
  Te  Te169  1  0.57616623  0.75166780  0.57552027  1
  Te  Te170  1  0.58027907  0.75032373  0.91680857  1
  Te  Te171  1  0.91908540  0.06416386  0.25424885  1
  Te  Te172  1  0.91005913  0.08504545  0.59456160  1
  Te  Te173  1  0.91935088  0.09363728  0.90596823  1
  Te  Te174  1  0.92781671  0.40763256  0.23622761  1
  Te  Te175  1  0.90282225  0.39399214  0.56595255  1
  Te  Te176  1  0.90458150  0.44128871  0.94675820  1
  Te  Te177  1  0.91685588  0.74583884  0.27217986  1
  Te  Te178  1  0.93052046  0.72048492  0.53959891  1
  Te  Te179  1  0.92955986  0.75141097  0.89517099  1
