# generated using pymatgen
data_In2Te3
_symmetry_space_group_name_H-M   'P 1'
_cell_length_a   19.13674995
_cell_length_b   18.95435470
_cell_length_c   19.05477183
_cell_angle_alpha   89.78806710
_cell_angle_beta   89.87052353
_cell_angle_gamma   90.39098504
_symmetry_Int_Tables_number   1
_chemical_formula_structural   In2Te3
_chemical_formula_sum   'In72 Te108'
_cell_volume   6911.41102550
_cell_formula_units_Z   36
loop_
 _symmetry_equiv_pos_site_id
 _symmetry_equiv_pos_as_xyz
  1  'x, y, z'
loop_
 _atom_site_type_symbol
 _atom_site_label
 _atom_site_symmetry_multiplicity
 _atom_site_fract_x
 _atom_site_fract_y
 _atom_site_fract_z
 _atom_site_occupancy
  In  In0  1  -0.03149948  0.74038226  0.34974374  1
  In  In1  1  0.34225127  0.69622729  0.31996828  1
  In  In2  1  0.48292364  0.51083172  0.33656246  1
  In  In3  1  0.31670111  0.34306404  0.35396346  1
  In  In4  1  0.52417076  0.48681191  0.67523183  1
  In  In5  1  0.50033350  0.16646857  -0.01692264  1
  In  In6  1  0.01681281  -0.01595128  0.64453479  1
  In  In7  1  0.30255596  0.16386339  0.20066817  1
  In  In8  1  0.19176421  0.31774701  0.82688092  1
  In  In9  1  0.64948913  0.49299991  0.47957701  1
  In  In10  1  0.70888296  0.33038210  0.29426740  1
  In  In11  1  0.66545996  0.52073625  0.13402084  1
  In  In12  1  0.84742632  0.70158608  0.50388698  1
  In  In13  1  0.16526841  0.52272978  0.02826969  1
  In  In14  1  0.66124281  0.34673099  -0.00623263  1
  In  In15  1  0.45486062  0.24848869  0.74380660  1
  In  In16  1  0.84560598  0.32676291  0.51329766  1
  In  In17  1  0.13755449  0.32364961  0.18111535  1
  In  In18  1  0.82337218  0.12604544  0.65638702  1
  In  In19  1  0.86297747  0.49892172  -0.01150823  1
  In  In20  1  -0.01729111  0.12026459  0.17060039  1
  In  In21  1  0.35609023  -0.01835649  0.02695994  1
  In  In22  1  0.53249421  0.53144461  -0.03122742  1
  In  In23  1  0.17615502  0.68316660  0.49435748  1
  In  In24  1  -0.02814437  0.31828739  0.68503188  1
  In  In25  1  0.52505429  -0.01037487  0.83644409  1
  In  In26  1  0.81941859  0.69810696  0.12634486  1
  In  In27  1  0.60296609  0.13217312  0.36583257  1
  In  In28  1  0.01776807  0.68198403  -0.00677430  1
  In  In29  1  0.72030050  0.08143828  0.89222907  1
  In  In30  1  0.80863743  0.86571825  0.66533325  1
  In  In31  1  0.27711593  0.55763318  0.18028540  1
  In  In32  1  0.02170121  0.49467894  0.17172906  1
  In  In33  1  0.70758037  0.49549714  0.82811397  1
  In  In34  1  0.68279371  0.68981560  0.64665874  1
  In  In35  1  0.83986313  0.53704651  0.33265273  1
  In  In36  1  0.65810708  0.82950037  0.49192456  1
  In  In37  1  -0.01307282  0.16348873  0.48960732  1
  In  In38  1  0.14380221  0.31430597  0.49062285  1
  In  In39  1  0.34849749  0.35339196  0.02106120  1
  In  In40  1  0.35848037  0.48801567  0.82740327  1
  In  In41  1  0.84547348  0.51315509  0.66350064  1
  In  In42  1  0.32946006  0.83578697  0.19775820  1
  In  In43  1  0.31922503  0.85930981  0.80390968  1
  In  In44  1  0.02785510  0.67106265  0.66725551  1
  In  In45  1  0.49105277  -0.00482605  0.48509489  1
  In  In46  1  0.15274419  0.84608613  -0.02102651  1
  In  In47  1  0.34467815  0.14024017  0.62561598  1
  In  In48  1  0.35638263  0.64996387  0.68136094  1
  In  In49  1  0.14761368  -0.01178011  0.81173305  1
  In  In50  1  0.80716030  0.30353078  0.84018304  1
  In  In51  1  0.64119070  0.70616491  0.30187363  1
  In  In52  1  0.66382755  -0.04063518  0.30075158  1
  In  In53  1  0.17468849  0.48045612  0.66359253  1
  In  In54  1  0.49565049  0.35198633  0.17748759  1
  In  In55  1  0.16481928  0.49389125  0.34946790  1
  In  In56  1  0.67657973  0.72064834  -0.00880605  1
  In  In57  1  0.47694126  -0.00189884  0.19646266  1
  In  In58  1  0.14574941  0.14207129  0.34088989  1
  In  In59  1  0.90060343  0.29206154  0.18361399  1
  In  In60  1  0.14964487  0.70815596  0.17316387  1
  In  In61  1  0.51111745  0.68335577  0.82887885  1
  In  In62  1  0.17746063  0.16207788  -0.01209732  1
  In  In63  1  -0.00563674  0.84739656  0.82972102  1
  In  In64  1  0.84261548  0.68367052  0.82070969  1
  In  In65  1  0.32972275  0.15435403  0.84724698  1
  In  In66  1  0.31648658  0.84405875  0.50030882  1
  In  In67  1  0.14345925  -0.02545484  0.20643025  1
  In  In68  1  0.33675094  0.49846062  0.52438826  1
  In  In69  1  0.84537183  0.91509331  0.01649103  1
  In  In70  1  0.59810213  0.23916308  0.62055202  1
  In  In71  1  0.81625836  0.13270390  0.31347827  1
  Te  Te72  1  0.11697247  0.08204322  0.10572259  1
  Te  Te73  1  0.09893714  0.06352995  0.46126050  1
  Te  Te74  1  0.07460443  0.08599843  0.73315670  1
  Te  Te75  1  0.07536325  0.40084435  0.06768076  1
  Te  Te76  1  0.06636114  0.40307316  0.40503565  1
  Te  Te77  1  0.08480655  0.39853640  0.75215416  1
  Te  Te78  1  0.05885044  0.79204696  0.08944382  1
  Te  Te79  1  0.06411453  0.77662287  0.46395103  1
  Te  Te80  1  0.09245723  0.75135847  0.77406267  1
  Te  Te81  1  0.40194834  0.10999256  0.09406618  1
  Te  Te82  1  0.45892515  0.11414000  0.40144023  1
  Te  Te83  1  0.43709460  0.09320652  0.75869474  1
  Te  Te84  1  0.44836298  0.45155935  0.07355217  1
  Te  Te85  1  0.42568012  0.41022403  0.43403593  1
  Te  Te86  1  0.41218558  0.39586575  0.72204968  1
  Te  Te87  1  0.43184411  0.77739826  0.11043254  1
  Te  Te88  1  0.40903757  0.75016770  0.43598058  1
  Te  Te89  1  0.42646972  0.77060159  0.73960081  1
  Te  Te90  1  0.79712694  0.03381168  0.09293649  1
  Te  Te91  1  0.72730159  0.05527775  0.40683414  1
  Te  Te92  1  0.70873687  0.06634700  0.74028377  1
  Te  Te93  1  0.76330362  0.42291513  0.07625969  1
  Te  Te94  1  0.76969179  0.42680712  0.41436005  1
  Te  Te95  1  0.76432693  0.40170283  0.72706347  1
  Te  Te96  1  0.71566884  0.80651261  0.11065999  1
  Te  Te97  1  0.74988472  0.74983407  0.40263812  1
  Te  Te98  1  0.73623823  0.77079413  0.76205311  1
  Te  Te99  1  0.05555613  0.23668932  0.26898343  1
  Te  Te100  1  0.06440661  0.23870821  0.59545674  1
  Te  Te101  1  0.09352507  0.23022214  0.89183596  1
  Te  Te102  1  0.09230618  0.59300445  0.26115608  1
  Te  Te103  1  0.09968775  0.57556032  0.57373711  1
  Te  Te104  1  0.08014795  0.57228601  0.92183225  1
  Te  Te105  1  0.04122021  0.93008086  0.30256931  1
  Te  Te106  1  0.13072119  0.88970142  0.62399236  1
  Te  Te107  1  0.05664961  0.94843299  0.92667310  1
  Te  Te108  1  0.40510501  0.26174610  0.25902384  1
  Te  Te109  1  0.45162818  0.20841230  0.54645599  1
  Te  Te110  1  0.41320177  0.27015640  0.91311307  1
  Te  Te111  1  0.41412986  0.59447840  0.23204172  1
  Te  Te112  1  0.44843015  0.58070127  0.58416901  1
  Te  Te113  1  0.41134078  0.60246811  0.91200617  1
  Te  Te114  1  0.38469533  0.93486687  0.29196216  1
  Te  Te115  1  0.39276843  0.94277095  0.58050633  1
  Te  Te116  1  0.41569744  0.90800755  0.91232038  1
  Te  Te117  1  0.76545412  0.22669293  0.20257543  1
  Te  Te118  1  0.75026472  0.22899657  0.57404943  1
  Te  Te119  1  0.73921947  0.22678396  0.95029490  1
  Te  Te120  1  0.74657913  0.60730775  0.23600143  1
  Te  Te121  1  0.74884307  0.57887346  0.56613711  1
  Te  Te122  1  0.75761258  0.59849671  0.92837784  1
  Te  Te123  1  0.77048971  0.88099979  0.23604624  1
  Te  Te124  1  0.73704141  0.93415504  0.55906690  1
  Te  Te125  1  0.75435154  0.93245493  0.90006525  1
  Te  Te126  1  0.24800285  0.25891111  0.08548888  1
  Te  Te127  1  0.25252977  0.22570394  0.42330232  1
  Te  Te128  1  0.25784807  0.21994180  0.73237151  1
  Te  Te129  1  0.24191817  0.64914587  0.06732048  1
  Te  Te130  1  0.26925719  0.57983130  0.41601033  1
  Te  Te131  1  0.25226321  0.57010048  0.75739936  1
  Te  Te132  1  0.24064919  0.90828167  0.09314145  1
  Te  Te133  1  0.19081265  0.92539366  0.49090230  1
  Te  Te134  1  0.25371092  0.95626190  0.71234648  1
  Te  Te135  1  0.56983699  0.26232187  0.08228711  1
  Te  Te136  1  0.61502568  0.27717194  0.38955213  1
  Te  Te137  1  0.59575496  0.24420537  0.76712610  1
  Te  Te138  1  0.58172843  0.62805942  0.07379903  1
  Te  Te139  1  0.58056186  0.60440872  0.40432233  1
  Te  Te140  1  0.60890692  0.59029914  0.75164704  1
  Te  Te141  1  0.53903558  0.89041752  0.11570952  1
  Te  Te142  1  0.56396633  0.89700349  0.39606399  1
  Te  Te143  1  0.61250849  0.95194877  0.72706700  1
  Te  Te144  1  0.94907254  0.22235859  0.06771427  1
  Te  Te145  1  0.89110035  0.23771736  0.40080719  1
  Te  Te146  1  0.89598676  0.20943935  0.75963701  1
  Te  Te147  1  0.93087250  0.59175361  0.09703045  1
  Te  Te148  1  0.93393736  0.60576215  0.42607035  1
  Te  Te149  1  0.93599247  0.58360405  0.76062308  1
  Te  Te150  1  0.92964190  0.97894089  0.12833578  1
  Te  Te151  1  0.94378830  0.86705449  0.42524354  1
  Te  Te152  1  0.91000229  0.94058146  0.74866997  1
  Te  Te153  1  0.25402971  0.04870642  0.28735289  1
  Te  Te154  1  0.23689437  0.10036860  0.53545162  1
  Te  Te155  1  0.25437356  0.04741529  0.92280179  1
  Te  Te156  1  0.25294800  0.41717097  0.23274935  1
  Te  Te157  1  0.25089302  0.38508591  0.57616604  1
  Te  Te158  1  0.25415696  0.42627217  0.92764241  1
  Te  Te159  1  0.21821164  0.77564282  0.28854938  1
  Te  Te160  1  0.26046583  0.73780883  0.60409483  1
  Te  Te161  1  0.22565401  0.76920152  0.87726240  1
  Te  Te162  1  0.60182626  0.07645630  0.22228243  1
  Te  Te163  1  0.56222506  0.10166415  0.57310157  1
  Te  Te164  1  0.58488932  0.04630697  0.96385112  1
  Te  Te165  1  0.59732589  0.44166307  0.24926812  1
  Te  Te166  1  0.59844051  0.39627188  0.58290105  1
  Te  Te167  1  0.58740807  0.41934005  0.88423590  1
  Te  Te168  1  0.53765653  0.78178490  0.22930238  1
  Te  Te169  1  0.57199140  0.76244204  0.59056349  1
  Te  Te170  1  0.57588561  0.78647007  0.91060412  1
  Te  Te171  1  0.93478919  0.04278239  0.29693312  1
  Te  Te172  1  0.90836147  0.05296416  0.55611061  1
  Te  Te173  1  0.86170192  0.04706431  0.93566217  1
  Te  Te174  1  0.91170372  0.42725642  0.24990609  1
  Te  Te175  1  0.93698552  0.42582957  0.58166591  1
  Te  Te176  1  0.90732726  0.39610830  0.89669018  1
  Te  Te177  1  0.89742199  0.77994027  0.22352439  1
  Te  Te178  1  0.91394530  0.75998419  0.62276002  1
  Te  Te179  1  0.90755343  0.76442957  0.93001799  1
