# generated using pymatgen
data_In2Te3
_symmetry_space_group_name_H-M   'P 1'
_cell_length_a   18.91885642
_cell_length_b   18.92959925
_cell_length_c   18.93755926
_cell_angle_alpha   90.03251141
_cell_angle_beta   90.03913595
_cell_angle_gamma   90.04602902
_symmetry_Int_Tables_number   1
_chemical_formula_structural   In2Te3
_chemical_formula_sum   'In72 Te108'
_cell_volume   6782.03449677
_cell_formula_units_Z   36
loop_
 _symmetry_equiv_pos_site_id
 _symmetry_equiv_pos_as_xyz
  1  'x, y, z'
loop_
 _atom_site_type_symbol
 _atom_site_label
 _atom_site_symmetry_multiplicity
 _atom_site_fract_x
 _atom_site_fract_y
 _atom_site_fract_z
 _atom_site_occupancy
  In  In0  1  0.03928593  0.14653021  0.19200129  1
  In  In1  1  0.67598493  0.51022989  0.49394050  1
  In  In2  1  0.84391162  0.85907548  0.33305835  1
  In  In3  1  0.29837606  0.62915899  0.02235400  1
  In  In4  1  0.64888642  0.15372745  0.49963735  1
  In  In5  1  0.84646905  0.16976261  0.63751338  1
  In  In6  1  0.16526329  0.83296380  0.33451774  1
  In  In7  1  0.00593575  0.13826244  0.49591137  1
  In  In8  1  0.00098676  0.66936775  0.35833812  1
  In  In9  1  0.34183815  0.15712039  0.46747841  1
  In  In10  1  0.43982123  0.12660726  0.68841379  1
  In  In11  1  0.00969054  0.31150054  0.32766748  1
  In  In12  1  -0.00319898  -0.01360875  -0.01253987  1
  In  In13  1  0.82140495  0.33044621  0.82449452  1
  In  In14  1  0.02323296  0.32070471  0.02823617  1
  In  In15  1  0.30579859  0.87163404  0.81045228  1
  In  In16  1  0.66029395  0.67845173  0.31404060  1
  In  In17  1  0.86726034  0.68256753  0.82313221  1
  In  In18  1  0.47596521  -0.01923204  0.19311381  1
  In  In19  1  0.84948547  0.83884611  0.66358705  1
  In  In20  1  0.02125425  0.15321354  0.85175564  1
  In  In21  1  0.66495859  0.00777558  0.64617370  1
  In  In22  1  0.49615551  0.68346965  0.82617100  1
  In  In23  1  0.15576355  0.00029906  0.50135872  1
  In  In24  1  0.68028059  0.66109550  -0.02241723  1
  In  In25  1  0.47065714  0.14673309  -0.00391915  1
  In  In26  1  0.84449569  0.65035041  0.15436705  1
  In  In27  1  0.16379024  0.50602719  0.34676178  1
  In  In28  1  0.34047598  0.48275729  0.85079298  1
  In  In29  1  0.53987162  0.49228992  -0.00019927  1
  In  In30  1  0.16905643  0.50360050  0.66001923  1
  In  In31  1  0.67855413  0.17599606  0.16327991  1
  In  In32  1  0.84876471  0.35177202  0.49270673  1
  In  In33  1  0.00368483  0.51049305  0.83479989  1
  In  In34  1  0.47812199  0.33326366  0.18980233  1
  In  In35  1  0.01232282  0.84350665  0.81662561  1
  In  In36  1  0.03296650  0.49606793  0.19080223  1
  In  In37  1  0.84968326  0.01887093  0.16908474  1
  In  In38  1  0.33752403  0.33470816  0.01271161  1
  In  In39  1  0.83803790  0.68291205  0.49153454  1
  In  In40  1  0.65956361  0.18250347  0.83033882  1
  In  In41  1  0.34692247  0.84567435  0.49344689  1
  In  In42  1  0.01849987  0.34587994  0.66850000  1
  In  In43  1  0.85087754  0.48659713  0.01567520  1
  In  In44  1  0.03339076  0.82258487  0.16533424  1
  In  In45  1  0.16877211  0.67245568  0.84131220  1
  In  In46  1  0.47969622  0.68586834  0.47228108  1
  In  In47  1  0.66575712  0.34800601  0.67858332  1
  In  In48  1  0.19117908  0.83860506  0.00688065  1
  In  In49  1  0.46679525  0.83322516  0.02444341  1
  In  In50  1  0.63549639  0.68223432  0.63938915  1
  In  In51  1  0.83897336  0.83640162  -0.03351138  1
  In  In52  1  0.19568189  0.17420464  0.69969784  1
  In  In53  1  0.84136668  -0.00051509  0.49685259  1
  In  In54  1  0.18511653  0.15420201  0.00528192  1
  In  In55  1  0.46758436  0.32758595  0.49227248  1
  In  In56  1  0.50094794  0.31993555  0.85085419  1
  In  In57  1  0.46503667  0.64705083  0.20909319  1
  In  In58  1  0.49951786  0.49838453  0.68448593  1
  In  In59  1  0.33087037  -0.00939330  0.00195845  1
  In  In60  1  0.49364310  0.16546192  0.32640426  1
  In  In61  1  0.30560135  0.68221021  0.63706233  1
  In  In62  1  0.68105479  0.85082297  0.82088103  1
  In  In63  1  0.18971185  0.31874136  0.49268526  1
  In  In64  1  0.86569233  0.29620231  0.16807237  1
  In  In65  1  -0.00632663  0.52196539  0.50867567  1
  In  In66  1  0.63930292  0.82951616  0.16028071  1
  In  In67  1  0.49522392  0.85221084  0.65025195  1
  In  In68  1  0.66068738  0.31817230  -0.00488455  1
  In  In69  1  0.63951367  -0.02603692  0.36334324  1
  In  In70  1  0.63655490  0.48922261  0.16628079  1
  In  In71  1  0.32456557  0.51078986  0.49130609  1
  Te  Te72  1  0.09684199  0.05596189  0.07796055  1
  Te  Te73  1  0.11929910  0.11147442  0.40105966  1
  Te  Te74  1  0.10017614  0.07704510  0.75548773  1
  Te  Te75  1  0.10917800  0.42665445  0.08503542  1
  Te  Te76  1  0.07421492  0.40916192  0.43405008  1
  Te  Te77  1  0.10894047  0.41459338  0.76604724  1
  Te  Te78  1  0.11427621  0.73691799  0.08044027  1
  Te  Te79  1  0.05507350  0.78854781  0.42760116  1
  Te  Te80  1  0.08884302  0.74329329  0.74192557  1
  Te  Te81  1  0.39484801  0.08089867  0.10989966  1
  Te  Te82  1  0.41894084  0.05654481  0.39145928  1
  Te  Te83  1  0.34590259  0.04927339  0.77247527  1
  Te  Te84  1  0.42987732  0.43307779  0.08562656  1
  Te  Te85  1  0.41267861  0.43234873  0.40051931  1
  Te  Te86  1  0.41148040  0.39465712  0.74917622  1
  Te  Te87  1  0.39367632  0.72256634  0.09583935  1
  Te  Te88  1  0.35276685  0.72336273  0.40026652  1
  Te  Te89  1  0.40457506  0.75734540  0.73089848  1
  Te  Te90  1  0.75248366  0.08169397  0.07990168  1
  Te  Te91  1  0.74340186  0.07778163  0.40982501  1
  Te  Te92  1  0.74754187  0.10170433  0.73107059  1
  Te  Te93  1  0.74412223  0.40580214  0.08892749  1
  Te  Te94  1  0.74897280  0.41675586  0.40806081  1
  Te  Te95  1  0.76258100  0.43653554  0.74308645  1
  Te  Te96  1  0.75081898  0.74995760  0.08232366  1
  Te  Te97  1  0.74549633  0.76599383  0.40467263  1
  Te  Te98  1  0.74341748  0.73939888  0.74054417  1
  Te  Te99  1  0.11808422  0.27081215  0.23389000  1
  Te  Te100  1  0.08393697  0.24492871  0.57832226  1
  Te  Te101  1  0.10767068  0.25608485  0.91928611  1
  Te  Te102  1  0.09979069  0.61523624  0.25856834  1
  Te  Te103  1  0.10215609  0.60196579  0.57058980  1
  Te  Te104  1  0.10577316  0.56846306  0.92301833  1
  Te  Te105  1  0.07727061  0.92454858  0.25837479  1
  Te  Te106  1  0.10004353  0.90889010  0.60600506  1
  Te  Te107  1  0.10745484  0.91907441  0.90831851  1
  Te  Te108  1  0.38478771  0.23924509  0.25551728  1
  Te  Te109  1  0.39775757  0.23626259  0.58889716  1
  Te  Te110  1  0.38391395  0.23076901  0.89775481  1
  Te  Te111  1  0.38439002  0.54657333  0.28157634  1
  Te  Te112  1  0.42812337  0.59457634  0.58860486  1
  Te  Te113  1  0.43739191  0.58003261  0.92093451  1
  Te  Te114  1  0.37543022  0.87931781  0.23085841  1
  Te  Te115  1  0.39067005  0.94161769  0.59847254  1
  Te  Te116  1  0.42182278  0.91269974  0.90586411  1
  Te  Te117  1  0.75939288  0.25232674  0.25741261  1
  Te  Te118  1  0.73854211  0.26034174  0.57439117  1
  Te  Te119  1  0.76603196  0.23384478  0.92804483  1
  Te  Te120  1  0.74302506  0.57592581  0.23821559  1
  Te  Te121  1  0.75372279  0.59908563  0.58792955  1
  Te  Te122  1  0.78854024  0.57958488  0.91191856  1
  Te  Te123  1  0.73270766  0.91742454  0.24428118  1
  Te  Te124  1  0.74768234  0.90605853  0.57108636  1
  Te  Te125  1  0.73742188  0.93370154  0.92770860  1
  Te  Te126  1  0.25866103  0.24388282  0.09750730  1
  Te  Te127  1  0.27833755  0.26683187  0.38702809  1
  Te  Te128  1  0.28418454  0.25759402  0.77998704  1
  Te  Te129  1  0.24723859  0.54873927  0.13227842  1
  Te  Te130  1  0.21805997  0.60477432  0.44630992  1
  Te  Te131  1  0.27318276  0.58078195  0.74987645  1
  Te  Te132  1  0.26521744  0.91305435  0.11296139  1
  Te  Te133  1  0.25622761  0.93491111  0.40786878  1
  Te  Te134  1  0.22527393  0.92042117  0.69186022  1
  Te  Te135  1  0.55606604  0.24811566  0.07733631  1
  Te  Te136  1  0.57714589  0.25650134  0.41407406  1
  Te  Te137  1  0.56339877  0.24476120  0.72777051  1
  Te  Te138  1  0.58302404  0.61243550  0.09008084  1
  Te  Te139  1  0.57835624  0.59003614  0.40730977  1
  Te  Te140  1  0.59554254  0.59090202  0.75681175  1
  Te  Te141  1  0.56714941  0.93313767  0.07669103  1
  Te  Te142  1  0.53361391  0.89068371  0.41492288  1
  Te  Te143  1  0.57817450  0.93474325  0.74824898  1
  Te  Te144  1  0.93912859  0.20679676  0.07650030  1
  Te  Te145  1  0.91384353  0.23538787  0.42045468  1
  Te  Te146  1  0.92561452  0.24783936  0.74357819  1
  Te  Te147  1  0.95259075  0.57708600  0.08125050  1
  Te  Te148  1  0.89505167  0.57043177  0.40442418  1
  Te  Te149  1  0.94797730  0.59995157  0.73317046  1
  Te  Te150  1  0.91427492  0.89810068  0.08903022  1
  Te  Te151  1  0.94471160  0.92412416  0.42001836  1
  Te  Te152  1  0.89572849  0.92411515  0.77432207  1
  Te  Te153  1  0.17563707  0.12400432  0.25707585  1
  Te  Te154  1  0.24269111  0.10533652  0.57114716  1
  Te  Te155  1  0.25421171  0.06900894  0.89884692  1
  Te  Te156  1  0.26279302  0.44929533  0.25156190  1
  Te  Te157  1  0.26564111  0.40995907  0.58831273  1
  Te  Te158  1  0.24267918  0.42387194  0.94119067  1
  Te  Te159  1  0.27946326  0.76060480  0.26717646  1
  Te  Te160  1  0.22782105  0.79651892  0.58017862  1
  Te  Te161  1  0.27923983  0.74669757  0.91417263  1
  Te  Te162  1  0.58987836  0.07515890  0.24617928  1
  Te  Te163  1  0.54750376  0.08086031  0.58293750  1
  Te  Te164  1  0.56922787  0.09198210  0.90238115  1
  Te  Te165  1  0.57787668  0.40518736  0.26968034  1
  Te  Te166  1  0.57064438  0.42023511  0.57334960  1
  Te  Te167  1  0.61205924  0.41797047  0.89048841  1
  Te  Te168  1  0.54578671  0.76616671  0.26252237  1
  Te  Te169  1  0.57777519  0.78616196  0.53828721  1
  Te  Te170  1  0.58672859  0.76576030  0.91897910  1
  Te  Te171  1  0.92840833  0.08440641  0.27077328  1
  Te  Te172  1  0.93717189  0.05400731  0.60338096  1
  Te  Te173  1  0.91090465  0.06745588  0.89843334  1
  Te  Te174  1  0.92166876  0.41111313  0.25034280  1
  Te  Te175  1  0.91382272  0.43356360  0.60374720  1
  Te  Te176  1  0.92757831  0.39419682  0.92149593  1
  Te  Te177  1  0.91161098  0.74505073  0.25201438  1
  Te  Te178  1  0.93285576  0.76326370  0.57054378  1
  Te  Te179  1  0.95286691  0.74719106  0.92868200  1
