# generated using pymatgen
data_In2Te3
_symmetry_space_group_name_H-M   'P 1'
_cell_length_a   18.82118774
_cell_length_b   18.83585639
_cell_length_c   18.83097253
_cell_angle_alpha   89.91816196
_cell_angle_beta   89.99596487
_cell_angle_gamma   90.07517191
_symmetry_Int_Tables_number   1
_chemical_formula_structural   In2Te3
_chemical_formula_sum   'In72 Te108'
_cell_volume   6675.81555659
_cell_formula_units_Z   36
loop_
 _symmetry_equiv_pos_site_id
 _symmetry_equiv_pos_as_xyz
  1  'x, y, z'
loop_
 _atom_site_type_symbol
 _atom_site_label
 _atom_site_symmetry_multiplicity
 _atom_site_fract_x
 _atom_site_fract_y
 _atom_site_fract_z
 _atom_site_occupancy
  In  In0  1  0.67875129  0.48175652  0.50105038  1
  In  In1  1  0.82864660  -0.00119833  0.17770771  1
  In  In2  1  0.85243844  0.53372103  0.65889117  1
  In  In3  1  0.49282496  0.19813985  -0.00077183  1
  In  In4  1  0.00795714  0.64875299  -0.00280452  1
  In  In5  1  -0.00817591  0.84305844  0.82044122  1
  In  In6  1  0.67455639  0.30433007  0.33281800  1
  In  In7  1  0.48700775  0.33958801  0.81733376  1
  In  In8  1  0.16032715  0.17118903  0.00593252  1
  In  In9  1  0.67595288  0.80576125  0.15328740  1
  In  In10  1  0.83294330  0.66779609  0.83722257  1
  In  In11  1  0.51651986  0.01152297  0.17929017  1
  In  In12  1  0.00812196  0.47968129  0.49871528  1
  In  In13  1  0.16520830  0.32574936  0.50055114  1
  In  In14  1  0.34907300  0.82714739  0.17037487  1
  In  In15  1  0.67441673  0.32528139  0.66401402  1
  In  In16  1  0.16337245  0.84554235  0.31929438  1
  In  In17  1  0.66356779  0.13524296  0.50012070  1
  In  In18  1  0.67271790  -0.02572656  -0.00188760  1
  In  In19  1  0.15694037  0.17502971  0.34538261  1
  In  In20  1  0.66696633  0.52922160  0.83964079  1
  In  In21  1  0.47723085  0.49560750  0.32080155  1
  In  In22  1  0.82166583  0.67588411  0.50369802  1
  In  In23  1  0.33346555  0.65869279  0.33666226  1
  In  In24  1  0.84476775  0.15408771  0.00238883  1
  In  In25  1  0.84188722  0.84609205  0.33394009  1
  In  In26  1  -0.01978838  0.67115516  0.67799071  1
  In  In27  1  0.18312985  0.82353916  0.00847944  1
  In  In28  1  0.85200365  0.34844684  0.83356503  1
  In  In29  1  0.68757716  0.12767153  0.82281120  1
  In  In30  1  0.16969183  -0.01821577  0.82427329  1
  In  In31  1  0.65266903  0.52676634  0.14837705  1
  In  In32  1  0.02032975  0.33255071  0.65545735  1
  In  In33  1  0.48707197  0.01077127  0.82300248  1
  In  In34  1  0.50355599  0.34454007  0.15309455  1
  In  In35  1  0.31055828  0.63987233  0.01239196  1
  In  In36  1  0.32312291  -0.01932260  -0.00633931  1
  In  In37  1  0.30929224  0.33728859  0.33173013  1
  In  In38  1  -0.01148921  0.00036142  0.65836199  1
  In  In39  1  0.49319070  0.67958309  0.84852395  1
  In  In40  1  0.16926171  0.81658882  0.68890205  1
  In  In41  1  0.16621132  0.49575028  0.67802602  1
  In  In42  1  0.86098476  0.34580653  0.16744857  1
  In  In43  1  0.49931751  0.14247739  0.35795072  1
  In  In44  1  0.34129773  0.65326233  0.66527057  1
  In  In45  1  -0.02877430  0.01223373  0.00603485  1
  In  In46  1  0.00122839  0.17768026  0.85167276  1
  In  In47  1  0.33803812  0.16028210  0.18865621  1
  In  In48  1  0.65814562  0.31118260  0.01318799  1
  In  In49  1  0.84829955  0.18143623  0.36445781  1
  In  In50  1  0.49344905  0.50864321  0.66520334  1
  In  In51  1  0.65967771  0.66410099  0.31361604  1
  In  In52  1  0.50346886  0.51506987  0.00612555  1
  In  In53  1  0.34036980  0.83654613  0.82013930  1
  In  In54  1  0.33251672  0.00492243  0.34461956  1
  In  In55  1  0.82704088  0.50161186  0.31774205  1
  In  In56  1  0.00118400  0.84490035  0.16810174  1
  In  In57  1  0.84905629  0.51312289  -0.00375862  1
  In  In58  1  0.82279717  0.13871835  0.65416407  1
  In  In59  1  0.66781512  0.82779259  0.83242822  1
  In  In60  1  -0.02009811  0.82812134  0.49248004  1
  In  In61  1  0.16838482  0.17843458  0.64576814  1
  In  In62  1  0.52803538  0.69033990  0.51095965  1
  In  In63  1  0.18176660  0.66363218  0.48746022  1
  In  In64  1  0.39286709  0.85311238  0.51924523  1
  In  In65  1  0.16975263  0.01030574  0.50224130  1
  In  In66  1  0.30852600  0.37817552  -0.00535715  1
  In  In67  1  0.48399580  0.16030496  0.66732397  1
  In  In68  1  0.15697973  0.36411739  0.14391934  1
  In  In69  1  0.01624112  0.63545617  0.30183010  1
  In  In70  1  0.00402883  0.17316089  0.16888626  1
  In  In71  1  0.32438207  0.32252605  0.66675908  1
  Te  Te72  1  0.08464122  0.06958864  0.09067326  1
  Te  Te73  1  0.07491322  0.06728693  0.40632009  1
  Te  Te74  1  0.08103832  0.08334096  0.74918331  1
  Te  Te75  1  0.07593262  0.44048810  0.04575857  1
  Te  Te76  1  0.09954989  0.41617663  0.40386149  1
  Te  Te77  1  0.06821099  0.42233079  0.76096669  1
  Te  Te78  1  0.08666157  0.74410750  0.09349392  1
  Te  Te79  1  0.07424680  0.74248771  0.40648574  1
  Te  Te80  1  0.08330119  0.72817679  0.77779415  1
  Te  Te81  1  0.41233221  0.08313658  0.07844905  1
  Te  Te82  1  0.41695764  0.06324646  0.45046333  1
  Te  Te83  1  0.39101336  0.10791597  0.76908963  1
  Te  Te84  1  0.40252948  0.44181532  0.09750064  1
  Te  Te85  1  0.40994891  0.40698934  0.41534391  1
  Te  Te86  1  0.39154134  0.43522778  0.75137185  1
  Te  Te87  1  0.40297411  0.74513333  0.05984736  1
  Te  Te88  1  0.43194579  0.75371933  0.41125265  1
  Te  Te89  1  0.43307982  0.75672760  0.72974228  1
  Te  Te90  1  0.73982612  0.08184713  0.08513760  1
  Te  Te91  1  0.74050631  0.07717820  0.38723314  1
  Te  Te92  1  0.73194008  0.03762762  0.71589885  1
  Te  Te93  1  0.74663379  0.41718042  0.07885023  1
  Te  Te94  1  0.76823765  0.39722068  0.41229590  1
  Te  Te95  1  0.74672098  0.43207419  0.74988925  1
  Te  Te96  1  0.75329277  0.72265906  0.06253714  1
  Te  Te97  1  0.73777018  0.75877224  0.40760623  1
  Te  Te98  1  0.74680654  0.73803716  0.74194321  1
  Te  Te99  1  0.08811456  0.27033181  0.24863484  1
  Te  Te100  1  0.04790097  0.22432936  0.54820262  1
  Te  Te101  1  0.10967709  0.26410008  0.90203130  1
  Te  Te102  1  0.12919899  0.56735989  0.23516933  1
  Te  Te103  1  0.07566834  0.59862556  0.58155431  1
  Te  Te104  1  0.12696889  0.55739560  0.95341039  1
  Te  Te105  1  0.05789681  0.93533835  0.27019062  1
  Te  Te106  1  0.08643363  0.89597599  0.58740834  1
  Te  Te107  1  0.07876685  0.91955661  0.93082302  1
  Te  Te108  1  0.43172475  0.25646710  0.25962150  1
  Te  Te109  1  0.42724714  0.26324727  0.57959507  1
  Te  Te110  1  0.39089307  0.26980469  0.91382141  1
  Te  Te111  1  0.42338582  0.59973277  0.23317971  1
  Te  Te112  1  0.42260923  0.58652634  0.55480074  1
  Te  Te113  1  0.40433005  0.57054006  0.90586892  1
  Te  Te114  1  0.42914124  0.91902415  0.26397354  1
  Te  Te115  1  0.47408690  0.94219619  0.60615503  1
  Te  Te116  1  0.43110072  0.90457179  0.92192798  1
  Te  Te117  1  0.77439484  0.24200976  0.23664085  1
  Te  Te118  1  0.75478379  0.24408130  0.56717785  1
  Te  Te119  1  0.75476339  0.24894073  0.91105583  1
  Te  Te120  1  0.76425502  0.60209511  0.22190000  1
  Te  Te121  1  0.72879588  0.59284813  0.59298582  1
  Te  Te122  1  0.73157638  0.61359622  0.95233243  1
  Te  Te123  1  0.73044930  0.91104043  0.25326882  1
  Te  Te124  1  0.71289735  0.89935629  0.51764035  1
  Te  Te125  1  0.76673282  0.91269810  0.90586310  1
  Te  Te126  1  0.26269040  0.25230787  0.09231198  1
  Te  Te127  1  0.26682048  0.23107053  0.43356576  1
  Te  Te128  1  0.22032036  0.26272640  0.75516539  1
  Te  Te129  1  0.20664340  0.57294596  0.09903193  1
  Te  Te130  1  0.24968862  0.56019875  0.40967953  1
  Te  Te131  1  0.23909125  0.59780189  0.75565979  1
  Te  Te132  1  0.24319072  0.92187011  0.10849131  1
  Te  Te133  1  0.25718758  0.89721701  0.42786138  1
  Te  Te134  1  0.26923652  0.92908727  0.72156247  1
  Te  Te135  1  0.58918070  0.22291779  0.11657161  1
  Te  Te136  1  0.57869284  0.24857202  0.43567225  1
  Te  Te137  1  0.59384321  0.24189706  0.76465983  1
  Te  Te138  1  0.55353296  0.62340376  0.09462697  1
  Te  Te139  1  0.58844803  0.57307574  0.41585675  1
  Te  Te140  1  0.58092435  0.60631451  0.74230233  1
  Te  Te141  1  0.57081857  0.90567666  0.08580497  1
  Te  Te142  1  0.57407363  0.90575332  0.46981365  1
  Te  Te143  1  0.57117755  0.91236361  0.74966887  1
  Te  Te144  1  0.93670832  0.25902945  0.06315901  1
  Te  Te145  1  0.94949851  0.26074756  0.43297136  1
  Te  Te146  1  0.90956848  0.24217410  0.73849653  1
  Te  Te147  1  0.92972984  0.57778117  0.10140616  1
  Te  Te148  1  0.91478838  0.58671943  0.42157635  1
  Te  Te149  1  0.93354127  0.56625045  0.78261717  1
  Te  Te150  1  0.89239764  0.90318922  0.07797781  1
  Te  Te151  1  0.89967777  0.93940766  0.43473562  1
  Te  Te152  1  0.89574946  0.91253160  0.73401279  1
  Te  Te153  1  0.23257524  0.07517140  0.25342627  1
  Te  Te154  1  0.26478234  0.08393818  0.58663200  1
  Te  Te155  1  0.24548106  0.08205735  0.91188599  1
  Te  Te156  1  0.24840887  0.43748112  0.23819640  1
  Te  Te157  1  0.25286630  0.42527987  0.57646568  1
  Te  Te158  1  0.22401828  0.44916067  0.89972503  1
  Te  Te159  1  0.24358824  0.74321199  0.24292577  1
  Te  Te160  1  0.26384431  0.75604299  0.57854212  1
  Te  Te161  1  0.25497493  0.74276755  0.90474322  1
  Te  Te162  1  0.60662975  0.07471718  0.27984150  1
  Te  Te163  1  0.58048591  0.06247217  0.60297712  1
  Te  Te164  1  0.58142678  0.09143777  0.92785981  1
  Te  Te165  1  0.60387718  0.41778238  0.25147898  1
  Te  Te166  1  0.57336436  0.40731431  0.58375039  1
  Te  Te167  1  0.58638662  0.41516432  0.91667126  1
  Te  Te168  1  0.56796476  0.75681781  0.24437958  1
  Te  Te169  1  0.61548708  0.79206704  0.57861239  1
  Te  Te170  1  0.58920932  0.75105199  0.93338129  1
  Te  Te171  1  0.91899766  0.08797498  0.25978021  1
  Te  Te172  1  0.89921588  0.05866036  0.55399758  1
  Te  Te173  1  0.89715244  0.07004736  0.88554502  1
  Te  Te174  1  0.94150195  0.43079693  0.25616692  1
  Te  Te175  1  0.90388434  0.41194791  0.58712898  1
  Te  Te176  1  0.94173478  0.41207343  0.93451109  1
  Te  Te177  1  0.91963184  0.74424224  0.25086437  1
  Te  Te178  1  0.89029281  0.77046153  0.60249657  1
  Te  Te179  1  0.92233385  0.75443703  0.92454472  1
