# generated using pymatgen
data_In2Te3
_symmetry_space_group_name_H-M   'P 1'
_cell_length_a   18.83020717
_cell_length_b   18.83405785
_cell_length_c   18.82864780
_cell_angle_alpha   89.95136193
_cell_angle_beta   89.99357768
_cell_angle_gamma   90.03119698
_symmetry_Int_Tables_number   1
_chemical_formula_structural   In2Te3
_chemical_formula_sum   'In72 Te108'
_cell_volume   6677.56165119
_cell_formula_units_Z   36
loop_
 _symmetry_equiv_pos_site_id
 _symmetry_equiv_pos_as_xyz
  1  'x, y, z'
loop_
 _atom_site_type_symbol
 _atom_site_label
 _atom_site_symmetry_multiplicity
 _atom_site_fract_x
 _atom_site_fract_y
 _atom_site_fract_z
 _atom_site_occupancy
  In  In0  1  0.81941118  0.49503959  -0.00404439  1
  In  In1  1  0.50407351  0.48032747  0.63865627  1
  In  In2  1  0.15632297  0.31232134  0.83754863  1
  In  In3  1  0.01842861  0.03304651  0.34429458  1
  In  In4  1  0.67308346  0.00875218  0.34429730  1
  In  In5  1  -0.01027998  0.17659136  0.14897050  1
  In  In6  1  0.84782736  0.69897794  0.53538813  1
  In  In7  1  0.64537846  0.83396407  0.15344151  1
  In  In8  1  -0.01717980  0.49362767  0.85142427  1
  In  In9  1  0.36776089  0.65549822  0.66704210  1
  In  In10  1  0.00938602  0.48080843  0.48036940  1
  In  In11  1  0.49332100  0.64978529  0.51636566  1
  In  In12  1  0.64415323  0.49156017  0.17177495  1
  In  In13  1  0.80768644  0.66147154  0.16111182  1
  In  In14  1  0.49439621  0.86030710  0.66024637  1
  In  In15  1  0.00039816  0.83937240  0.17745545  1
  In  In16  1  0.80087731  0.88343520  -0.02897317  1
  In  In17  1  0.00778449  0.00564821  0.65715284  1
  In  In18  1  0.84523187  0.00870990  0.15949713  1
  In  In19  1  -0.02046628  0.64207917  -0.02234242  1
  In  In20  1  0.31308490  0.30983567  0.34883608  1
  In  In21  1  0.50770140  0.66468513  0.17763050  1
  In  In22  1  0.00970045  0.67214273  0.34172848  1
  In  In23  1  0.65659424  0.14773087  0.83058103  1
  In  In24  1  0.67138555  0.48247341  0.48556369  1
  In  In25  1  0.51775409  0.68775691  0.83936140  1
  In  In26  1  -0.00249896  0.85363087  0.81125235  1
  In  In27  1  0.46195735  0.02567964  0.15977496  1
  In  In28  1  0.51181215  0.18830707  0.35562447  1
  In  In29  1  0.52500856  0.85595037  0.31191046  1
  In  In30  1  0.67256494  0.32626236  -0.01673283  1
  In  In31  1  0.84219481  0.19225175  0.65469501  1
  In  In32  1  0.67712031  0.67945955  0.68087871  1
  In  In33  1  0.18144786  0.50108949  0.65811972  1
  In  In34  1  0.34860864  0.29716265  -0.00689004  1
  In  In35  1  0.17303052  0.83860538  0.02435801  1
  In  In36  1  0.34637826  0.85415524  0.50367147  1
  In  In37  1  0.81657704  0.01749837  0.50400816  1
  In  In38  1  0.16970423  0.33377772  0.17574385  1
  In  In39  1  0.34741050  0.16044753  0.83113780  1
  In  In40  1  0.82084874  0.84527495  0.36525705  1
  In  In41  1  0.15262908  0.01483464  0.81157315  1
  In  In42  1  0.49771437  0.49652180  0.01405365  1
  In  In43  1  0.49638647  0.00856708  0.48543290  1
  In  In44  1  0.02194608  0.30138509  0.35535501  1
  In  In45  1  0.31886517  0.67651888  0.01800761  1
  In  In46  1  0.15344064  0.16398910  0.00820927  1
  In  In47  1  0.34072430  0.66515302  0.33846711  1
  In  In48  1  0.02465540  0.31135461  0.65172492  1
  In  In49  1  0.30425065  0.29754501  0.63163538  1
  In  In50  1  0.66464103  -0.00938939  0.66001739  1
  In  In51  1  0.16904940  0.66620477  0.49288901  1
  In  In52  1  0.82527843  0.49157359  0.69356391  1
  In  In53  1  0.13997175  0.69558133  0.84726201  1
  In  In54  1  0.49850891  0.15767984  0.67067417  1
  In  In55  1  0.68832445  0.49508446  0.81928911  1
  In  In56  1  0.20244166  0.03515034  0.19288214  1
  In  In57  1  0.33258191  0.83297711  0.16919264  1
  In  In58  1  0.70068556  0.17042913  0.18759029  1
  In  In59  1  0.85944549  0.48327643  0.31859211  1
  In  In60  1  0.46947585  0.31075464  0.83185594  1
  In  In61  1  0.15505744  0.63328819  0.16695129  1
  In  In62  1  0.46938549  0.47577716  0.34165176  1
  In  In63  1  0.82746002  0.68228859  0.81829514  1
  In  In64  1  0.83504516  0.32924208  0.49335177  1
  In  In65  1  -0.02043173  0.03379930  -0.03674535  1
  In  In66  1  0.49677176  0.88066735  -0.03605926  1
  In  In67  1  0.17368397  0.85278406  0.66938305  1
  In  In68  1  0.49569475  0.31294530  0.15407356  1
  In  In69  1  0.00767679  0.46002079  0.17768175  1
  In  In70  1  0.17130897  0.83328566  0.36490498  1
  In  In71  1  0.32739157  0.49810536  0.82760196  1
  Te  Te72  1  0.07645483  0.05961559  0.09150081  1
  Te  Te73  1  0.11980408  0.10414897  0.42875208  1
  Te  Te74  1  0.05229836  0.10963612  0.75680652  1
  Te  Te75  1  0.08699555  0.39884999  0.07079017  1
  Te  Te76  1  0.11531353  0.40114149  0.41567109  1
  Te  Te77  1  0.08653722  0.42163830  0.75226721  1
  Te  Te78  1  0.07188041  0.73653275  0.08112524  1
  Te  Te79  1  0.06064496  0.76779674  0.44758762  1
  Te  Te80  1  0.06436631  0.74759809  0.71991365  1
  Te  Te81  1  0.39939668  0.11755008  0.06337064  1
  Te  Te82  1  0.40316251  0.09249177  0.40279348  1
  Te  Te83  1  0.45110668  0.06282027  0.77814847  1
  Te  Te84  1  0.39848522  0.41000810  0.08750077  1
  Te  Te85  1  0.41759327  0.37385279  0.43611502  1
  Te  Te86  1  0.39880111  0.40502744  0.72974097  1
  Te  Te87  1  0.43517947  0.76225625  0.08186680  1
  Te  Te88  1  0.43188585  0.75927626  0.41599187  1
  Te  Te89  1  0.41653330  0.76715589  0.75645186  1
  Te  Te90  1  0.76760030  0.10087515  0.07097071  1
  Te  Te91  1  0.75840847  0.11128857  0.40431948  1
  Te  Te92  1  0.75827312  0.08857582  0.73163549  1
  Te  Te93  1  0.74465538  0.40540268  0.09405148  1
  Te  Te94  1  0.74801164  0.39531270  0.38355451  1
  Te  Te95  1  0.75565409  0.37957727  0.75950458  1
  Te  Te96  1  0.75389396  0.76789809  0.06888230  1
  Te  Te97  1  0.74913599  0.73709032  0.43326835  1
  Te  Te98  1  0.75995035  0.78670706  0.73900901  1
  Te  Te99  1  0.09731017  0.22181698  0.24872384  1
  Te  Te100  1  0.10031980  0.22497743  0.55508216  1
  Te  Te101  1  0.05454099  0.24587842  0.92912470  1
  Te  Te102  1  0.08115330  0.55549352  0.27478978  1
  Te  Te103  1  0.07693771  0.57887187  0.57805594  1
  Te  Te104  1  0.10000771  0.56858097  0.92232853  1
  Te  Te105  1  0.09787247  0.92548598  0.25697452  1
  Te  Te106  1  0.10961201  0.93974354  0.56930406  1
  Te  Te107  1  0.08747568  0.91540238  0.92026709  1
  Te  Te108  1  0.40646177  0.23314487  0.24750360  1
  Te  Te109  1  0.42081429  0.23330112  0.56801398  1
  Te  Te110  1  0.45898319  0.20161188  0.94273389  1
  Te  Te111  1  0.40397303  0.57231952  0.23487670  1
  Te  Te112  1  0.38921833  0.54832102  0.56226651  1
  Te  Te113  1  0.41522245  0.58872301  0.91612477  1
  Te  Te114  1  0.40008663  0.92694753  0.26743802  1
  Te  Te115  1  0.40001433  0.96270311  0.59715888  1
  Te  Te116  1  0.40218934  0.95820008  0.88449360  1
  Te  Te117  1  0.76951855  0.27533007  0.26143520  1
  Te  Te118  1  0.73432250  0.24945997  0.56912907  1
  Te  Te119  1  0.76042338  0.23044312  0.90762370  1
  Te  Te120  1  0.74297628  0.56845614  0.26096070  1
  Te  Te121  1  0.74497625  0.57096822  0.58868599  1
  Te  Te122  1  0.74147913  0.59884027  0.91601895  1
  Te  Te123  1  0.75185132  0.91610374  0.23947269  1
  Te  Te124  1  0.75689616  0.90598677  0.57967273  1
  Te  Te125  1  0.69981496  0.95488461  0.88385494  1
  Te  Te126  1  0.25967336  0.22871551  0.09548738  1
  Te  Te127  1  0.22975183  0.21655409  0.43781797  1
  Te  Te128  1  0.23627529  0.22181512  0.74488966  1
  Te  Te129  1  0.24528593  0.56354908  0.07468504  1
  Te  Te130  1  0.25107603  0.57496857  0.41164509  1
  Te  Te131  1  0.24507087  0.60888241  0.75745086  1
  Te  Te132  1  0.26685125  0.94187698  0.08528758  1
  Te  Te133  1  0.24174567  0.93842593  0.43985419  1
  Te  Te134  1  0.26315545  0.93588994  0.75214982  1
  Te  Te135  1  0.60310138  0.23337689  0.08341835  1
  Te  Te136  1  0.58184792  0.26921066  0.45730328  1
  Te  Te137  1  0.58401972  0.25681639  0.74752409  1
  Te  Te138  1  0.59602662  0.59766105  0.07184744  1
  Te  Te139  1  0.57020611  0.56993042  0.41125381  1
  Te  Te140  1  0.57033991  0.57452202  0.74104869  1
  Te  Te141  1  0.57373053  0.94791087  0.08533620  1
  Te  Te142  1  0.60022647  0.90817302  0.43253723  1
  Te  Te143  1  0.59473054  0.90504153  0.76267205  1
  Te  Te144  1  0.94437800  0.26379969  0.03900638  1
  Te  Te145  1  0.92327864  0.22421846  0.43480127  1
  Te  Te146  1  0.94250800  0.24203779  0.75486903  1
  Te  Te147  1  0.91810454  0.57135579  0.10060004  1
  Te  Te148  1  0.90659306  0.58646506  0.42568478  1
  Te  Te149  1  0.92733311  0.59111441  0.74873713  1
  Te  Te150  1  0.92422018  0.91450427  0.06832313  1
  Te  Te151  1  0.92672029  0.93450010  0.42044033  1
  Te  Te152  1  0.90219005  0.93928072  0.74042501  1
  Te  Te153  1  0.29652501  0.10248877  0.28359190  1
  Te  Te154  1  0.21459729  0.12257822  0.56479633  1
  Te  Te155  1  0.24254939  0.08471914  0.91483489  1
  Te  Te156  1  0.25689130  0.41588679  0.26121604  1
  Te  Te157  1  0.22502409  0.40023657  0.55933570  1
  Te  Te158  1  0.25716599  0.39573770  0.91635192  1
  Te  Te159  1  0.23236766  0.74701186  0.24628145  1
  Te  Te160  1  0.26789199  0.74853688  0.58415652  1
  Te  Te161  1  0.25653003  0.77015907  0.91500332  1
  Te  Te162  1  0.57656253  0.08415743  0.25347212  1
  Te  Te163  1  0.59267560  0.09016153  0.56983028  1
  Te  Te164  1  0.60080844  0.05569760  0.93441963  1
  Te  Te165  1  0.57020694  0.39308815  0.26051439  1
  Te  Te166  1  0.59349694  0.38116947  0.56868799  1
  Te  Te167  1  0.56612878  0.41463709  0.90486558  1
  Te  Te168  1  0.60838611  0.73673735  0.26620693  1
  Te  Te169  1  0.57880645  0.75251213  0.58908441  1
  Te  Te170  1  0.59605561  0.77839752  0.92360835  1
  Te  Te171  1  0.91207569  0.10136003  0.25860551  1
  Te  Te172  1  0.92849596  0.10156510  0.56546690  1
  Te  Te173  1  0.85476781  0.10204626  0.92717265  1
  Te  Te174  1  0.91529257  0.35901830  0.24579975  1
  Te  Te175  1  0.92438853  0.41683527  0.59211586  1
  Te  Te176  1  0.90548856  0.39360468  0.92947769  1
  Te  Te177  1  0.90590788  0.74634384  0.25469223  1
  Te  Te178  1  0.93414980  0.76872931  0.62762932  1
  Te  Te179  1  0.91580649  0.76430315  0.91510284  1
