# generated using pymatgen
data_In2Te3
_symmetry_space_group_name_H-M   'P 1'
_cell_length_a   18.84449332
_cell_length_b   18.85509183
_cell_length_c   18.84634610
_cell_angle_alpha   89.94123888
_cell_angle_beta   89.96481382
_cell_angle_gamma   90.02890275
_symmetry_Int_Tables_number   1
_chemical_formula_structural   In2Te3
_chemical_formula_sum   'In72 Te108'
_cell_volume   6696.37727193
_cell_formula_units_Z   36
loop_
 _symmetry_equiv_pos_site_id
 _symmetry_equiv_pos_as_xyz
  1  'x, y, z'
loop_
 _atom_site_type_symbol
 _atom_site_label
 _atom_site_symmetry_multiplicity
 _atom_site_fract_x
 _atom_site_fract_y
 _atom_site_fract_z
 _atom_site_occupancy
  In  In0  1  0.00812638  0.48270044  0.17139188  1
  In  In1  1  0.16480294  0.16782191  0.31140298  1
  In  In2  1  0.30732313  0.50987155  0.82611988  1
  In  In3  1  0.67416832  0.33706007  -0.01377443  1
  In  In4  1  0.15384147  0.18244965  0.01346097  1
  In  In5  1  0.18044288  0.17170548  0.67135166  1
  In  In6  1  0.70355406  0.20211918  0.84083711  1
  In  In7  1  0.00710439  0.67431993  -0.00720544  1
  In  In8  1  0.02170838  0.79201797  0.49428084  1
  In  In9  1  0.84106942  0.49819601  -0.03451872  1
  In  In10  1  0.50885188  0.01459264  0.83421836  1
  In  In11  1  0.82815393  0.82971166  0.31621118  1
  In  In12  1  0.82194875  0.17417804  0.67388422  1
  In  In13  1  0.33965995  0.33762769  0.33210928  1
  In  In14  1  0.48402682  0.81418224  0.64948308  1
  In  In15  1  0.65795915  0.49746365  0.16627367  1
  In  In16  1  0.68519192  0.66316450  -0.02059599  1
  In  In17  1  -0.01655732  0.17383587  0.49141752  1
  In  In18  1  0.66572766  0.64888007  0.68557144  1
  In  In19  1  0.34789300  -0.00300946  0.01123817  1
  In  In20  1  0.14825179  0.37150720  0.50181565  1
  In  In21  1  0.49058213  0.66075062  0.17440548  1
  In  In22  1  0.82013056  0.01426926  0.16708293  1
  In  In23  1  0.16097611  0.51320937  0.33966913  1
  In  In24  1  0.66503420  0.86974538  0.16967602  1
  In  In25  1  0.31712520  0.64813954  -0.01218643  1
  In  In26  1  0.49925417  0.50285959  0.66323358  1
  In  In27  1  0.02332634  0.81575255  0.17683742  1
  In  In28  1  0.66197210  0.02602608  0.66789006  1
  In  In29  1  0.67698251  0.83232451  0.83572521  1
  In  In30  1  0.51275153  0.18313415  0.31601636  1
  In  In31  1  0.31891537  0.51577092  0.47428288  1
  In  In32  1  0.14953782  0.52858951  0.65943882  1
  In  In33  1  0.17431045  0.77968564  0.65439578  1
  In  In34  1  0.01773760  0.82505483  0.82630668  1
  In  In35  1  0.49306860  0.16198158  0.00412591  1
  In  In36  1  0.84948791  0.68629202  0.17021736  1
  In  In37  1  0.51311824  0.34408198  0.84401083  1
  In  In38  1  0.32991431  -0.02420599  0.33327657  1
  In  In39  1  0.00323156  -0.01898598  0.67841684  1
  In  In40  1  0.66971753  0.66723142  0.36192485  1
  In  In41  1  0.84541842  0.84516539  -0.01011776  1
  In  In42  1  -0.03432845  -0.00222213  0.31946910  1
  In  In43  1  0.18177627  -0.01098531  0.48281450  1
  In  In44  1  0.30637554  0.18761109  0.82030721  1
  In  In45  1  0.84395642  0.66262758  0.50310912  1
  In  In46  1  0.32012866  0.30043543  0.66963662  1
  In  In47  1  0.15174600  0.00220986  0.15858058  1
  In  In48  1  0.66019189  0.34389600  0.32614356  1
  In  In49  1  0.01006071  0.36511741  0.68547375  1
  In  In50  1  0.32308595  0.80183070  0.82837920  1
  In  In51  1  0.52651830  0.85310132  0.34400257  1
  In  In52  1  0.16145424  0.51170452  0.00595868  1
  In  In53  1  0.32251911  0.64588252  0.32983163  1
  In  In54  1  0.66632047  0.52671116  0.50251353  1
  In  In55  1  0.65742847  0.16149673  0.15873810  1
  In  In56  1  -0.03549971  0.16113598  0.87209886  1
  In  In57  1  0.52487125  0.83292564  0.00323334  1
  In  In58  1  0.35099881  0.36670297  0.03557729  1
  In  In59  1  0.86463905  0.84644687  0.66226159  1
  In  In60  1  0.31831298  0.82475079  0.17973923  1
  In  In61  1  0.86105196  0.49879376  0.32769766  1
  In  In62  1  0.35647008  -0.04704450  0.66624919  1
  In  In63  1  0.50259790  0.15935442  0.64560053  1
  In  In64  1  0.81338020  0.00169231  0.48495501  1
  In  In65  1  0.83110696  0.33856754  0.53285840  1
  In  In66  1  0.16001712  0.34138888  0.14387186  1
  In  In67  1  0.83498776  0.17292546  0.31835605  1
  In  In68  1  0.49828904  0.66029766  0.49036989  1
  In  In69  1  0.33493358  0.16559001  0.48632233  1
  In  In70  1  0.68676956  0.34968849  0.67087368  1
  In  In71  1  0.14930525  -0.01116295  0.84841441  1
  Te  Te72  1  0.06372988  0.07863107  0.06779712  1
  Te  Te73  1  0.07470828  0.08040895  0.41124286  1
  Te  Te74  1  0.07893606  0.08927617  0.75651823  1
  Te  Te75  1  0.05755699  0.40552808  0.05043869  1
  Te  Te76  1  0.06247972  0.41546016  0.39187812  1
  Te  Te77  1  0.08003793  0.46117464  0.77530878  1
  Te  Te78  1  0.10500901  0.74671692  0.07564317  1
  Te  Te79  1  0.13281708  0.74601499  0.40727159  1
  Te  Te80  1  0.08661806  0.71481006  0.75360761  1
  Te  Te81  1  0.42685765  0.07737083  0.10429044  1
  Te  Te82  1  0.41911904  0.07968239  0.39836268  1
  Te  Te83  1  0.40620548  0.09084710  0.74562683  1
  Te  Te84  1  0.44357476  0.43771909  0.12419066  1
  Te  Te85  1  0.41796895  0.41949243  0.42560527  1
  Te  Te86  1  0.40874335  0.40447325  0.74795250  1
  Te  Te87  1  0.41628551  0.75549263  0.07670967  1
  Te  Te88  1  0.42450358  0.74179730  0.38648971  1
  Te  Te89  1  0.42383982  0.72707254  0.75203153  1
  Te  Te90  1  0.76410872  0.10758616  0.06364636  1
  Te  Te91  1  0.74447430  0.11229993  0.41890088  1
  Te  Te92  1  0.76074308  0.07594705  0.77319292  1
  Te  Te93  1  0.75857905  0.42773516  0.07720481  1
  Te  Te94  1  0.75795550  0.43114804  0.42163503  1
  Te  Te95  1  0.79044040  0.39871153  0.76961798  1
  Te  Te96  1  0.74319435  0.75814666  0.08652286  1
  Te  Te97  1  0.75534108  0.76807097  0.43621270  1
  Te  Te98  1  0.76222365  0.75568655  0.73717935  1
  Te  Te99  1  0.07174179  0.26745054  0.24576552  1
  Te  Te100  1  0.07863849  0.25174174  0.58214143  1
  Te  Te101  1  0.07049064  0.25406976  0.91598160  1
  Te  Te102  1  0.08993579  0.58784264  0.23350863  1
  Te  Te103  1  0.04157224  0.55176293  0.55950283  1
  Te  Te104  1  0.06283607  0.56602745  0.90645122  1
  Te  Te105  1  0.08688340  0.91911240  0.26987236  1
  Te  Te106  1  0.09369541  0.90396768  0.58324715  1
  Te  Te107  1  0.05772109  0.91549531  0.93561814  1
  Te  Te108  1  0.40178760  0.24349584  0.23906401  1
  Te  Te109  1  0.42444652  0.26140312  0.56418494  1
  Te  Te110  1  0.40816509  0.25592020  0.91482965  1
  Te  Te111  1  0.39875117  0.55820647  0.23424226  1
  Te  Te112  1  0.40290454  0.59014500  0.58573356  1
  Te  Te113  1  0.41106657  0.56038537  0.91658004  1
  Te  Te114  1  0.43100782  0.91028504  0.23858425  1
  Te  Te115  1  0.42840738  0.90598578  0.54359251  1
  Te  Te116  1  0.41733770  0.91256297  0.90296043  1
  Te  Te117  1  0.74675482  0.26233867  0.23107597  1
  Te  Te118  1  0.72584065  0.23401341  0.57529303  1
  Te  Te119  1  0.79965419  0.26387656  0.93985443  1
  Te  Te120  1  0.75530143  0.59111577  0.25376752  1
  Te  Te121  1  0.77093056  0.57127394  0.60310586  1
  Te  Te122  1  0.77236374  0.59716653  0.87377092  1
  Te  Te123  1  0.73845094  0.94645492  0.28011081  1
  Te  Te124  1  0.74914503  0.92034880  0.59597914  1
  Te  Te125  1  0.72729235  0.92087849  0.94231033  1
  Te  Te126  1  0.26790872  0.24691367  0.09036554  1
  Te  Te127  1  0.22571640  0.25248388  0.42444710  1
  Te  Te128  1  0.20349129  0.28761639  0.76934593  1
  Te  Te129  1  0.25704349  0.57321627  0.09962794  1
  Te  Te130  1  0.21178250  0.63043229  0.47519743  1
  Te  Te131  1  0.24038636  0.61403006  0.74344147  1
  Te  Te132  1  0.24223426  0.90957335  0.07689970  1
  Te  Te133  1  0.25681923  0.87882552  0.41980284  1
  Te  Te134  1  0.23357873  0.90721203  0.74731744  1
  Te  Te135  1  0.57633412  0.26515521  0.07922672  1
  Te  Te136  1  0.58298890  0.26169657  0.41984673  1
  Te  Te137  1  0.58310292  0.24707076  0.74343568  1
  Te  Te138  1  0.58471271  0.59355431  0.07287670  1
  Te  Te139  1  0.56567871  0.56091750  0.39311329  1
  Te  Te140  1  0.59669779  0.54519976  0.76760082  1
  Te  Te141  1  0.59172057  0.94715529  0.06776583  1
  Te  Te142  1  0.57321365  0.91854933  0.46563558  1
  Te  Te143  1  0.57513767  0.91418833  0.73984062  1
  Te  Te144  1  0.95132570  0.25215107  0.14875242  1
  Te  Te145  1  0.90529003  0.27441737  0.41259147  1
  Te  Te146  1  0.93725092  0.24161752  0.74199479  1
  Te  Te147  1  0.91199485  0.58218776  0.08071227  1
  Te  Te148  1  0.94151922  0.58676462  0.41882492  1
  Te  Te149  1  0.86505430  0.52925252  0.76708132  1
  Te  Te150  1  0.90963734  0.90143354  0.11545032  1
  Te  Te151  1  0.92535492  0.90287486  0.43331040  1
  Te  Te152  1  0.90719648  0.92890759  0.78251860  1
  Te  Te153  1  0.25890041  0.07553005  0.23834639  1
  Te  Te154  1  0.26321981  0.07097575  0.58743483  1
  Te  Te155  1  0.25203088  0.08210906  0.91777193  1
  Te  Te156  1  0.23977412  0.41806225  0.25023371  1
  Te  Te157  1  0.25596077  0.42358982  0.59472622  1
  Te  Te158  1  0.25174437  0.41096421  0.93163804  1
  Te  Te159  1  0.22731198  0.73628918  0.25759257  1
  Te  Te160  1  0.28109580  0.73383815  0.56675561  1
  Te  Te161  1  0.22772292  0.74964618  0.92710678  1
  Te  Te162  1  0.59435465  0.07339050  0.25842393  1
  Te  Te163  1  0.57229473  0.06436274  0.55397696  1
  Te  Te164  1  0.59979004  0.10722396  0.91043070  1
  Te  Te165  1  0.55850544  0.40548129  0.23080332  1
  Te  Te166  1  0.58875865  0.41655326  0.57491949  1
  Te  Te167  1  0.60165688  0.44319663  0.90958526  1
  Te  Te168  1  0.59874699  0.74729232  0.24650089  1
  Te  Te169  1  0.59594217  0.73480840  0.57999725  1
  Te  Te170  1  0.57641829  0.73514724  0.89836926  1
  Te  Te171  1  0.93943162  0.11202921  0.21568754  1
  Te  Te172  1  0.91629203  0.07343805  0.58712372  1
  Te  Te173  1  0.88817312  0.08428399  0.96926904  1
  Te  Te174  1  0.90051952  0.39357559  0.22690980  1
  Te  Te175  1  0.93387499  0.44213598  0.58106697  1
  Te  Te176  1  0.89353148  0.38193195  0.88789614  1
  Te  Te177  1  0.94165265  0.73588032  0.28053762  1
  Te  Te178  1  0.94035343  0.72729833  0.60557840  1
  Te  Te179  1  0.90762256  0.74153483  0.89904752  1
