# generated using pymatgen
data_In2Te3
_symmetry_space_group_name_H-M   'P 1'
_cell_length_a   18.76264142
_cell_length_b   18.75351830
_cell_length_c   18.77452357
_cell_angle_alpha   90.00445737
_cell_angle_beta   90.09749072
_cell_angle_gamma   89.99361665
_symmetry_Int_Tables_number   1
_chemical_formula_structural   In2Te3
_chemical_formula_sum   'In72 Te108'
_cell_volume   6606.09823570
_cell_formula_units_Z   36
loop_
 _symmetry_equiv_pos_site_id
 _symmetry_equiv_pos_as_xyz
  1  'x, y, z'
loop_
 _atom_site_type_symbol
 _atom_site_label
 _atom_site_symmetry_multiplicity
 _atom_site_fract_x
 _atom_site_fract_y
 _atom_site_fract_z
 _atom_site_occupancy
  In  In0  1  0.01207292  0.66515430  0.66899249  1
  In  In1  1  0.49180307  0.17318122  -0.00475286  1
  In  In2  1  0.01638972  0.82065711  0.49817147  1
  In  In3  1  0.49451771  0.81324425  -0.01349122  1
  In  In4  1  0.82137545  0.17407683  0.68053560  1
  In  In5  1  0.47821348  0.02058087  0.79499732  1
  In  In6  1  0.31310830  0.03351152  0.34054909  1
  In  In7  1  0.66084614  0.50214704  0.16219033  1
  In  In8  1  0.01532279  0.32774870  0.65951462  1
  In  In9  1  0.48668177  0.83740765  0.34275050  1
  In  In10  1  0.49854294  0.49004551  0.33938313  1
  In  In11  1  0.81827605  0.82092762  0.67254010  1
  In  In12  1  0.70543885  0.80541773  0.14647956  1
  In  In13  1  0.84832754  0.33849292  0.16703840  1
  In  In14  1  0.17905266  0.33690895  0.81803158  1
  In  In15  1  0.18635147  0.82374786  -0.01573569  1
  In  In16  1  0.00104783  0.37099230  0.02399239  1
  In  In17  1  0.65713846  -0.00342484  0.30715325  1
  In  In18  1  0.17355861  0.19053842  0.00920192  1
  In  In19  1  0.13780821  0.19517399  0.30697513  1
  In  In20  1  0.82475169  0.01241605  0.17575318  1
  In  In21  1  0.33420456  0.80419586  0.81671500  1
  In  In22  1  0.33975714  0.33049519  0.66407389  1
  In  In23  1  0.65838322  0.18360764  0.83778516  1
  In  In24  1  0.31574136  0.80303060  0.53819224  1
  In  In25  1  0.50707323  0.02623162  0.14904836  1
  In  In26  1  0.51333397  0.66934902  0.15411862  1
  In  In27  1  0.31989042  0.17272815  0.51350470  1
  In  In28  1  0.31987753  0.51577615  0.82213807  1
  In  In29  1  0.18874558  0.00069042  0.51170475  1
  In  In30  1  0.35892825  0.52607535  0.51988240  1
  In  In31  1  0.81311490  0.49467510  0.67170854  1
  In  In32  1  0.01384243  -0.00637857  0.65026144  1
  In  In33  1  -0.00685739  0.52369312  0.48803770  1
  In  In34  1  0.14686699  0.83350505  0.34208775  1
  In  In35  1  0.31691983  0.49753383  0.15622744  1
  In  In36  1  -0.00689337  0.00450974  0.32621529  1
  In  In37  1  0.17550254  0.34571981  0.50246095  1
  In  In38  1  -0.00081284  0.16832708  0.82037605  1
  In  In39  1  0.83180486  -0.00013013  0.83188543  1
  In  In40  1  0.64757618  0.16878603  0.50332114  1
  In  In41  1  0.50780828  0.64908700  0.82786011  1
  In  In42  1  0.33380859  0.34395216  -0.00188904  1
  In  In43  1  0.67470552  0.65868324  0.35065401  1
  In  In44  1  0.46138080  0.33176299  0.18580975  1
  In  In45  1  0.64686597  0.81712615  0.80334983  1
  In  In46  1  -0.01119287  0.65119594  -0.00355991  1
  In  In47  1  0.48505684  -0.00200405  0.52053038  1
  In  In48  1  0.64179175  0.79814905  0.52835613  1
  In  In49  1  0.50788897  0.34022317  0.82185153  1
  In  In50  1  -0.02475943  0.80172688  0.19184177  1
  In  In51  1  0.85346860  0.48833248  0.33567451  1
  In  In52  1  0.83356856  0.16436084  0.33092014  1
  In  In53  1  0.00484314  0.19188787  0.49838476  1
  In  In54  1  0.84279754  0.81251736  0.00836228  1
  In  In55  1  0.33052934  0.67623778  0.34587007  1
  In  In56  1  0.67898821  0.34303686  -0.01038697  1
  In  In57  1  0.34750761  0.00981733  0.00883674  1
  In  In58  1  0.68945491  0.52012615  0.84525582  1
  In  In59  1  0.82294382  0.32335392  0.48850459  1
  In  In60  1  0.15545240  0.65486872  0.16088785  1
  In  In61  1  0.66512770  0.50794045  0.51726367  1
  In  In62  1  0.83296652  -0.03057216  0.50953964  1
  In  In63  1  0.18793525  -0.00888925  0.83128847  1
  In  In64  1  0.50862710  0.35498802  0.49784240  1
  In  In65  1  0.34288248  0.84604262  0.14806826  1
  In  In66  1  0.67382641  -0.00439430  0.01621653  1
  In  In67  1  0.66568621  0.16429944  0.17020656  1
  In  In68  1  0.01654928  0.79235673  0.82924228  1
  In  In69  1  0.00894042  0.49697042  0.84607608  1
  In  In70  1  0.16648004  0.49800494  0.31426895  1
  In  In71  1  0.01797670  0.01948913  0.00861201  1
  Te  Te72  1  0.09563529  0.10250488  0.10245572  1
  Te  Te73  1  0.08603215  0.07744553  0.42630365  1
  Te  Te74  1  0.09757192  0.08329601  0.74125062  1
  Te  Te75  1  0.10624090  0.40807882  0.12375271  1
  Te  Te76  1  0.07711337  0.41833758  0.41269999  1
  Te  Te77  1  0.09574609  0.43330747  0.73416240  1
  Te  Te78  1  0.07016634  0.76419611  0.07617842  1
  Te  Te79  1  0.09363726  0.72118570  0.41937852  1
  Te  Te80  1  0.12575837  0.73365132  0.74565601  1
  Te  Te81  1  0.39380439  0.12239934  0.10456111  1
  Te  Te82  1  0.42232555  0.09892275  0.42340198  1
  Te  Te83  1  0.37442834  0.10524498  0.73524775  1
  Te  Te84  1  0.43154620  0.43275456  0.07679753  1
  Te  Te85  1  0.39189229  0.41413878  0.41629543  1
  Te  Te86  1  0.42193007  0.43567656  0.73828240  1
  Te  Te87  1  0.39805395  0.72810488  0.06979391  1
  Te  Te88  1  0.42633140  0.74249765  0.44445107  1
  Te  Te89  1  0.43104956  0.73249335  0.72290735  1
  Te  Te90  1  0.76390657  0.10587862  0.06894009  1
  Te  Te91  1  0.75108151  0.07042584  0.41735857  1
  Te  Te92  1  0.73010629  0.07240376  0.74748067  1
  Te  Te93  1  0.76786334  0.43341053  0.07528544  1
  Te  Te94  1  0.73662826  0.42089036  0.41092835  1
  Te  Te95  1  0.74322706  0.40648607  0.76639338  1
  Te  Te96  1  0.77216529  0.68558484  0.07403396  1
  Te  Te97  1  0.74416294  0.76348411  0.42828845  1
  Te  Te98  1  0.73869900  0.71778973  0.74208814  1
  Te  Te99  1  0.06372968  0.29796565  0.22206511  1
  Te  Te100  1  0.11615413  0.23403432  0.59283987  1
  Te  Te101  1  0.07852400  0.26471459  0.91103413  1
  Te  Te102  1  0.06287606  0.58739424  0.25246065  1
  Te  Te103  1  0.09629810  0.58007924  0.57887647  1
  Te  Te104  1  0.09935455  0.58760592  0.92303457  1
  Te  Te105  1  0.07746341  0.91542331  0.23546333  1
  Te  Te106  1  0.11310401  0.89324976  0.59232611  1
  Te  Te107  1  0.07286535  0.91543103  0.90820107  1
  Te  Te108  1  0.42166523  0.21113636  0.25553184  1
  Te  Te109  1  0.43510751  0.24666189  0.58064500  1
  Te  Te110  1  0.40616496  0.25288767  0.89845055  1
  Te  Te111  1  0.41565397  0.58693155  0.25177765  1
  Te  Te112  1  0.43390292  0.61965452  0.61181518  1
  Te  Te113  1  0.41353994  0.58062667  0.91813405  1
  Te  Te114  1  0.41557309  0.93639815  0.24935114  1
  Te  Te115  1  0.41058768  0.89905049  0.60324143  1
  Te  Te116  1  0.41103761  0.91429729  0.90731764  1
  Te  Te117  1  0.74500091  0.26259605  0.25599120  1
  Te  Te118  1  0.73275190  0.26456301  0.59520198  1
  Te  Te119  1  0.76464167  0.24778782  0.91548927  1
  Te  Te120  1  0.75823321  0.57975921  0.25162634  1
  Te  Te121  1  0.76850536  0.59694199  0.57518856  1
  Te  Te122  1  0.77662836  0.59318156  0.94352797  1
  Te  Te123  1  0.76299331  0.89905597  0.25610204  1
  Te  Te124  1  0.72386921  0.91511954  0.59810134  1
  Te  Te125  1  0.74699558  0.90330290  0.91727327  1
  Te  Te126  1  0.25251633  0.27628414  0.10332452  1
  Te  Te127  1  0.24372160  0.24928832  0.40449417  1
  Te  Te128  1  0.26152314  0.23381265  0.74855693  1
  Te  Te129  1  0.23813180  0.58214097  0.06355647  1
  Te  Te130  1  0.24850164  0.57498306  0.42134088  1
  Te  Te131  1  0.24548235  0.61579389  0.73649990  1
  Te  Te132  1  0.23615809  0.93274837  0.08082752  1
  Te  Te133  1  0.26876932  0.90447207  0.41588401  1
  Te  Te134  1  0.25877477  0.90368029  0.73576952  1
  Te  Te135  1  0.58349421  0.26062067  0.08098154  1
  Te  Te136  1  0.59488633  0.27011670  0.41068616  1
  Te  Te137  1  0.57107948  0.23890228  0.73359767  1
  Te  Te138  1  0.58170878  0.57808292  0.06203851  1
  Te  Te139  1  0.56518872  0.59072293  0.43137378  1
  Te  Te140  1  0.60346686  0.57957722  0.73401708  1
  Te  Te141  1  0.57900258  0.89837899  0.09220781  1
  Te  Te142  1  0.58868208  0.92047107  0.42231190  1
  Te  Te143  1  0.56132693  0.91480165  0.73196711  1
  Te  Te144  1  0.92814086  0.25167759  0.07741279  1
  Te  Te145  1  0.92949275  0.26843073  0.39205835  1
  Te  Te146  1  0.90925608  0.27447851  0.75570694  1
  Te  Te147  1  0.88625830  0.57856403  0.07420616  1
  Te  Te148  1  0.90927938  0.61564740  0.40048363  1
  Te  Te149  1  0.91790358  0.57653049  0.75051954  1
  Te  Te150  1  0.91584695  0.92369249  0.08657124  1
  Te  Te151  1  0.91840582  0.89785248  0.40587005  1
  Te  Te152  1  0.92684146  0.91186977  0.74708641  1
  Te  Te153  1  0.21818550  0.08922987  0.24165747  1
  Te  Te154  1  0.28160610  0.06398357  0.61210493  1
  Te  Te155  1  0.25736594  0.09479002  0.91946982  1
  Te  Te156  1  0.25008444  0.39482473  0.24191444  1
  Te  Te157  1  0.25522734  0.43714160  0.59459504  1
  Te  Te158  1  0.23498013  0.43243606  0.92270370  1
  Te  Te159  1  0.25283153  0.75827384  0.24065904  1
  Te  Te160  1  0.23407677  0.69600668  0.60277476  1
  Te  Te161  1  0.25818484  0.71765287  0.91208456  1
  Te  Te162  1  0.56208720  0.11214734  0.27139468  1
  Te  Te163  1  0.57587288  0.08471315  0.60088930  1
  Te  Te164  1  0.57268898  0.06437090  0.92209308  1
  Te  Te165  1  0.58377193  0.40270813  0.24929508  1
  Te  Te166  1  0.57429752  0.43165988  0.60676849  1
  Te  Te167  1  0.57911891  0.43276309  0.91868801  1
  Te  Te168  1  0.58627573  0.75706350  0.25610481  1
  Te  Te169  1  0.56718277  0.70535453  0.62043627  1
  Te  Te170  1  0.60467992  0.73282805  0.92395215  1
  Te  Te171  1  0.93292967  0.10706173  0.23040703  1
  Te  Te172  1  0.91100489  0.09227770  0.57885611  1
  Te  Te173  1  0.91352750  0.09228260  0.92168449  1
  Te  Te174  1  0.95043302  0.42682508  0.23779417  1
  Te  Te175  1  0.91876507  0.41164765  0.57248010  1
  Te  Te176  1  0.90879010  0.41580954  0.91755382  1
  Te  Te177  1  0.89575116  0.71246803  0.27546323  1
  Te  Te178  1  0.91298290  0.74373307  0.58087938  1
  Te  Te179  1  0.89559999  0.72783934  0.89008290  1
