# generated using pymatgen
data_In2Te3
_symmetry_space_group_name_H-M   'P 1'
_cell_length_a   18.82896489
_cell_length_b   18.84495434
_cell_length_c   18.83324153
_cell_angle_alpha   89.99556671
_cell_angle_beta   90.02497113
_cell_angle_gamma   89.96591516
_symmetry_Int_Tables_number   1
_chemical_formula_structural   In2Te3
_chemical_formula_sum   'In72 Te108'
_cell_volume   6682.61577932
_cell_formula_units_Z   36
loop_
 _symmetry_equiv_pos_site_id
 _symmetry_equiv_pos_as_xyz
  1  'x, y, z'
loop_
 _atom_site_type_symbol
 _atom_site_label
 _atom_site_symmetry_multiplicity
 _atom_site_fract_x
 _atom_site_fract_y
 _atom_site_fract_z
 _atom_site_occupancy
  In  In0  1  0.16851528  0.32977287  0.50506566  1
  In  In1  1  0.00236790  0.00225248  0.33057630  1
  In  In2  1  0.50643555  0.33787997  0.81080741  1
  In  In3  1  0.17796730  0.66728282  0.81948378  1
  In  In4  1  0.16007689  0.19252892  0.32012404  1
  In  In5  1  0.65996803  0.00034750  -0.00470956  1
  In  In6  1  0.68236216  0.50825309  0.16574491  1
  In  In7  1  -0.00364733  0.83433886  0.48596960  1
  In  In8  1  0.84140994  0.50887004  0.31498894  1
  In  In9  1  0.15046286  0.48962652  0.35854330  1
  In  In10  1  0.17196249  0.83706994  0.66931115  1
  In  In11  1  0.32706578  0.65220099  -0.01616910  1
  In  In12  1  0.16661400  0.01173531  0.81511813  1
  In  In13  1  0.79651784  0.02279028  0.52442485  1
  In  In14  1  -0.02059484  0.65810322  -0.00142546  1
  In  In15  1  0.50679504  0.16973640  -0.02713851  1
  In  In16  1  0.67878254  0.47093088  0.82117563  1
  In  In17  1  0.85375714  0.26235651  -0.00198444  1
  In  In18  1  0.34745665  0.67278993  0.67559430  1
  In  In19  1  0.14946579  0.34412663  0.14301318  1
  In  In20  1  0.33826783  -0.00183242  -0.03682946  1
  In  In21  1  0.83442442  0.66482405  0.48042903  1
  In  In22  1  0.17477189  0.31892114  0.82141397  1
  In  In23  1  0.34892769  0.83871746  0.52359547  1
  In  In24  1  0.68526389  0.14327177  0.17596203  1
  In  In25  1  0.00842889  0.17691797  0.81855852  1
  In  In26  1  0.51818828  0.67362028  0.49004623  1
  In  In27  1  0.51126589  -0.00204026  0.16403397  1
  In  In28  1  0.81019724  0.65927608  0.83004670  1
  In  In29  1  0.81775210  0.14336518  0.34211358  1
  In  In30  1  0.33350711  0.50988005  0.16861088  1
  In  In31  1  0.00032133  0.49441633  0.16227093  1
  In  In32  1  0.14039671  0.61560954  0.53232990  1
  In  In33  1  0.68091628  0.66955535  0.66305698  1
  In  In34  1  0.83511046  0.17372435  0.66983694  1
  In  In35  1  0.48612759  0.17570817  0.37514556  1
  In  In36  1  0.82474424  -0.00339368  0.83493642  1
  In  In37  1  0.82633554  0.84986432  0.65190321  1
  In  In38  1  0.51020812  0.50774079  -0.02512788  1
  In  In39  1  0.34124540  0.85623848  0.13655237  1
  In  In40  1  0.49422954  0.67173036  0.84854783  1
  In  In41  1  0.32230316  0.15181122  0.18382371  1
  In  In42  1  0.00661343  0.18807443  0.51271999  1
  In  In43  1  0.48048862  0.49538887  0.36373449  1
  In  In44  1  0.34219538  0.03189745  0.33671770  1
  In  In45  1  0.53721735  0.70574424  0.20054415  1
  In  In46  1  0.49697001  0.48264289  0.67553983  1
  In  In47  1  0.83193891  0.32992473  0.51511306  1
  In  In48  1  0.17451139  0.81530234  -0.00479561  1
  In  In49  1  0.51657136  0.31457520  0.16044124  1
  In  In50  1  0.49129022  0.84014384  -0.00695219  1
  In  In51  1  0.65472880  -0.00725773  0.36753814  1
  In  In52  1  0.17403611  0.66879877  0.15075181  1
  In  In53  1  0.64610410  0.49743192  0.50901534  1
  In  In54  1  -0.02386242  0.67980288  0.32604475  1
  In  In55  1  0.30060123  0.66277580  0.34674758  1
  In  In56  1  0.14495810  0.84978388  0.33505438  1
  In  In57  1  -0.00359970  0.82492670  0.82193908  1
  In  In58  1  0.38167942  0.01515714  0.66795684  1
  In  In59  1  0.81319741  0.83780659  0.33384815  1
  In  In60  1  0.31758228  0.35215329  -0.01355382  1
  In  In61  1  0.19864315  0.01651492  0.52081206  1
  In  In62  1  0.65395924  0.31853212  0.34688366  1
  In  In63  1  0.83778148  0.47542173  -0.00042934  1
  In  In64  1  0.84252816  -0.00564932  0.15403085  1
  In  In65  1  0.16011307  0.14547908  -0.01853904  1
  In  In66  1  -0.01192135  0.00781166  0.00413574  1
  In  In67  1  0.68924448  0.68909420  0.03604810  1
  In  In68  1  0.00159286  0.47734075  0.83277688  1
  In  In69  1  0.83224662  0.46347914  0.69458518  1
  In  In70  1  0.32622079  0.34303774  0.36867640  1
  In  In71  1  0.37446155  0.17298969  0.54293180  1
  Te  Te72  1  0.08299294  0.08167542  0.08883574  1
  Te  Te73  1  0.09239266  0.08592234  0.42384761  1
  Te  Te74  1  0.06885904  0.07629786  0.72727864  1
  Te  Te75  1  0.06962378  0.42668705  0.05102256  1
  Te  Te76  1  0.07217144  0.37443279  0.40128746  1
  Te  Te77  1  0.10141595  0.42296101  0.73317970  1
  Te  Te78  1  0.06682942  0.75321292  0.08303802  1
  Te  Te79  1  0.09393506  0.73223168  0.41923642  1
  Te  Te80  1  0.07427281  0.73481569  0.72714066  1
  Te  Te81  1  0.41678950  0.08392309  0.07708911  1
  Te  Te82  1  0.43460535  0.05725232  0.45463198  1
  Te  Te83  1  0.46252341  0.11359141  0.74845150  1
  Te  Te84  1  0.42621961  0.41832099  0.08495658  1
  Te  Te85  1  0.42126234  0.40481193  0.46883818  1
  Te  Te86  1  0.38830840  0.39369354  0.73153748  1
  Te  Te87  1  0.41321809  0.73305256  0.08223411  1
  Te  Te88  1  0.40752123  0.74922853  0.41373711  1
  Te  Te89  1  0.43382247  0.76548906  0.75234684  1
  Te  Te90  1  0.76728726  0.09026056  0.06014109  1
  Te  Te91  1  0.70463784  0.11546036  0.44327613  1
  Te  Te92  1  0.73584342  0.07854409  0.74330884  1
  Te  Te93  1  0.73801236  0.40131914  0.08191593  1
  Te  Te94  1  0.75083315  0.42261884  0.41377800  1
  Te  Te95  1  0.75182339  0.35286318  0.76120504  1
  Te  Te96  1  0.78219572  0.76595164  0.11778867  1
  Te  Te97  1  0.73169581  0.75854853  0.42964931  1
  Te  Te98  1  0.74195201  0.77417726  0.75685276  1
  Te  Te99  1  0.06225919  0.24916710  0.22177494  1
  Te  Te100  1  0.09411261  0.25559913  0.60964049  1
  Te  Te101  1  0.07938465  0.25945964  0.92688888  1
  Te  Te102  1  0.09108233  0.59127644  0.25288424  1
  Te  Te103  1  0.07112737  0.50734483  0.60239826  1
  Te  Te104  1  0.07831930  0.58863269  0.90775028  1
  Te  Te105  1  0.05312419  0.90221436  0.23406167  1
  Te  Te106  1  0.08910283  0.92165672  0.57265575  1
  Te  Te107  1  0.08730747  0.91352298  0.90824291  1
  Te  Te108  1  0.40969692  0.25760190  0.25565259  1
  Te  Te109  1  0.43498821  0.27110593  0.64016525  1
  Te  Te110  1  0.40772961  0.26178494  0.90394079  1
  Te  Te111  1  0.41699848  0.59601006  0.26208015  1
  Te  Te112  1  0.43248900  0.58552782  0.58292538  1
  Te  Te113  1  0.39836611  0.55785234  0.88587141  1
  Te  Te114  1  0.41371775  0.92125126  0.25295644  1
  Te  Te115  1  0.45344127  0.89461078  0.61339553  1
  Te  Te116  1  0.44578181  0.93203225  0.88689341  1
  Te  Te117  1  0.75432179  0.25469090  0.25160600  1
  Te  Te118  1  0.73640260  0.23505850  0.57533143  1
  Te  Te119  1  0.76437323  0.25526829  0.88270998  1
  Te  Te120  1  0.74726881  0.60505423  0.25487816  1
  Te  Te121  1  0.76593531  0.56799809  0.58746613  1
  Te  Te122  1  0.73324402  0.57355297  0.92996810  1
  Te  Te123  1  0.73622621  0.93898747  0.24968889  1
  Te  Te124  1  0.71258143  0.90850238  0.57129206  1
  Te  Te125  1  0.74125634  0.90592202  0.91529771  1
  Te  Te126  1  0.25493826  0.24245303  0.08023662  1
  Te  Te127  1  0.26938307  0.21467088  0.42675627  1
  Te  Te128  1  0.24857339  0.22194473  0.73889664  1
  Te  Te129  1  0.23448154  0.55992098  0.06371722  1
  Te  Te130  1  0.25694707  0.55488682  0.44504098  1
  Te  Te131  1  0.24320584  0.57918501  0.72132857  1
  Te  Te132  1  0.23743597  0.93814974  0.06433870  1
  Te  Te133  1  0.25598403  0.91573958  0.41782176  1
  Te  Te134  1  0.26943766  0.92807045  0.73992134  1
  Te  Te135  1  0.60562949  0.22991196  0.07313297  1
  Te  Te136  1  0.55959081  0.27634154  0.45295296  1
  Te  Te137  1  0.56686091  0.23475754  0.71922091  1
  Te  Te138  1  0.57137762  0.58963882  0.08699790  1
  Te  Te139  1  0.60030564  0.58622085  0.39514914  1
  Te  Te140  1  0.59091078  0.58315258  0.76000338  1
  Te  Te141  1  0.59392694  0.89536688  0.09198610  1
  Te  Te142  1  0.55335821  0.89237562  0.39745049  1
  Te  Te143  1  0.63501619  0.96920744  0.70496294  1
  Te  Te144  1  0.94273173  0.28187618  0.11295066  1
  Te  Te145  1  0.90922894  0.24528772  0.41038542  1
  Te  Te146  1  0.92889144  0.26939760  0.73295882  1
  Te  Te147  1  0.89275051  0.58151125  0.09546420  1
  Te  Te148  1  0.93698156  0.56765876  0.42084833  1
  Te  Te149  1  0.91317163  0.57886078  0.75464623  1
  Te  Te150  1  0.89843468  0.90033606  0.05398123  1
  Te  Te151  1  0.89686268  0.93599140  0.42557712  1
  Te  Te152  1  0.92486168  0.92930375  0.73762824  1
  Te  Te153  1  0.21833372  0.06562853  0.25232783  1
  Te  Te154  1  0.25333603  0.11430297  0.62448940  1
  Te  Te155  1  0.26913039  0.10757917  0.87971134  1
  Te  Te156  1  0.24700881  0.41329720  0.25028294  1
  Te  Te157  1  0.28558638  0.40508343  0.55077246  1
  Te  Te158  1  0.23421780  0.43204863  0.89735016  1
  Te  Te159  1  0.25249437  0.76574691  0.23862369  1
  Te  Te160  1  0.24221637  0.74058417  0.57236269  1
  Te  Te161  1  0.27392025  0.76375522  0.89354831  1
  Te  Te162  1  0.56786287  0.09948535  0.26339904  1
  Te  Te163  1  0.55045235  0.07453661  0.63281955  1
  Te  Te164  1  0.57903574  0.07061152  0.89068932  1
  Te  Te165  1  0.57129156  0.41992278  0.25776729  1
  Te  Te166  1  0.61320605  0.40846698  0.62035247  1
  Te  Te167  1  0.59559803  0.39389586  0.92500603  1
  Te  Te168  1  0.60924310  0.78749633  0.30002038  1
  Te  Te169  1  0.57989513  0.75519358  0.59716035  1
  Te  Te170  1  0.59794541  0.75015415  0.92827220  1
  Te  Te171  1  0.92018320  0.09352444  0.24020833  1
  Te  Te172  1  0.92326831  0.08020974  0.58342992  1
  Te  Te173  1  0.91168631  0.10018205  0.91127783  1
  Te  Te174  1  0.90836460  0.40185791  0.23468509  1
  Te  Te175  1  0.92839869  0.41717603  0.58877633  1
  Te  Te176  1  0.90466569  0.38171183  0.90241816  1
  Te  Te177  1  0.89356203  0.76038230  0.23038722  1
  Te  Te178  1  0.91721301  0.74533233  0.58124477  1
  Te  Te179  1  0.89748887  0.75387491  0.91315125  1
