# generated using pymatgen
data_In2Te3
_symmetry_space_group_name_H-M   'P 1'
_cell_length_a   18.85019301
_cell_length_b   18.85373455
_cell_length_c   18.84243043
_cell_angle_alpha   90.04004233
_cell_angle_beta   90.04853828
_cell_angle_gamma   89.89314156
_symmetry_Int_Tables_number   1
_chemical_formula_structural   In2Te3
_chemical_formula_sum   'In72 Te108'
_cell_volume   6696.51881264
_cell_formula_units_Z   36
loop_
 _symmetry_equiv_pos_site_id
 _symmetry_equiv_pos_as_xyz
  1  'x, y, z'
loop_
 _atom_site_type_symbol
 _atom_site_label
 _atom_site_symmetry_multiplicity
 _atom_site_fract_x
 _atom_site_fract_y
 _atom_site_fract_z
 _atom_site_occupancy
  In  In0  1  0.66193598  0.32854833  0.36603337  1
  In  In1  1  0.50945701  0.16709890  -0.02175580  1
  In  In2  1  0.80698388  0.34267103  0.18205829  1
  In  In3  1  0.50974413  0.00587842  0.48373682  1
  In  In4  1  0.16686749  0.00332302  0.52575653  1
  In  In5  1  0.13589410  0.83187353  -0.01645245  1
  In  In6  1  0.66763011  0.68109597  0.65999575  1
  In  In7  1  0.32220411  0.00047171  -0.00793912  1
  In  In8  1  0.16216856  0.17373369  -0.01448353  1
  In  In9  1  0.66494163  0.14729402  0.81732554  1
  In  In10  1  0.65635561  0.16533394  0.17442164  1
  In  In11  1  0.50013196  0.01259388  0.82359940  1
  In  In12  1  0.69549834  0.30900405  0.64810576  1
  In  In13  1  -0.02280604  0.29685360  0.36863344  1
  In  In14  1  0.34468917  0.18474723  0.80643185  1
  In  In15  1  0.33611394  0.82012146  0.51031642  1
  In  In16  1  0.52025475  -0.00271017  0.17284391  1
  In  In17  1  0.18633174  0.33326589  0.18458381  1
  In  In18  1  0.00185657  0.81942524  0.17850925  1
  In  In19  1  0.18184093  0.68323928  0.47257692  1
  In  In20  1  0.32487165  0.82490213  0.14852180  1
  In  In21  1  0.00036270  0.49568584  0.83218840  1
  In  In22  1  0.81526538  0.82478104  0.32257852  1
  In  In23  1  0.00190081  0.64669349  0.67608340  1
  In  In24  1  0.82784076  -0.02926022  0.16763053  1
  In  In25  1  0.49597325  0.82857095  0.67119951  1
  In  In26  1  0.30441906  0.00809460  0.68528309  1
  In  In27  1  -0.01695892  0.86003148  0.82715157  1
  In  In28  1  -0.00754984  0.48038991  0.50500620  1
  In  In29  1  -0.00067452  0.51596323  0.17009065  1
  In  In30  1  0.16799734  0.32240971  0.52674702  1
  In  In31  1  0.00958456  0.34617356  -0.00555672  1
  In  In32  1  0.49546623  0.49892508  0.32164844  1
  In  In33  1  0.66128582  0.67704973  0.00738840  1
  In  In34  1  0.83619016  0.16000836  -0.00402561  1
  In  In35  1  0.34432098  0.17164045  0.19011732  1
  In  In36  1  0.16671845  0.49777280  0.31602867  1
  In  In37  1  0.16411204  0.67994851  0.84742254  1
  In  In38  1  0.46777165  0.49195753  -0.00288400  1
  In  In39  1  0.51551249  0.65676794  0.51911308  1
  In  In40  1  0.84280448  0.48067695  0.66913938  1
  In  In41  1  0.34119737  0.64781660  0.00517657  1
  In  In42  1  0.15471694  0.15882554  0.68321822  1
  In  In43  1  0.67289281  0.85107463  0.84398854  1
  In  In44  1  0.34989552  0.00861367  0.33803911  1
  In  In45  1  0.48092919  0.30060390  0.52553494  1
  In  In46  1  0.01464979  0.85292134  0.51836185  1
  In  In47  1  0.17855114  0.49463771  0.66183524  1
  In  In48  1  0.67243238  0.32986168  0.02399195  1
  In  In49  1  0.18160215  0.36859218  0.85771723  1
  In  In50  1  0.83467351  0.66568922  0.48268940  1
  In  In51  1  0.81965185  0.84844371  0.66539790  1
  In  In52  1  0.66260957  0.53050238  0.83740739  1
  In  In53  1  0.50370982  0.34541839  0.81738419  1
  In  In54  1  0.85764643  0.29965172  0.80162312  1
  In  In55  1  0.48140649  0.49933392  0.66467753  1
  In  In56  1  0.16568459  0.83298294  0.31837723  1
  In  In57  1  0.01281952  0.00407153  -0.02753215  1
  In  In58  1  0.50220886  0.85091061  0.00484629  1
  In  In59  1  0.81901340  0.82753729  -0.00476450  1
  In  In60  1  0.81683006  0.49626375  0.32910856  1
  In  In61  1  0.66371361  0.50392336  0.17450446  1
  In  In62  1  0.31416377  0.67549838  0.67060133  1
  In  In63  1  -0.02383331  0.00504723  0.35707943  1
  In  In64  1  0.16980443  0.14843226  0.33588099  1
  In  In65  1  0.66017285  0.48795178  0.48008573  1
  In  In66  1  0.34243115  0.34009554  0.33697752  1
  In  In67  1  -0.00559115  0.66472097  0.01424799  1
  In  In68  1  -0.01493851  0.14824704  0.16242318  1
  In  In69  1  0.35177882  0.65486063  0.33776329  1
  In  In70  1  0.72914365  0.04670900  0.60834677  1
  In  In71  1  0.54379318  0.81802702  0.30451179  1
  Te  Te72  1  0.09227010  0.07748985  0.08096546  1
  Te  Te73  1  0.07483173  0.08949743  0.43843664  1
  Te  Te74  1  0.03711527  0.10459904  0.75698412  1
  Te  Te75  1  0.09411395  0.41912031  0.09507055  1
  Te  Te76  1  0.09046933  0.40077353  0.40758874  1
  Te  Te77  1  0.08200188  0.40846340  0.74073355  1
  Te  Te78  1  0.10070657  0.73575414  0.09670696  1
  Te  Te79  1  0.06668312  0.75804681  0.40762960  1
  Te  Te80  1  0.07360706  0.75569879  0.75185989  1
  Te  Te81  1  0.42020014  0.08015199  0.07836402  1
  Te  Te82  1  0.41514531  0.10499228  0.42523400  1
  Te  Te83  1  0.43769762  0.10323198  0.71756122  1
  Te  Te84  1  0.37484017  0.41282329  0.07974966  1
  Te  Te85  1  0.43315641  0.41501494  0.43422622  1
  Te  Te86  1  0.39435265  0.41516984  0.74788772  1
  Te  Te87  1  0.43625764  0.74305414  0.08888340  1
  Te  Te88  1  0.43672249  0.75943779  0.41419005  1
  Te  Te89  1  0.40469810  0.75284313  0.75636869  1
  Te  Te90  1  0.74889378  0.07840442  0.08843969  1
  Te  Te91  1  0.76190598  0.09798069  0.45428451  1
  Te  Te92  1  0.77211232  0.07339952  0.75152042  1
  Te  Te93  1  0.76346656  0.44053357  0.07490171  1
  Te  Te94  1  0.77636800  0.39875075  0.43933978  1
  Te  Te95  1  0.73812119  0.41099682  0.75758174  1
  Te  Te96  1  0.72791841  0.77488249  0.10460781  1
  Te  Te97  1  0.73135753  0.74409407  0.41565928  1
  Te  Te98  1  0.75522501  0.74955301  0.76256515  1
  Te  Te99  1  0.07635887  0.23761384  0.24876825  1
  Te  Te100  1  0.06551129  0.23234115  0.58487667  1
  Te  Te101  1  0.07826872  0.25927868  0.89247147  1
  Te  Te102  1  0.08389867  0.60184657  0.25497450  1
  Te  Te103  1  0.09054807  0.58735619  0.56614162  1
  Te  Te104  1  0.08540601  0.57611462  0.92800703  1
  Te  Te105  1  0.06922349  0.93272381  0.25515587  1
  Te  Te106  1  0.06977647  0.94459744  0.62134547  1
  Te  Te107  1  0.11562919  0.93877036  0.87067047  1
  Te  Te108  1  0.43848337  0.24996342  0.26964800  1
  Te  Te109  1  0.39812592  0.22142746  0.61643810  1
  Te  Te110  1  0.41307109  0.26565214  0.91546797  1
  Te  Te111  1  0.42988660  0.59300751  0.22944699  1
  Te  Te112  1  0.39393918  0.58760212  0.57315514  1
  Te  Te113  1  0.41922699  0.58599168  0.89551089  1
  Te  Te114  1  0.41511541  0.90119067  0.24836518  1
  Te  Te115  1  0.41011339  0.92873263  0.58551798  1
  Te  Te116  1  0.41076836  0.91720962  0.90000592  1
  Te  Te117  1  0.74788557  0.23983485  0.27294637  1
  Te  Te118  1  0.78855159  0.21079339  0.58298461  1
  Te  Te119  1  0.74186753  0.24987913  0.91389288  1
  Te  Te120  1  0.73653367  0.60179595  0.26035609  1
  Te  Te121  1  0.74802942  0.57345632  0.58287419  1
  Te  Te122  1  0.75721670  0.60147152  0.92330836  1
  Te  Te123  1  0.73267953  0.94275973  0.27859677  1
  Te  Te124  1  0.73246026  0.90346463  0.56121672  1
  Te  Te125  1  0.77447821  0.93676840  0.90739288  1
  Te  Te126  1  0.25675624  0.24202369  0.08443167  1
  Te  Te127  1  0.24914961  0.24922745  0.41579231  1
  Te  Te128  1  0.23524133  0.27250971  0.75026530  1
  Te  Te129  1  0.24663505  0.55126166  0.06326595  1
  Te  Te130  1  0.25931071  0.56458930  0.41895076  1
  Te  Te131  1  0.24770739  0.57792726  0.76872236  1
  Te  Te132  1  0.22809238  0.91781262  0.07788803  1
  Te  Te133  1  0.24558062  0.91633819  0.42027207  1
  Te  Te134  1  0.23327350  0.91514009  0.76876475  1
  Te  Te135  1  0.56055587  0.25459189  0.09258218  1
  Te  Te136  1  0.59594652  0.23098064  0.45924175  1
  Te  Te137  1  0.58560720  0.24619028  0.73401203  1
  Te  Te138  1  0.57235997  0.57461959  0.07698748  1
  Te  Te139  1  0.58728840  0.59457070  0.40120775  1
  Te  Te140  1  0.56663391  0.60160412  0.74221152  1
  Te  Te141  1  0.60715969  0.91552227  0.08636724  1
  Te  Te142  1  0.59809485  0.93215916  0.38504606  1
  Te  Te143  1  0.59182864  0.92670262  0.73746477  1
  Te  Te144  1  0.91163963  0.26213962  0.08699129  1
  Te  Te145  1  0.88754005  0.20080943  0.43630317  1
  Te  Te146  1  0.94744446  0.22164247  0.71221997  1
  Te  Te147  1  0.89619480  0.59168702  0.09603356  1
  Te  Te148  1  0.92756480  0.57398179  0.40419358  1
  Te  Te149  1  0.89616094  0.58585482  0.76587427  1
  Te  Te150  1  0.93589567  0.91405859  0.06913862  1
  Te  Te151  1  0.89866710  0.90135017  0.43385640  1
  Te  Te152  1  0.92153529  0.94337429  0.71954939  1
  Te  Te153  1  0.24803562  0.06302078  0.23726699  1
  Te  Te154  1  0.26214997  0.10967148  0.57891269  1
  Te  Te155  1  0.25450574  0.09474597  0.89356165  1
  Te  Te156  1  0.28412019  0.43945468  0.23632635  1
  Te  Te157  1  0.26948394  0.41397542  0.57953333  1
  Te  Te158  1  0.26655004  0.43192104  0.96765222  1
  Te  Te159  1  0.25335805  0.73169582  0.24604347  1
  Te  Te160  1  0.21960091  0.76922755  0.59311504  1
  Te  Te161  1  0.25960479  0.76148197  0.93132591  1
  Te  Te162  1  0.57490030  0.09055093  0.27299141  1
  Te  Te163  1  0.59199239  0.10182602  0.56481059  1
  Te  Te164  1  0.60173837  0.05945824  0.92760356  1
  Te  Te165  1  0.58628600  0.39824739  0.25135455  1
  Te  Te166  1  0.58823858  0.41431185  0.59245372  1
  Te  Te167  1  0.59329693  0.41597806  0.92270230  1
  Te  Te168  1  0.62949339  0.73304575  0.22025951  1
  Te  Te169  1  0.59576779  0.77783926  0.56537647  1
  Te  Te170  1  0.57463529  0.75588669  0.90843925  1
  Te  Te171  1  0.88907041  0.08177041  0.25711881  1
  Te  Te172  1  0.87541758  0.07511634  0.54720339  1
  Te  Te173  1  0.93195887  0.10359436  0.89620924  1
  Te  Te174  1  0.92469597  0.40285678  0.25856865  1
  Te  Te175  1  0.92114265  0.38475353  0.58982851  1
  Te  Te176  1  0.90182926  0.40747766  0.90691812  1
  Te  Te177  1  0.89927115  0.73485819  0.23896519  1
  Te  Te178  1  0.91775001  0.74191235  0.58805623  1
  Te  Te179  1  0.91954758  0.74993816  0.91155397  1
