# generated using pymatgen
data_In2Te3
_symmetry_space_group_name_H-M   'P 1'
_cell_length_a   18.84557640
_cell_length_b   18.84734324
_cell_length_c   18.85708317
_cell_angle_alpha   89.93224987
_cell_angle_beta   90.00160584
_cell_angle_gamma   89.85531249
_symmetry_Int_Tables_number   1
_chemical_formula_structural   In2Te3
_chemical_formula_sum   'In72 Te108'
_cell_volume   6697.80335601
_cell_formula_units_Z   36
loop_
 _symmetry_equiv_pos_site_id
 _symmetry_equiv_pos_as_xyz
  1  'x, y, z'
loop_
 _atom_site_type_symbol
 _atom_site_label
 _atom_site_symmetry_multiplicity
 _atom_site_fract_x
 _atom_site_fract_y
 _atom_site_fract_z
 _atom_site_occupancy
  In  In0  1  0.17456689  0.66540546  0.85678484  1
  In  In1  1  0.00969281  0.65632629  0.34597277  1
  In  In2  1  0.35145495  0.33594338  0.69068184  1
  In  In3  1  0.51401118  0.34039754  0.51035949  1
  In  In4  1  -0.03766153  0.48448705  0.49221516  1
  In  In5  1  0.33712062  0.34283871  0.00974846  1
  In  In6  1  0.80008178  0.34002056  0.17067557  1
  In  In7  1  0.83644777  0.17150596  0.68602759  1
  In  In8  1  0.49904558  0.49438582  -0.00597736  1
  In  In9  1  0.16853139  0.32562866  0.17216746  1
  In  In10  1  0.81296706  0.49144744  0.65276575  1
  In  In11  1  0.15235528  0.49106152  0.67847283  1
  In  In12  1  0.65726123  0.67794450  0.00492534  1
  In  In13  1  0.34894839  0.16408202  0.83042349  1
  In  In14  1  0.35933187  0.30160759  0.32085201  1
  In  In15  1  0.17594346  0.30514980  0.51475676  1
  In  In16  1  0.80926892  0.66513259  0.19347508  1
  In  In17  1  0.50142336  0.64951589  0.82171296  1
  In  In18  1  0.81211634  0.00291365  0.16406252  1
  In  In19  1  0.02374385  0.83999206  0.16828464  1
  In  In20  1  0.00336419  0.00153418  -0.02647863  1
  In  In21  1  0.35802516  0.12239690  0.48060756  1
  In  In22  1  0.39153861  0.87756443  0.50027599  1
  In  In23  1  0.16504572  0.66149930  0.48735163  1
  In  In24  1  0.80981602  0.83549792  0.33639345  1
  In  In25  1  0.34611895  -0.02738953  -0.00373204  1
  In  In26  1  0.52418167  0.17972174  0.00519033  1
  In  In27  1  0.64857884  0.33460446  0.30566930  1
  In  In28  1  0.50368568  0.50597856  0.32089600  1
  In  In29  1  0.49971149  0.84758248  -0.01124873  1
  In  In30  1  0.00267549  0.49770196  0.18804012  1
  In  In31  1  0.77442708  0.82227575  0.68199455  1
  In  In32  1  0.50190691  0.00811663  0.16954050  1
  In  In33  1  0.65031021  0.00118126  -0.00628589  1
  In  In34  1  0.03005376  0.32196968  0.32894544  1
  In  In35  1  0.01215081  0.14767796  0.51287530  1
  In  In36  1  0.82434113  0.84571118  -0.01999021  1
  In  In37  1  0.21010923  0.02952120  0.18889373  1
  In  In38  1  0.50253407  0.67752152  0.17716105  1
  In  In39  1  -0.01494417  0.66871581  0.67137971  1
  In  In40  1  -0.00409561  0.81928373  0.50033125  1
  In  In41  1  0.50456825  0.17645330  0.67211684  1
  In  In42  1  0.16021296  0.16718086  0.00547091  1
  In  In43  1  0.35394605  0.65858204  0.65653080  1
  In  In44  1  0.84435874  0.34751614  0.51693292  1
  In  In45  1  0.65959797  0.51610212  0.49438261  1
  In  In46  1  0.50286147  0.83372792  0.32421629  1
  In  In47  1  0.33140222  0.84038200  0.83606005  1
  In  In48  1  0.81826343  0.52157678  0.33917135  1
  In  In49  1  0.65109351  0.51064590  0.83838662  1
  In  In50  1  0.67475628  0.15166286  0.47371979  1
  In  In51  1  0.16999550  0.83187552  0.67283793  1
  In  In52  1  0.20690282  0.52112726  0.02911217  1
  In  In53  1  0.65830045  0.32846575  0.68343972  1
  In  In54  1  0.35939997  0.52021250  0.52479917  1
  In  In55  1  0.80632122  0.48662595  0.03272209  1
  In  In56  1  -0.01614642  0.32548436  -0.00448272  1
  In  In57  1  -0.00276314  0.49317926  0.82505397  1
  In  In58  1  0.00321749  -0.00524514  0.32007674  1
  In  In59  1  0.65762774  -0.00741024  0.65493022  1
  In  In60  1  0.81259418  0.17074626  0.35144734  1
  In  In61  1  -0.00617518  0.02588417  0.66212850  1
  In  In62  1  0.15059932  -0.00281302  0.82312911  1
  In  In63  1  0.34116587  0.47623401  0.84476429  1
  In  In64  1  0.82339602  0.02205296  0.82302144  1
  In  In65  1  0.18654683  0.50808078  0.33066176  1
  In  In66  1  0.20158566  -0.00437160  0.49673249  1
  In  In67  1  0.00007226  0.18926166  0.15277039  1
  In  In68  1  -0.01109746  0.68702581  0.00087953  1
  In  In69  1  0.34131278  0.81456069  0.16938806  1
  In  In70  1  0.63468170  0.82159063  0.50345677  1
  In  In71  1  -0.01571036  0.86204599  0.84919043  1
  Te  Te72  1  0.07833288  0.06896018  0.09435797  1
  Te  Te73  1  0.09749092  0.07314452  0.41261395  1
  Te  Te74  1  0.07337200  0.10344012  0.75757279  1
  Te  Te75  1  0.08030673  0.41513948  0.08626553  1
  Te  Te76  1  0.09163180  0.42676609  0.42140479  1
  Te  Te77  1  0.09610091  0.39527521  0.77396937  1
  Te  Te78  1  0.09631756  0.74756187  0.07948410  1
  Te  Te79  1  0.09908974  0.76774801  0.40014158  1
  Te  Te80  1  0.07779542  0.75116956  0.76293042  1
  Te  Te81  1  0.41824893  0.08456708  0.06704694  1
  Te  Te82  1  0.46138016  0.05190056  0.39888454  1
  Te  Te83  1  0.41219250  0.07352850  0.72912415  1
  Te  Te84  1  0.42577816  0.41763056  0.10060610  1
  Te  Te85  1  0.41396343  0.41603527  0.41968399  1
  Te  Te86  1  0.43699791  0.44509276  0.73791572  1
  Te  Te87  1  0.42205091  0.74155106  0.06192347  1
  Te  Te88  1  0.41902909  0.75679261  0.42017010  1
  Te  Te89  1  0.42313573  0.76150042  0.74290550  1
  Te  Te90  1  0.74818965  0.08718571  0.06304197  1
  Te  Te91  1  0.73891242  0.04724020  0.38936753  1
  Te  Te92  1  0.71229065  0.10100412  0.74651048  1
  Te  Te93  1  0.70028128  0.38110593  0.06084252  1
  Te  Te94  1  0.74323318  0.40297969  0.41191300  1
  Te  Te95  1  0.75145256  0.41334199  0.76722968  1
  Te  Te96  1  0.75395332  0.76209695  0.08779860  1
  Te  Te97  1  0.71755258  0.74247443  0.40459164  1
  Te  Te98  1  0.71081720  0.72244270  0.76657930  1
  Te  Te99  1  0.11003930  0.21487386  0.25927474  1
  Te  Te100  1  0.07034438  0.25103659  0.59997803  1
  Te  Te101  1  0.06964653  0.23801425  0.91396626  1
  Te  Te102  1  0.10245883  0.59970695  0.23866486  1
  Te  Te103  1  0.07061808  0.58239541  0.57648998  1
  Te  Te104  1  0.07891602  0.57462176  0.93316018  1
  Te  Te105  1  0.11903754  0.92050353  0.25534139  1
  Te  Te106  1  0.07904604  0.91859010  0.58452028  1
  Te  Te107  1  0.10646288  0.89761668  0.93148564  1
  Te  Te108  1  0.42924799  0.20260944  0.23530482  1
  Te  Te109  1  0.40583640  0.25298792  0.57257272  1
  Te  Te110  1  0.42535659  0.26428683  0.91560381  1
  Te  Te111  1  0.40190108  0.58818218  0.24455734  1
  Te  Te112  1  0.46682490  0.61933236  0.56306496  1
  Te  Te113  1  0.40167040  0.58912235  0.92300168  1
  Te  Te114  1  0.40309189  0.92517366  0.25216893  1
  Te  Te115  1  0.44355897  0.94721629  0.62061694  1
  Te  Te116  1  0.44160870  0.93918922  0.88288532  1
  Te  Te117  1  0.72626631  0.22118717  0.23591033  1
  Te  Te118  1  0.73820394  0.25334525  0.57564843  1
  Te  Te119  1  0.79634785  0.20998322  0.85040666  1
  Te  Te120  1  0.72651653  0.54840703  0.22757622  1
  Te  Te121  1  0.75899035  0.59792635  0.56639567  1
  Te  Te122  1  0.75031139  0.58438030  0.92922114  1
  Te  Te123  1  0.72438624  0.93236876  0.26019881  1
  Te  Te124  1  0.74726378  0.91320549  0.56248259  1
  Te  Te125  1  0.73041526  0.91925497  0.88788567  1
  Te  Te126  1  0.26309024  0.23758914  0.09215824  1
  Te  Te127  1  0.26113450  0.23023857  0.41548317  1
  Te  Te128  1  0.25385078  0.25263862  0.75962486  1
  Te  Te129  1  0.28260722  0.59793590  0.12969079  1
  Te  Te130  1  0.28014169  0.59462818  0.41460428  1
  Te  Te131  1  0.25060411  0.58579440  0.74930290  1
  Te  Te132  1  0.24862649  0.91595003  0.09629346  1
  Te  Te133  1  0.27320970  0.89925295  0.41359038  1
  Te  Te134  1  0.25911425  0.93447539  0.73653893  1
  Te  Te135  1  0.60298081  0.26299875  0.09703672  1
  Te  Te136  1  0.57398194  0.24775389  0.40686187  1
  Te  Te137  1  0.56845877  0.25860676  0.77662284  1
  Te  Te138  1  0.58364690  0.57823336  0.09085339  1
  Te  Te139  1  0.59430781  0.59896241  0.39036580  1
  Te  Te140  1  0.61375752  0.61001066  0.72335741  1
  Te  Te141  1  0.58857426  0.90551127  0.09618548  1
  Te  Te142  1  0.55946309  0.93073562  0.42989586  1
  Te  Te143  1  0.56030264  0.89164669  0.70142227  1
  Te  Te144  1  0.88128632  0.24802378  0.07742246  1
  Te  Te145  1  0.92869119  0.25281194  0.42205060  1
  Te  Te146  1  0.90178879  0.27172523  0.77051116  1
  Te  Te147  1  0.91350671  0.58525235  0.09910933  1
  Te  Te148  1  0.89518621  0.61109092  0.43507843  1
  Te  Te149  1  0.89492798  0.58122186  0.75333689  1
  Te  Te150  1  0.91825830  0.91694980  0.07962127  1
  Te  Te151  1  0.91427030  0.91642851  0.41502682  1
  Te  Te152  1  0.90514007  0.92037985  0.73212519  1
  Te  Te153  1  0.31030059  0.10479720  0.26548020  1
  Te  Te154  1  0.25691709  0.09691694  0.58602909  1
  Te  Te155  1  0.24977126  0.07320381  0.92125584  1
  Te  Te156  1  0.26925774  0.40683693  0.25109760  1
  Te  Te157  1  0.25004871  0.42405742  0.57933049  1
  Te  Te158  1  0.23140356  0.40994498  0.92447064  1
  Te  Te159  1  0.25769563  0.71215962  0.23417261  1
  Te  Te160  1  0.25334750  0.74698847  0.57930767  1
  Te  Te161  1  0.26361352  0.75252602  0.93361271  1
  Te  Te162  1  0.54819457  0.10329014  0.27567908  1
  Te  Te163  1  0.57423135  0.08849128  0.56792369  1
  Te  Te164  1  0.57525095  0.08840637  0.90058965  1
  Te  Te165  1  0.54044452  0.39709377  0.22346482  1
  Te  Te166  1  0.58360306  0.43761376  0.60136225  1
  Te  Te167  1  0.58718026  0.40264290  0.91674177  1
  Te  Te168  1  0.60502495  0.75355470  0.25153192  1
  Te  Te169  1  0.57925288  0.72355563  0.60011310  1
  Te  Te170  1  0.58353664  0.75620929  0.89678361  1
  Te  Te171  1  0.91472926  0.09821419  0.24945475  1
  Te  Te172  1  0.88684005  0.08291157  0.56982537  1
  Te  Te173  1  0.90913497  0.10161678  0.91754844  1
  Te  Te174  1  0.91082909  0.40415606  0.26515377  1
  Te  Te175  1  0.93894747  0.40558982  0.62037327  1
  Te  Te176  1  0.89604838  0.42662874  0.92433319  1
  Te  Te177  1  0.92394055  0.75317403  0.25404709  1
  Te  Te178  1  0.89220092  0.75946372  0.59409231  1
  Te  Te179  1  0.89733896  0.74368507  0.89288327  1
