# generated using pymatgen
data_In2Te3
_symmetry_space_group_name_H-M   'P 1'
_cell_length_a   18.83928568
_cell_length_b   18.82078254
_cell_length_c   18.82962554
_cell_angle_alpha   90.06880047
_cell_angle_beta   89.96998908
_cell_angle_gamma   90.00022054
_symmetry_Int_Tables_number   1
_chemical_formula_structural   In2Te3
_chemical_formula_sum   'In72 Te108'
_cell_volume   6676.41645804
_cell_formula_units_Z   36
loop_
 _symmetry_equiv_pos_site_id
 _symmetry_equiv_pos_as_xyz
  1  'x, y, z'
loop_
 _atom_site_type_symbol
 _atom_site_label
 _atom_site_symmetry_multiplicity
 _atom_site_fract_x
 _atom_site_fract_y
 _atom_site_fract_z
 _atom_site_occupancy
  In  In0  1  0.31575936  0.67140418  -0.02039567  1
  In  In1  1  0.00566500  0.69631676  0.01689934  1
  In  In2  1  0.01754467  0.31095017  -0.00051823  1
  In  In3  1  0.51030291  0.16226841  0.64396400  1
  In  In4  1  0.52779315  0.33633662  0.17456794  1
  In  In5  1  0.16399512  0.33814492  0.83673500  1
  In  In6  1  0.84033741  0.68968196  0.50821028  1
  In  In7  1  0.32412788  0.54169978  0.72122372  1
  In  In8  1  0.85372183  0.83677552  0.34419466  1
  In  In9  1  0.14186743  -0.02813330  0.52073335  1
  In  In10  1  0.68552560  0.83099396  0.17459681  1
  In  In11  1  -0.00873359  0.15626092  0.17892013  1
  In  In12  1  0.18858911  0.35392989  0.52759558  1
  In  In13  1  -0.01764321  0.33663614  0.33912828  1
  In  In14  1  0.65570359  0.68781425  0.00799066  1
  In  In15  1  0.68576887  0.68761373  0.67206185  1
  In  In16  1  0.81698681  0.51587605  0.34159924  1
  In  In17  1  0.52211597  0.69268208  0.19500426  1
  In  In18  1  0.84913320  0.13448647  0.67863529  1
  In  In19  1  0.01334175  0.82591138  0.81711732  1
  In  In20  1  0.31308402  0.82774396  0.82151478  1
  In  In21  1  0.86085415  0.67668364  0.82560719  1
  In  In22  1  0.83150405  0.48844179  -0.00714941  1
  In  In23  1  0.01484863  0.34033147  0.66869545  1
  In  In24  1  0.51212300  0.14103920  0.34252425  1
  In  In25  1  -0.01394469  0.51853842  0.82209014  1
  In  In26  1  0.63934506  0.30957228  0.32807982  1
  In  In27  1  0.83990498  0.30319519  0.49472780  1
  In  In28  1  0.84297777  0.67289952  0.17473676  1
  In  In29  1  0.84354676  0.83070452  0.65553825  1
  In  In30  1  0.80835730  0.31284855  0.82370826  1
  In  In31  1  0.66560954  0.14441346  0.82636305  1
  In  In32  1  0.32461051  0.34236974  0.33529788  1
  In  In33  1  0.33270159  0.32268114  0.00104176  1
  In  In34  1  0.49348092  0.66801823  0.52381525  1
  In  In35  1  0.65890401  0.33067274  0.64575364  1
  In  In36  1  0.64345440  0.48832545  0.50267871  1
  In  In37  1  0.12879123  0.55190615  0.31960233  1
  In  In38  1  0.14968011  0.50314646  -0.00953548  1
  In  In39  1  0.49041808  0.15080208  -0.01307275  1
  In  In40  1  0.52802678  -0.04313474  0.79835245  1
  In  In41  1  0.63169270  0.52106816  0.84625703  1
  In  In42  1  0.83002200  0.14221022  0.34316145  1
  In  In43  1  0.17905885  0.34111145  0.15413083  1
  In  In44  1  0.15684660  0.82721732  0.33732528  1
  In  In45  1  0.16223450  -0.02398404  0.14567231  1
  In  In46  1  0.34415873  0.00202437  0.64823527  1
  In  In47  1  -0.02309060  -0.00876031  0.00654505  1
  In  In48  1  0.83028258  -0.01488409  0.85375045  1
  In  In49  1  0.48438709  0.32350637  0.50405081  1
  In  In50  1  0.51950385  0.52376755  -0.01069913  1
  In  In51  1  0.51406099  -0.01029260  0.48886759  1
  In  In52  1  0.83533758  -0.00269116  0.51056001  1
  In  In53  1  0.84371223  0.51134367  0.68977013  1
  In  In54  1  0.33884274  0.67574622  0.36734767  1
  In  In55  1  0.32087747  -0.01070955  0.35684703  1
  In  In56  1  0.46686358  0.68296397  0.81146652  1
  In  In57  1  0.33224511  0.84433157  0.17542029  1
  In  In58  1  0.17335240  0.68135718  0.52375859  1
  In  In59  1  0.33573020  0.52324794  0.14544469  1
  In  In60  1  0.66438976  0.32814524  -0.00586040  1
  In  In61  1  0.15297688  0.00870896  0.84040094  1
  In  In62  1  0.32854672  0.17283304  0.16104384  1
  In  In63  1  0.85570367  0.34405451  0.17101134  1
  In  In64  1  0.51162496  0.50035815  0.35701149  1
  In  In65  1  0.15886746  0.16040794  0.67454128  1
  In  In66  1  0.50769639  0.00929805  0.18224206  1
  In  In67  1  0.48581641  0.83621983  -0.00133803  1
  In  In68  1  0.71548745  0.13486789  0.14141306  1
  In  In69  1  0.31254427  0.15084675  0.82615898  1
  In  In70  1  0.15258145  0.14833938  0.35431303  1
  In  In71  1  0.00736762  0.51481372  0.49770280  1
  Te  Te72  1  0.08009681  0.08430212  0.07837908  1
  Te  Te73  1  0.06750407  0.03783973  0.40591409  1
  Te  Te74  1  0.06194830  0.07107526  0.74011157  1
  Te  Te75  1  0.06676668  0.42324986  0.09085963  1
  Te  Te76  1  0.09154072  0.41401399  0.41480095  1
  Te  Te77  1  0.09662712  0.44172136  0.74657134  1
  Te  Te78  1  0.06872262  0.77260679  0.13021465  1
  Te  Te79  1  0.07406101  0.74849227  0.43422361  1
  Te  Te80  1  0.11698417  0.76553412  0.72536068  1
  Te  Te81  1  0.40606203  0.06680460  0.08280158  1
  Te  Te82  1  0.40256120  0.09208534  0.43239505  1
  Te  Te83  1  0.43031451  0.07652204  0.75514091  1
  Te  Te84  1  0.42600659  0.41285577  0.08577181  1
  Te  Te85  1  0.40042062  0.43133122  0.43299129  1
  Te  Te86  1  0.40643264  0.41915297  0.71595717  1
  Te  Te87  1  0.41974356  0.72780910  0.08513799  1
  Te  Te88  1  0.42111723  0.77118939  0.44317789  1
  Te  Te89  1  0.40467597  0.77534900  0.71094499  1
  Te  Te90  1  0.77533196  0.02421031  0.05161640  1
  Te  Te91  1  0.73503319  0.07284469  0.42922561  1
  Te  Te92  1  0.74117491  0.04652283  0.73992450  1
  Te  Te93  1  0.74290181  0.41576380  0.09222431  1
  Te  Te94  1  0.74557890  0.39958743  0.42211301  1
  Te  Te95  1  0.73166337  0.42580583  0.75477363  1
  Te  Te96  1  0.77209939  0.76089319  0.06842786  1
  Te  Te97  1  0.74902730  0.77340140  0.42948505  1
  Te  Te98  1  0.75484150  0.77384715  0.77501253  1
  Te  Te99  1  0.09121784  0.25606089  0.25154390  1
  Te  Te100  1  0.08557706  0.24952549  0.57068214  1
  Te  Te101  1  0.08678820  0.22985791  0.89943951  1
  Te  Te102  1  0.06504598  0.64581797  0.22532126  1
  Te  Te103  1  0.10209838  0.57014083  0.59481972  1
  Te  Te104  1  0.07460571  0.60779863  0.90905411  1
  Te  Te105  1  0.07168994  0.90488503  0.23913292  1
  Te  Te106  1  0.08178446  0.86183388  0.60397680  1
  Te  Te107  1  0.07953271  0.90691391  0.92901474  1
  Te  Te108  1  0.42476389  0.25110728  0.25873016  1
  Te  Te109  1  0.39833884  0.23864916  0.58717646  1
  Te  Te110  1  0.41452260  0.24736902  0.89834815  1
  Te  Te111  1  0.42190339  0.58422359  0.25802309  1
  Te  Te112  1  0.38413774  0.58639067  0.58416656  1
  Te  Te113  1  0.40500705  0.57422167  0.90209896  1
  Te  Te114  1  0.42639660  0.91387456  0.27335673  1
  Te  Te115  1  0.41743000  0.90307708  0.56459676  1
  Te  Te116  1  0.41397195  0.91937163  0.89511555  1
  Te  Te117  1  0.76091227  0.25368753  0.25117456  1
  Te  Te118  1  0.75482450  0.22579051  0.59303647  1
  Te  Te119  1  0.75152890  0.22010629  0.92981827  1
  Te  Te120  1  0.73977895  0.60911829  0.25864531  1
  Te  Te121  1  0.75200818  0.57313115  0.58066716  1
  Te  Te122  1  0.75507286  0.59023091  0.90717664  1
  Te  Te123  1  0.77732751  0.92538555  0.24680457  1
  Te  Te124  1  0.74048723  0.89602351  0.56985535  1
  Te  Te125  1  0.71991785  0.93607318  0.93915893  1
  Te  Te126  1  0.22817328  0.23037397  0.06115768  1
  Te  Te127  1  0.24502616  0.24912537  0.42426318  1
  Te  Te128  1  0.25350665  0.26070461  0.73944209  1
  Te  Te129  1  0.22258247  0.60149156  0.08325007  1
  Te  Te130  1  0.23716548  0.57677625  0.42254874  1
  Te  Te131  1  0.22418259  0.65180316  0.74960998  1
  Te  Te132  1  0.25806244  0.90007342  0.06192499  1
  Te  Te133  1  0.24783734  0.89045411  0.44539690  1
  Te  Te134  1  0.24178117  0.93318002  0.73734317  1
  Te  Te135  1  0.58537873  0.22432095  0.08677056  1
  Te  Te136  1  0.58936930  0.22819954  0.44385746  1
  Te  Te137  1  0.58437358  0.24848537  0.75071102  1
  Te  Te138  1  0.59589697  0.58755445  0.10346915  1
  Te  Te139  1  0.59544616  0.60843642  0.42203944  1
  Te  Te140  1  0.57224038  0.60200143  0.73297739  1
  Te  Te141  1  0.58075501  0.90989735  0.09245912  1
  Te  Te142  1  0.57176035  0.91691318  0.37376499  1
  Te  Te143  1  0.59636824  0.86591264  0.70462757  1
  Te  Te144  1  0.90859040  0.23662522  0.07678171  1
  Te  Te145  1  0.94042033  0.21556880  0.42173751  1
  Te  Te146  1  0.92502714  0.24839926  0.75173498  1
  Te  Te147  1  0.91886967  0.58127370  0.07343957  1
  Te  Te148  1  0.92186707  0.60389732  0.40960364  1
  Te  Te149  1  0.94594805  0.62134956  0.71215077  1
  Te  Te150  1  0.88815553  0.93767236  0.11511862  1
  Te  Te151  1  0.94018744  0.92903198  0.42505624  1
  Te  Te152  1  0.92294293  0.92429514  0.74548191  1
  Te  Te153  1  0.24672532  0.07667647  0.24819562  1
  Te  Te154  1  0.23830043  0.08116525  0.57048407  1
  Te  Te155  1  0.25438605  0.06809508  0.93142428  1
  Te  Te156  1  0.24631398  0.44146047  0.24808482  1
  Te  Te157  1  0.28414109  0.42709041  0.61868897  1
  Te  Te158  1  0.25977187  0.42724091  0.91669842  1
  Te  Te159  1  0.25616906  0.74135725  0.25580055  1
  Te  Te160  1  0.28732597  0.72017017  0.61780874  1
  Te  Te161  1  0.22333846  0.77359131  0.92864647  1
  Te  Te162  1  0.62089318  0.08245647  0.25263946  1
  Te  Te163  1  0.59785891  0.05800764  0.58994536  1
  Te  Te164  1  0.58427348  0.05205366  0.91743600  1
  Te  Te165  1  0.60641273  0.43932659  0.25421890  1
  Te  Te166  1  0.54823303  0.42909022  0.60557516  1
  Te  Te167  1  0.56190257  0.39882938  0.90748731  1
  Te  Te168  1  0.59349260  0.78533070  0.28854917  1
  Te  Te169  1  0.59666870  0.76986192  0.58073362  1
  Te  Te170  1  0.57279351  0.75471277  0.90230428  1
  Te  Te171  1  0.90146205  0.05508267  0.24243653  1
  Te  Te172  1  0.94325467  0.06770933  0.58786297  1
  Te  Te173  1  0.92085499  0.08759667  0.90953803  1
  Te  Te174  1  0.92670714  0.45027878  0.25413552  1
  Te  Te175  1  0.90772816  0.41288298  0.58132634  1
  Te  Te176  1  0.91899520  0.40220076  0.90211698  1
  Te  Te177  1  0.94399887  0.75879221  0.24743954  1
  Te  Te178  1  0.95320922  0.77559292  0.56399727  1
  Te  Te179  1  0.91372905  0.77773539  0.92669565  1
