# generated using pymatgen
data_In2Te3
_symmetry_space_group_name_H-M   'P 1'
_cell_length_a   18.77605907
_cell_length_b   18.77898196
_cell_length_c   18.77719814
_cell_angle_alpha   89.98617970
_cell_angle_beta   90.05905602
_cell_angle_gamma   89.96726487
_symmetry_Int_Tables_number   1
_chemical_formula_structural   In2Te3
_chemical_formula_sum   'In72 Te108'
_cell_volume   6620.74654607
_cell_formula_units_Z   36
loop_
 _symmetry_equiv_pos_site_id
 _symmetry_equiv_pos_as_xyz
  1  'x, y, z'
loop_
 _atom_site_type_symbol
 _atom_site_label
 _atom_site_symmetry_multiplicity
 _atom_site_fract_x
 _atom_site_fract_y
 _atom_site_fract_z
 _atom_site_occupancy
  In  In0  1  0.64728318  0.47287002  0.15393542  1
  In  In1  1  0.80493648  0.66917921  0.83463226  1
  In  In2  1  0.84354457  0.84943944  0.01832474  1
  In  In3  1  0.33173181  0.66017493  0.68932767  1
  In  In4  1  0.68613929  0.83641305  0.15723163  1
  In  In5  1  0.02140718  0.15102193  0.85270794  1
  In  In6  1  0.17503857  0.65506512  0.51383817  1
  In  In7  1  0.66699042  0.65308431  0.35370765  1
  In  In8  1  0.19121397  0.03119441  0.85253472  1
  In  In9  1  0.34949669  0.84563744  0.49158702  1
  In  In10  1  0.02978554  0.84670286  0.84332399  1
  In  In11  1  0.49680635  0.83464614  0.65137050  1
  In  In12  1  0.03729177  0.52204473  0.47804233  1
  In  In13  1  0.02065467  0.14466822  0.13463651  1
  In  In14  1  -0.01156743  0.67877099  0.31757773  1
  In  In15  1  0.82182807  0.68596029  0.51142260  1
  In  In16  1  0.48320243  0.49593632  -0.00652802  1
  In  In17  1  0.17305911  0.16481193  0.31249847  1
  In  In18  1  0.48842167  0.17686588  0.69790233  1
  In  In19  1  0.01257140  0.67786393  -0.00187330  1
  In  In20  1  0.33264941  0.82415064  0.84958568  1
  In  In21  1  0.65966099  0.33031782  -0.00380963  1
  In  In22  1  0.51856233  0.32492233  0.49592360  1
  In  In23  1  0.33035370  0.67574270  -0.01905104  1
  In  In24  1  0.80841577  0.32387176  0.83496555  1
  In  In25  1  0.31470081  0.13801413  0.51735713  1
  In  In26  1  0.19007024  0.49174379  0.68786498  1
  In  In27  1  0.83012053  0.00102037  0.15036670  1
  In  In28  1  0.48786467  0.30720646  0.15780997  1
  In  In29  1  0.48875132  0.64951314  0.16474910  1
  In  In30  1  0.34202341  0.49527185  0.16837807  1
  In  In31  1  0.02555900  0.17837349  0.51897501  1
  In  In32  1  0.84877581  0.01940310  0.82565294  1
  In  In33  1  0.83889181  0.30391557  0.19037200  1
  In  In34  1  0.65959667  0.32942053  0.30558814  1
  In  In35  1  0.48396728  0.82006100  0.33162900  1
  In  In36  1  0.02998202  0.31703850  0.66174573  1
  In  In37  1  0.66165777  0.18413773  0.48983911  1
  In  In38  1  0.31915914  0.00660657  0.31135101  1
  In  In39  1  0.83480176  0.48665238  0.31987889  1
  In  In40  1  0.45759796  0.02376029  0.84762042  1
  In  In41  1  0.01871006  0.32874412  0.31956830  1
  In  In42  1  0.51562433  0.83725232  -0.01882878  1
  In  In43  1  0.64993840  0.82673429  0.84349645  1
  In  In44  1  0.00028059  0.50732023  0.83582169  1
  In  In45  1  0.30504690  0.85100150  0.15158684  1
  In  In46  1  0.34478879  0.31990536  0.32472579  1
  In  In47  1  0.67627553  -0.00350425  0.67415102  1
  In  In48  1  0.65575943  0.82831630  0.50082114  1
  In  In49  1  0.85072895  0.02451483  0.48605638  1
  In  In50  1  0.19687973  0.46222190  -0.02392925  1
  In  In51  1  0.83793243  0.68335576  0.15556690  1
  In  In52  1  0.00952647  -0.00650148  0.32192224  1
  In  In53  1  0.17185594  0.68012001  0.17218676  1
  In  In54  1  0.17157042  0.47840359  0.33384794  1
  In  In55  1  0.01315653  0.85010078  0.51763067  1
  In  In56  1  0.02651715  0.32349625  0.00154818  1
  In  In57  1  0.17015630  0.84227651  0.32066101  1
  In  In58  1  0.83356308  0.49076194  0.67128205  1
  In  In59  1  0.15548989  0.84384104  0.68289590  1
  In  In60  1  0.63888877  0.33575225  0.68948068  1
  In  In61  1  0.33793806  0.50495668  0.52246095  1
  In  In62  1  0.83804333  0.83019297  0.69128447  1
  In  In63  1  0.82584541  0.52127627  -0.00807988  1
  In  In64  1  0.64824378  0.01114663  -0.01135446  1
  In  In65  1  0.49151918  0.06013046  0.16687358  1
  In  In66  1  0.85027834  0.33073819  0.50867142  1
  In  In67  1  0.64512029  0.49879980  0.50331049  1
  In  In68  1  0.83376472  0.14900036  0.68356363  1
  In  In69  1  0.34680715  0.33758105  0.70365416  1
  In  In70  1  0.49544425  -0.00815894  0.49875160  1
  In  In71  1  0.80401368  0.17984564  0.31744857  1
  Te  Te72  1  0.12878669  0.07722387  0.05821343  1
  Te  Te73  1  0.08947643  0.08541679  0.41333489  1
  Te  Te74  1  0.09947936  0.08408392  0.74407577  1
  Te  Te75  1  0.10145132  0.42281557  0.08119674  1
  Te  Te76  1  0.09896211  0.38865285  0.43587165  1
  Te  Te77  1  0.09307466  0.40478269  0.76980894  1
  Te  Te78  1  0.08073869  0.76679365  0.09456663  1
  Te  Te79  1  0.08578671  0.74516039  0.41964219  1
  Te  Te80  1  0.09310339  0.73883979  0.76505175  1
  Te  Te81  1  0.38963166  0.10564387  0.07062956  1
  Te  Te82  1  0.41007645  0.08244616  0.41092307  1
  Te  Te83  1  0.37851529  0.08697232  0.73847419  1
  Te  Te84  1  0.39655085  0.39392902  0.06821511  1
  Te  Te85  1  0.41565012  0.41243434  0.42345913  1
  Te  Te86  1  0.43116746  0.45300489  0.76815326  1
  Te  Te87  1  0.41412979  0.75670632  0.08456786  1
  Te  Te88  1  0.42719060  0.73351763  0.43622342  1
  Te  Te89  1  0.43442999  0.74930737  0.76311582  1
  Te  Te90  1  0.74792429  0.09069336  0.06467690  1
  Te  Te91  1  0.73209071  0.07532218  0.40684987  1
  Te  Te92  1  0.72379365  0.09987524  0.77623983  1
  Te  Te93  1  0.76858111  0.40725078  0.09052284  1
  Te  Te94  1  0.74112537  0.40461903  0.41796106  1
  Te  Te95  1  0.72992653  0.43649754  0.76798278  1
  Te  Te96  1  0.74030961  0.73999935  0.05224696  1
  Te  Te97  1  0.75774480  0.76625387  0.39932552  1
  Te  Te98  1  0.71829002  0.74511817  0.73187615  1
  Te  Te99  1  0.09826074  0.25429245  0.21307392  1
  Te  Te100  1  0.13872849  0.22803738  0.60688487  1
  Te  Te101  1  0.11745209  0.24690012  0.91354192  1
  Te  Te102  1  0.08616770  0.58071925  0.25365482  1
  Te  Te103  1  0.08564821  0.58137904  0.61085302  1
  Te  Te104  1  0.10092227  0.57669202  0.92599966  1
  Te  Te105  1  0.08712556  0.91526091  0.22236099  1
  Te  Te106  1  0.11066307  0.94282990  0.57890035  1
  Te  Te107  1  0.10134692  0.94064852  0.93454117  1
  Te  Te108  1  0.40003743  0.21406669  0.23524889  1
  Te  Te109  1  0.41530921  0.24616926  0.57928698  1
  Te  Te110  1  0.37172341  0.24992885  0.88374008  1
  Te  Te111  1  0.40869078  0.58179392  0.26739865  1
  Te  Te112  1  0.42676543  0.59856583  0.59397898  1
  Te  Te113  1  0.39702199  0.57217051  0.89442265  1
  Te  Te114  1  0.42148011  0.92350892  0.23279547  1
  Te  Te115  1  0.39662735  0.94009439  0.60257214  1
  Te  Te116  1  0.39642815  0.92500334  0.94723397  1
  Te  Te117  1  0.70591534  0.22183950  0.20238141  1
  Te  Te118  1  0.74697979  0.25450866  0.60230945  1
  Te  Te119  1  0.75385521  0.23171966  0.93455955  1
  Te  Te120  1  0.74552997  0.57892663  0.23670921  1
  Te  Te121  1  0.74013204  0.58239330  0.58977566  1
  Te  Te122  1  0.71784652  0.57473026  0.90785022  1
  Te  Te123  1  0.75272626  0.92688948  0.25180729  1
  Te  Te124  1  0.76576557  0.91859570  0.57818870  1
  Te  Te125  1  0.75375672  0.91931081  0.90733090  1
  Te  Te126  1  0.29752131  0.22916393  0.04283350  1
  Te  Te127  1  0.25305121  0.23975515  0.41859813  1
  Te  Te128  1  0.25173932  0.25411732  0.78963690  1
  Te  Te129  1  0.25024696  0.58204702  0.07928051  1
  Te  Te130  1  0.25710643  0.57911950  0.41093997  1
  Te  Te131  1  0.25547435  0.58054453  0.78919290  1
  Te  Te132  1  0.22111701  0.95073125  0.08140151  1
  Te  Te133  1  0.24380269  0.93070342  0.42097842  1
  Te  Te134  1  0.25886381  0.92354484  0.76167202  1
  Te  Te135  1  0.55610631  0.23277055  0.04693226  1
  Te  Te136  1  0.56231790  0.23178875  0.38225384  1
  Te  Te137  1  0.56598058  0.26026172  0.79407580  1
  Te  Te138  1  0.58707396  0.58360123  0.06874227  1
  Te  Te139  1  0.55763270  0.57510497  0.41222873  1
  Te  Te140  1  0.56021998  0.51759323  0.75134678  1
  Te  Te141  1  0.57580808  0.92505852  0.09416573  1
  Te  Te142  1  0.58294838  0.91681850  0.39922784  1
  Te  Te143  1  0.56668913  0.93228500  0.76025350  1
  Te  Te144  1  0.91863731  0.24178762  0.07486032  1
  Te  Te145  1  0.92222734  0.23851131  0.40898399  1
  Te  Te146  1  0.92202612  0.25439730  0.75418209  1
  Te  Te147  1  0.92994783  0.58272838  0.08580903  1
  Te  Te148  1  0.90146016  0.58156503  0.42031235  1
  Te  Te149  1  0.91114354  0.59664905  0.74979082  1
  Te  Te150  1  0.94468523  0.93624880  0.08032295  1
  Te  Te151  1  0.91899609  0.90895241  0.41272213  1
  Te  Te152  1  0.94135685  0.92763455  0.74527375  1
  Te  Te153  1  0.22698373  0.06833397  0.20886036  1
  Te  Te154  1  0.20978607  0.08480678  0.60971694  1
  Te  Te155  1  0.29004329  0.11519973  0.93919535  1
  Te  Te156  1  0.24688419  0.39359307  0.23223175  1
  Te  Te157  1  0.25524865  0.39698972  0.58909849  1
  Te  Te158  1  0.28339150  0.38165105  0.88235028  1
  Te  Te159  1  0.27568312  0.74877800  0.26258281  1
  Te  Te160  1  0.25674792  0.76020369  0.58813700  1
  Te  Te161  1  0.22330481  0.76265030  0.92792878  1
  Te  Te162  1  0.59138571  0.11038755  0.25810538  1
  Te  Te163  1  0.58268478  0.08826307  0.58790406  1
  Te  Te164  1  0.55053798  0.10878514  0.92917789  1
  Te  Te165  1  0.54805207  0.42037015  0.25324361  1
  Te  Te166  1  0.55140265  0.43010430  0.60566231  1
  Te  Te167  1  0.56352120  0.40270115  0.90571635  1
  Te  Te168  1  0.59062724  0.74392975  0.24385155  1
  Te  Te169  1  0.57918898  0.73267294  0.58207239  1
  Te  Te170  1  0.56318657  0.72206169  0.90284681  1
  Te  Te171  1  0.92227198  0.09954087  0.25128367  1
  Te  Te172  1  0.93865011  0.07816490  0.59756024  1
  Te  Te173  1  0.92471788  0.07847293  0.93717228  1
  Te  Te174  1  0.93579966  0.41985027  0.22878369  1
  Te  Te175  1  0.94274347  0.42577905  0.58435204  1
  Te  Te176  1  0.91175191  0.41333433  0.91854239  1
  Te  Te177  1  0.91630386  0.77789115  0.23701730  1
  Te  Te178  1  0.93094961  0.74940038  0.59824173  1
  Te  Te179  1  0.91037041  0.75581289  0.90833770  1
