# generated using pymatgen
data_In2Te3
_symmetry_space_group_name_H-M   'P 1'
_cell_length_a   18.76941579
_cell_length_b   18.76620727
_cell_length_c   18.76036721
_cell_angle_alpha   90.02126595
_cell_angle_beta   90.05264891
_cell_angle_gamma   90.01556739
_symmetry_Int_Tables_number   1
_chemical_formula_structural   In2Te3
_chemical_formula_sum   'In72 Te108'
_cell_volume   6607.97466898
_cell_formula_units_Z   36
loop_
 _symmetry_equiv_pos_site_id
 _symmetry_equiv_pos_as_xyz
  1  'x, y, z'
loop_
 _atom_site_type_symbol
 _atom_site_label
 _atom_site_symmetry_multiplicity
 _atom_site_fract_x
 _atom_site_fract_y
 _atom_site_fract_z
 _atom_site_occupancy
  In  In0  1  0.32627543  0.00326776  0.32703249  1
  In  In1  1  0.50531241  0.49116863  0.34284283  1
  In  In2  1  0.17711212  0.49401088  0.34750380  1
  In  In3  1  0.49532739  0.33145261  0.48889864  1
  In  In4  1  0.36072713  -0.01714368  0.64921630  1
  In  In5  1  0.17295992  0.47136751  0.62557493  1
  In  In6  1  -0.01495955  0.83845248  0.17593306  1
  In  In7  1  0.83653650  0.67347126  0.49856009  1
  In  In8  1  0.32679660  0.82458110  0.83112258  1
  In  In9  1  0.84639875  0.50541966  0.33657352  1
  In  In10  1  -0.01659073  0.66629278  0.33540846  1
  In  In11  1  0.66853722  0.32904547  0.33975783  1
  In  In12  1  0.66985607  0.81852699  0.17674804  1
  In  In13  1  0.33408178  0.48702120  0.16866013  1
  In  In14  1  0.00646669  0.16073364  0.16239771  1
  In  In15  1  0.47229489  0.00175881  0.17857505  1
  In  In16  1  0.69048382  0.00884271  0.37316200  1
  In  In17  1  0.65887157  0.67815411  0.67101562  1
  In  In18  1  0.17360649  0.65299523  0.84156920  1
  In  In19  1  0.68161338  0.83240020  0.81351084  1
  In  In20  1  0.69763173  0.65865234  -0.00457077  1
  In  In21  1  0.19105207  0.18403081  0.33145481  1
  In  In22  1  -0.01793760  0.31787825  0.66442853  1
  In  In23  1  -0.03257645  0.17469609  0.82994804  1
  In  In24  1  0.48714981  0.49602539  0.00280451  1
  In  In25  1  0.19365608  0.67639888  0.17571997  1
  In  In26  1  0.50675279  0.64005497  0.84580330  1
  In  In27  1  -0.00835710  0.83685770  0.84180460  1
  In  In28  1  0.15631334  0.17764413  0.68707903  1
  In  In29  1  0.15445126  0.00997053  0.49732322  1
  In  In30  1  0.84375678  0.67109953  0.16997627  1
  In  In31  1  0.15431430  0.82424620  0.66335343  1
  In  In32  1  0.65605001  0.49730570  0.48277543  1
  In  In33  1  0.51623005  0.16229868  0.64901863  1
  In  In34  1  0.66242077  0.31503671  -0.00625528  1
  In  In35  1  0.52271016  0.00263505  0.83744873  1
  In  In36  1  0.84722128  0.00096461  0.81844336  1
  In  In37  1  0.35154075  0.66972677  -0.00237048  1
  In  In38  1  0.31924659  0.65438370  0.65968901  1
  In  In39  1  0.00465302  0.32825904  0.00406700  1
  In  In40  1  0.50981301  0.83286786  0.65216233  1
  In  In41  1  0.70694231  0.30631805  0.64838703  1
  In  In42  1  0.66955603  0.17912968  0.16561496  1
  In  In43  1  0.47418119  0.68077376  0.16269357  1
  In  In44  1  -0.00266833  0.50644415  0.82965975  1
  In  In45  1  0.48612906  0.50861056  0.66081190  1
  In  In46  1  0.50458091  0.17916118  0.31504254  1
  In  In47  1  -0.01926886  0.83891765  0.50883348  1
  In  In48  1  0.15651283  0.64662177  0.50354466  1
  In  In49  1  0.33649750  0.19288288  0.83892766  1
  In  In50  1  0.84007167  0.00271905  0.16131941  1
  In  In51  1  0.82589402  0.49134071  -0.01857871  1
  In  In52  1  0.00916618  0.32644950  0.34575675  1
  In  In53  1  0.51760005  -0.00868900  0.50482802  1
  In  In54  1  0.33259662  0.18271051  0.16511158  1
  In  In55  1  0.67599695  0.67204444  0.35760202  1
  In  In56  1  0.01708448  0.47379447  0.16432946  1
  In  In57  1  0.32889458  0.18559379  0.49722725  1
  In  In58  1  0.65584796  0.47907231  0.15105400  1
  In  In59  1  0.16371529  0.16405941  0.01470818  1
  In  In60  1  0.49348379  0.82828287  0.01377336  1
  In  In61  1  0.30182510  -0.00045576  0.03584980  1
  In  In62  1  0.16992601  0.83356142  0.30591883  1
  In  In63  1  -0.02248741  0.15800925  0.52149205  1
  In  In64  1  0.00199143  0.67562123  -0.01463306  1
  In  In65  1  0.68421590  0.15934615  0.83347209  1
  In  In66  1  0.84325633  0.48404245  0.67400487  1
  In  In67  1  0.66652655  0.01265406  -0.01302721  1
  In  In68  1  0.13174794  0.01010787  0.83738588  1
  In  In69  1  -0.01969080  -0.00973777  0.34420477  1
  In  In70  1  0.49706201  0.35430730  0.83726766  1
  In  In71  1  0.18720355  0.35697551  0.85663307  1
  Te  Te72  1  0.07363614  0.06288979  0.07139330  1
  Te  Te73  1  0.07742986  0.10341480  0.40438197  1
  Te  Te74  1  0.04796656  0.08162338  0.73284003  1
  Te  Te75  1  0.11147436  0.40230063  0.07603435  1
  Te  Te76  1  0.06907767  0.43351339  0.42940243  1
  Te  Te77  1  0.08121376  0.40513697  0.74757786  1
  Te  Te78  1  0.07894059  0.74578185  0.09725546  1
  Te  Te79  1  0.07622616  0.76051630  0.41460694  1
  Te  Te80  1  0.07743025  0.73294719  0.75513938  1
  Te  Te81  1  0.41771396  0.09238209  0.06988876  1
  Te  Te82  1  0.41851212  0.08385371  0.42318330  1
  Te  Te83  1  0.42073426  0.08584500  0.74909265  1
  Te  Te84  1  0.42065094  0.39557847  0.08700354  1
  Te  Te85  1  0.39790761  0.42918380  0.42992260  1
  Te  Te86  1  0.40261892  0.41839334  0.74209537  1
  Te  Te87  1  0.37540791  0.78829222  0.10624615  1
  Te  Te88  1  0.43777057  0.81361579  0.40426505  1
  Te  Te89  1  0.42629437  0.73977012  0.75080094  1
  Te  Te90  1  0.75955042  0.09881598  0.07112052  1
  Te  Te91  1  0.77619587  0.10799087  0.44555590  1
  Te  Te92  1  0.75035773  0.07511349  0.72856288  1
  Te  Te93  1  0.76397711  0.39843278  0.08658132  1
  Te  Te94  1  0.76661782  0.41008598  0.42620536  1
  Te  Te95  1  0.75434176  0.39625707  0.75473651  1
  Te  Te96  1  0.77091348  0.76695097  0.07439647  1
  Te  Te97  1  0.74780125  0.77505475  0.43518579  1
  Te  Te98  1  0.77191014  0.76664665  0.71534271  1
  Te  Te99  1  0.09636283  0.26050665  0.23869311  1
  Te  Te100  1  0.08895255  0.25142349  0.57272282  1
  Te  Te101  1  0.09469179  0.23883308  0.89716457  1
  Te  Te102  1  0.08038245  0.58930086  0.24703193  1
  Te  Te103  1  0.07674902  0.58217397  0.60857340  1
  Te  Te104  1  0.09234608  0.56302511  0.93590142  1
  Te  Te105  1  0.08135224  0.93915908  0.24107464  1
  Te  Te106  1  0.06878509  0.93126758  0.59526310  1
  Te  Te107  1  0.08992618  0.90563100  0.93095663  1
  Te  Te108  1  0.39007848  0.26245516  0.27716523  1
  Te  Te109  1  0.41256362  0.26230839  0.59958710  1
  Te  Te110  1  0.41608439  0.27316954  0.93302449  1
  Te  Te111  1  0.41236873  0.58269230  0.26009635  1
  Te  Te112  1  0.42115945  0.60213784  0.56638745  1
  Te  Te113  1  0.38480890  0.55641599  0.89313132  1
  Te  Te114  1  0.41930710  0.89278273  0.27558572  1
  Te  Te115  1  0.40577101  0.87868362  0.54139292  1
  Te  Te116  1  0.41794353  0.91919163  0.91405415  1
  Te  Te117  1  0.76041739  0.24595447  0.26023515  1
  Te  Te118  1  0.77995124  0.23242877  0.54265337  1
  Te  Te119  1  0.76896820  0.24705383  0.91675026  1
  Te  Te120  1  0.73833409  0.57787790  0.24519089  1
  Te  Te121  1  0.74327485  0.57778850  0.57966659  1
  Te  Te122  1  0.76832868  0.59106057  0.88562617  1
  Te  Te123  1  0.74777509  0.92332884  0.25480264  1
  Te  Te124  1  0.74928875  0.97737726  0.58373584  1
  Te  Te125  1  0.75712436  0.91410711  0.91708287  1
  Te  Te126  1  0.24963624  0.26747967  0.07431771  1
  Te  Te127  1  0.23458639  0.28444589  0.43552228  1
  Te  Te128  1  0.25754237  0.27836265  0.73946874  1
  Te  Te129  1  0.25361864  0.57969464  0.07490443  1
  Te  Te130  1  0.26433097  0.59698883  0.41376886  1
  Te  Te131  1  0.23820054  0.55748727  0.74161191  1
  Te  Te132  1  0.25421321  0.88667515  0.11299481  1
  Te  Te133  1  0.24051861  0.91429711  0.41867738  1
  Te  Te134  1  0.24603733  0.92146932  0.74396584  1
  Te  Te135  1  0.56787184  0.25814162  0.09345845  1
  Te  Te136  1  0.59162819  0.22969970  0.42944971  1
  Te  Te137  1  0.58703516  0.25352218  0.74983334  1
  Te  Te138  1  0.58188156  0.60213816  0.08048031  1
  Te  Te139  1  0.55939586  0.60409633  0.43203106  1
  Te  Te140  1  0.59799336  0.56369405  0.75319861  1
  Te  Te141  1  0.58679011  0.92481926  0.08961015  1
  Te  Te142  1  0.59120351  0.90128884  0.41100067  1
  Te  Te143  1  0.59996215  0.93039056  0.72912421  1
  Te  Te144  1  0.91346921  0.24262865  0.08040283  1
  Te  Te145  1  0.90533992  0.25244050  0.42848163  1
  Te  Te146  1  0.87431605  0.23955943  0.73234291  1
  Te  Te147  1  0.91868305  0.57064620  0.08318364  1
  Te  Te148  1  0.93633626  0.56964645  0.44315617  1
  Te  Te149  1  0.90875638  0.59403625  0.75064543  1
  Te  Te150  1  0.91716529  0.91565447  0.07000156  1
  Te  Te151  1  0.88191053  0.92371960  0.43415785  1
  Te  Te152  1  0.91635223  0.90216934  0.73121947  1
  Te  Te153  1  0.23815051  0.07965851  0.22953072  1
  Te  Te154  1  0.24948406  0.08609728  0.59334112  1
  Te  Te155  1  0.25575486  0.07725229  0.90340693  1
  Te  Te156  1  0.24377319  0.40319111  0.25210578  1
  Te  Te157  1  0.27413036  0.41505477  0.53464539  1
  Te  Te158  1  0.28576957  0.43868750  0.92758265  1
  Te  Te159  1  0.26979341  0.72268172  0.29656102  1
  Te  Te160  1  0.24898495  0.75505162  0.56790246  1
  Te  Te161  1  0.23912571  0.75655668  0.93426503  1
  Te  Te162  1  0.59019088  0.06721534  0.25616477  1
  Te  Te163  1  0.61869685  0.07345420  0.58376557  1
  Te  Te164  1  0.56940682  0.11490567  0.92827997  1
  Te  Te165  1  0.56816827  0.39479891  0.24272496  1
  Te  Te166  1  0.59059626  0.40542055  0.58688498  1
  Te  Te167  1  0.59958621  0.43537964  0.92014024  1
  Te  Te168  1  0.57303493  0.74260642  0.26344926  1
  Te  Te169  1  0.60149459  0.76051113  0.56121858  1
  Te  Te170  1  0.58488420  0.75520471  0.91299674  1
  Te  Te171  1  0.90694149  0.09638733  0.26242982  1
  Te  Te172  1  0.88273171  0.04204661  0.56651147  1
  Te  Te173  1  0.92202038  0.07207525  0.92568445  1
  Te  Te174  1  0.91103892  0.40166312  0.24589366  1
  Te  Te175  1  0.91810367  0.41174461  0.56905430  1
  Te  Te176  1  0.91528053  0.39788697  0.90049582  1
  Te  Te177  1  0.89021557  0.77026340  0.27631164  1
  Te  Te178  1  0.90987760  0.74968873  0.60535073  1
  Te  Te179  1  0.89669716  0.74061271  0.90720857  1
