# generated using pymatgen
data_In2Te3
_symmetry_space_group_name_H-M   'P 1'
_cell_length_a   18.77906083
_cell_length_b   18.77422330
_cell_length_c   18.78444496
_cell_angle_alpha   90.02688821
_cell_angle_beta   89.95571886
_cell_angle_gamma   90.02776486
_symmetry_Int_Tables_number   1
_chemical_formula_structural   In2Te3
_chemical_formula_sum   'In72 Te108'
_cell_volume   6622.68328260
_cell_formula_units_Z   36
loop_
 _symmetry_equiv_pos_site_id
 _symmetry_equiv_pos_as_xyz
  1  'x, y, z'
loop_
 _atom_site_type_symbol
 _atom_site_label
 _atom_site_symmetry_multiplicity
 _atom_site_fract_x
 _atom_site_fract_y
 _atom_site_fract_z
 _atom_site_occupancy
  In  In0  1  -0.00485707  0.67878130  0.29922110  1
  In  In1  1  0.14896226  0.49609799  0.33401651  1
  In  In2  1  0.48516982  0.30234613  0.85729115  1
  In  In3  1  0.52812760  0.85130513  0.69805812  1
  In  In4  1  0.31153700  0.65832750  0.33323663  1
  In  In5  1  0.48818699  0.18188887  0.68316282  1
  In  In6  1  0.47807504  0.03510482  0.52437318  1
  In  In7  1  0.84920126  0.68325344  0.84179109  1
  In  In8  1  0.17010529  0.83062686  -0.01073680  1
  In  In9  1  0.84200174  -0.00525456  0.49707637  1
  In  In10  1  0.48971885  0.16526569  0.34943031  1
  In  In11  1  0.66635025  0.03213169  -0.02357715  1
  In  In12  1  0.64854710  0.48084443  0.84167985  1
  In  In13  1  0.17054430  0.01566194  0.84107286  1
  In  In14  1  0.66983489  0.49830403  0.52267378  1
  In  In15  1  0.69548327  0.66556147  0.32344103  1
  In  In16  1  0.80760051  0.12987934  0.69512893  1
  In  In17  1  0.32316166  0.14338339  0.52069081  1
  In  In18  1  0.00366191  0.51280316  0.84788445  1
  In  In19  1  0.85898268  0.85805867  0.66553955  1
  In  In20  1  0.32850754  0.65734657  0.00616589  1
  In  In21  1  -0.00593623  0.66585950  0.00017078  1
  In  In22  1  0.67009304  0.17930487  0.16080727  1
  In  In23  1  0.65499375  0.17495862  0.49127460  1
  In  In24  1  -0.01067824  0.00916253  0.31541067  1
  In  In25  1  0.33574845  0.48388612  0.15724129  1
  In  In26  1  0.32336171  0.49349449  0.84395256  1
  In  In27  1  0.29464202  0.17962381  0.13209986  1
  In  In28  1  0.48511776  0.00076001  0.15842646  1
  In  In29  1  0.64242497  0.31699136  0.68345406  1
  In  In30  1  0.01950584  0.86793060  0.82666114  1
  In  In31  1  0.68693798  0.82201579  0.48985987  1
  In  In32  1  0.50890026  0.33165433  0.15954791  1
  In  In33  1  0.84009360  0.15749139  0.28933120  1
  In  In34  1  0.18333335  0.30286830  0.83442604  1
  In  In35  1  0.82846683  0.49754395  0.30604503  1
  In  In36  1  0.49561251  0.47102930  0.32437231  1
  In  In37  1  0.03442420  0.86916123  0.53058788  1
  In  In38  1  0.84279945  0.33360616  0.86425997  1
  In  In39  1  0.81313004  0.48935907  0.02641232  1
  In  In40  1  0.15046970  0.01913164  0.13740475  1
  In  In41  1  0.52046662  0.66319225  0.14379030  1
  In  In42  1  0.01199013  0.31767967  0.66604067  1
  In  In43  1  0.33002137  0.01702301  -0.01119904  1
  In  In44  1  0.32753386  0.68336661  0.66583015  1
  In  In45  1  0.50233014  0.64628158  0.50960735  1
  In  In46  1  0.17854035  0.66143470  0.51498354  1
  In  In47  1  0.47197561  0.66323525  0.83778217  1
  In  In48  1  0.66182549  0.30093325  0.30969399  1
  In  In49  1  0.69247434  0.65116923  0.66662218  1
  In  In50  1  0.47153490  0.47638270  0.70066063  1
  In  In51  1  0.67141351  0.86503183  0.84763433  1
  In  In52  1  0.00855551  0.33743594  0.31425257  1
  In  In53  1  0.33250774  0.33158404  0.33590831  1
  In  In54  1  0.32791644  0.00496680  0.68885645  1
  In  In55  1  0.02252583  0.18054495  0.51784958  1
  In  In56  1  0.00144314  0.14553591  0.84156618  1
  In  In57  1  0.84103305  0.32699897  0.48554178  1
  In  In58  1  0.85338213  0.16944655  0.00796067  1
  In  In59  1  0.48879354  0.84501549  -0.01029272  1
  In  In60  1  0.50094445  0.85242070  0.32578031  1
  In  In61  1  0.80466214  0.51597597  0.64386416  1
  In  In62  1  0.70706323  0.84870416  0.16292622  1
  In  In63  1  0.15682225  0.84237837  0.33070022  1
  In  In64  1  0.66831165  0.66620268  0.01595985  1
  In  In65  1  0.19984956  0.46513967  0.65481110  1
  In  In66  1  0.00997051  0.69491466  0.67383537  1
  In  In67  1  0.16444751  0.66480323  0.17418191  1
  In  In68  1  0.15616558  0.15384627  0.32787363  1
  In  In69  1  0.01025017  0.50362357  0.47756330  1
  In  In70  1  0.31888355  0.83443183  0.49588747  1
  In  In71  1  0.67287396  -0.02449056  0.32599533  1
  Te  Te72  1  0.05036959  0.11566811  0.08237593  1
  Te  Te73  1  0.07648967  0.06961344  0.42715276  1
  Te  Te74  1  0.08614337  0.08235690  0.73288771  1
  Te  Te75  1  0.08610133  0.34942292  0.10315679  1
  Te  Te76  1  0.09656456  0.38722665  0.43137635  1
  Te  Te77  1  0.08681504  0.41614968  0.75766829  1
  Te  Te78  1  0.07961028  0.75887455  0.09044434  1
  Te  Te79  1  0.08863974  0.73110033  0.41290253  1
  Te  Te80  1  0.09861125  0.75403635  0.77301099  1
  Te  Te81  1  0.42065722  0.10864213  0.07413079  1
  Te  Te82  1  0.39355636  0.06147697  0.40191235  1
  Te  Te83  1  0.39581802  0.10723078  0.77752643  1
  Te  Te84  1  0.40597432  0.38920338  0.06904787  1
  Te  Te85  1  0.40357148  0.42448069  0.42823776  1
  Te  Te86  1  0.38327210  0.37377927  0.76677464  1
  Te  Te87  1  0.41303533  0.75661126  0.08887203  1
  Te  Te88  1  0.41806011  0.74228465  0.41813819  1
  Te  Te89  1  0.40826499  0.77504943  0.75905403  1
  Te  Te90  1  0.75642670  0.07603096  0.09199127  1
  Te  Te91  1  0.75173072  0.09117379  0.40730285  1
  Te  Te92  1  0.73185256  0.04063437  0.78469306  1
  Te  Te93  1  0.74225327  0.38540270  0.10200277  1
  Te  Te94  1  0.73891697  0.41104649  0.41100226  1
  Te  Te95  1  0.75087488  0.41137569  0.74776665  1
  Te  Te96  1  0.77814095  0.75162911  0.07170691  1
  Te  Te97  1  0.77309818  0.77965106  0.37850026  1
  Te  Te98  1  0.75435352  0.76600962  0.74967023  1
  Te  Te99  1  0.09065365  0.24330557  0.22589937  1
  Te  Te100  1  0.12916469  0.24207543  0.60463466  1
  Te  Te101  1  0.06591419  0.25678939  0.91544686  1
  Te  Te102  1  0.06358434  0.56185391  0.22642332  1
  Te  Te103  1  0.08373622  0.57176076  0.59529115  1
  Te  Te104  1  0.09972620  0.59412866  0.92331696  1
  Te  Te105  1  0.07402174  0.91668284  0.22712012  1
  Te  Te106  1  0.08978985  0.95868320  0.63272394  1
  Te  Te107  1  0.07962980  0.94602557  0.94482244  1
  Te  Te108  1  0.41070687  0.23739894  0.23927173  1
  Te  Te109  1  0.41119695  0.25251708  0.57589202  1
  Te  Te110  1  0.37397241  0.20891266  0.89794077  1
  Te  Te111  1  0.41901090  0.58826118  0.24781727  1
  Te  Te112  1  0.40453229  0.57054448  0.59742955  1
  Te  Te113  1  0.42727212  0.55886690  0.93659354  1
  Te  Te114  1  0.39820712  0.91993218  0.24589225  1
  Te  Te115  1  0.42235732  0.90979421  0.59246031  1
  Te  Te116  1  0.41969971  0.93778437  0.89991782  1
  Te  Te117  1  0.78526459  0.28161628  0.21260423  1
  Te  Te118  1  0.75160321  0.25405535  0.58702968  1
  Te  Te119  1  0.74884423  0.24972861  0.93950612  1
  Te  Te120  1  0.75480318  0.58798326  0.21326923  1
  Te  Te121  1  0.76546892  0.61867818  0.53552757  1
  Te  Te122  1  0.75474417  0.57875950  0.90209441  1
  Te  Te123  1  0.79565805  0.94167412  0.24638795  1
  Te  Te124  1  0.74183913  0.92410858  0.58952371  1
  Te  Te125  1  0.76760941  0.92754720  0.93943774  1
  Te  Te126  1  0.22127041  0.28924793  0.06079059  1
  Te  Te127  1  0.24828880  0.23485524  0.41839614  1
  Te  Te128  1  0.24697723  0.25618401  0.70706196  1
  Te  Te129  1  0.23069269  0.56470563  0.07917339  1
  Te  Te130  1  0.25320120  0.55755066  0.43142362  1
  Te  Te131  1  0.24478348  0.58039820  0.74639271  1
  Te  Te132  1  0.25524993  0.92102286  0.08019563  1
  Te  Te133  1  0.23738661  0.92988487  0.41886926  1
  Te  Te134  1  0.25163598  0.91115274  0.77405672  1
  Te  Te135  1  0.58644408  0.24942453  0.06021954  1
  Te  Te136  1  0.56248910  0.27654827  0.42478250  1
  Te  Te137  1  0.60531010  0.21466827  0.79157090  1
  Te  Te138  1  0.58386630  0.55587392  0.06568735  1
  Te  Te139  1  0.58818964  0.57652453  0.40480405  1
  Te  Te140  1  0.57575018  0.58542947  0.74377729  1
  Te  Te141  1  0.58968118  0.91776232  0.08226638  1
  Te  Te142  1  0.57623708  0.92953489  0.43617645  1
  Te  Te143  1  0.58961667  0.96777949  0.77079277  1
  Te  Te144  1  0.96416475  0.25458105  0.06709016  1
  Te  Te145  1  0.92527575  0.23011861  0.40242552  1
  Te  Te146  1  0.90451417  0.24631930  0.75046613  1
  Te  Te147  1  0.90967261  0.58218756  0.08970320  1
  Te  Te148  1  0.91453345  0.58777567  0.39748381  1
  Te  Te149  1  0.91301549  0.58236347  0.74118888  1
  Te  Te150  1  0.87759330  0.87893715  0.12647985  1
  Te  Te151  1  0.93669689  0.90457211  0.41863913  1
  Te  Te152  1  0.91512676  0.95410975  0.76179607  1
  Te  Te153  1  0.25164402  0.07627498  0.23765664  1
  Te  Te154  1  0.22874950  0.04427597  0.58286009  1
  Te  Te155  1  0.24001306  0.12166300  0.92467820  1
  Te  Te156  1  0.23633661  0.40665316  0.24466517  1
  Te  Te157  1  0.29235232  0.37068582  0.59014758  1
  Te  Te158  1  0.24541605  0.40044797  0.93253522  1
  Te  Te159  1  0.25738600  0.76588445  0.24129590  1
  Te  Te160  1  0.22421862  0.77774590  0.60234672  1
  Te  Te161  1  0.26390150  0.74802672  0.90951442  1
  Te  Te162  1  0.58636669  0.08336410  0.25702792  1
  Te  Te163  1  0.59269993  0.09431326  0.60396691  1
  Te  Te164  1  0.56704762  0.11614127  0.90828303  1
  Te  Te165  1  0.60706186  0.42407904  0.23258447  1
  Te  Te166  1  0.56382755  0.41309254  0.59479400  1
  Te  Te167  1  0.58085360  0.38744712  0.93283112  1
  Te  Te168  1  0.59118503  0.75984182  0.24304389  1
  Te  Te169  1  0.58200865  0.75028764  0.58837036  1
  Te  Te170  1  0.58659816  0.74244629  0.90859809  1
  Te  Te171  1  0.94183448  0.09254697  0.19801260  1
  Te  Te172  1  0.91197633  0.09704655  0.58636686  1
  Te  Te173  1  0.90217727  0.06195464  0.91494581  1
  Te  Te174  1  0.92735084  0.42191305  0.22471824  1
  Te  Te175  1  0.92075486  0.41709167  0.58024080  1
  Te  Te176  1  0.93230655  0.42334664  0.94812083  1
  Te  Te177  1  0.90151051  0.75615027  0.21570880  1
  Te  Te178  1  0.92500421  0.76052584  0.56832662  1
  Te  Te179  1  0.92802173  0.78218430  0.92123453  1
