# generated using pymatgen
data_In2Te3
_symmetry_space_group_name_H-M   'P 1'
_cell_length_a   18.94835969
_cell_length_b   18.94704520
_cell_length_c   18.93184280
_cell_angle_alpha   89.93535692
_cell_angle_beta   89.93499259
_cell_angle_gamma   89.95323661
_symmetry_Int_Tables_number   1
_chemical_formula_structural   In2Te3
_chemical_formula_sum   'In72 Te108'
_cell_volume   6796.81267930
_cell_formula_units_Z   36
loop_
 _symmetry_equiv_pos_site_id
 _symmetry_equiv_pos_as_xyz
  1  'x, y, z'
loop_
 _atom_site_type_symbol
 _atom_site_label
 _atom_site_symmetry_multiplicity
 _atom_site_fract_x
 _atom_site_fract_y
 _atom_site_fract_z
 _atom_site_occupancy
  In  In0  1  0.68207652  0.50424253  0.51399479  1
  In  In1  1  0.49792357  0.00547270  0.51778025  1
  In  In2  1  0.84295818  0.50655208  -0.00320308  1
  In  In3  1  -0.00476588  0.84052668  0.82422192  1
  In  In4  1  0.82124305  0.81049014  0.65063319  1
  In  In5  1  0.65329319  0.16216545  0.48976616  1
  In  In6  1  0.50067715  0.65220193  0.83106318  1
  In  In7  1  0.01337473  0.64594503  -0.00022550  1
  In  In8  1  0.52320980  -0.02175286  0.19055150  1
  In  In9  1  0.16293139  0.47801054  -0.03481521  1
  In  In10  1  0.15176130  0.19372265  -0.01752108  1
  In  In11  1  0.83849889  0.34404095  0.49957823  1
  In  In12  1  0.49109321  0.14602536  0.35143116  1
  In  In13  1  0.50402613  0.50738466  0.66103686  1
  In  In14  1  0.18017739  0.32202183  0.53317840  1
  In  In15  1  0.50480814  0.32650108  0.83742251  1
  In  In16  1  0.52439086  0.48524219  -0.03148751  1
  In  In17  1  0.83512733  0.85590744  -0.00766652  1
  In  In18  1  0.20766822  -0.01512638  0.58820370  1
  In  In19  1  0.16980210  0.66153950  0.84935471  1
  In  In20  1  0.35648488  0.64612997  0.03431816  1
  In  In21  1  -0.01418257  0.18731975  0.12627509  1
  In  In22  1  0.51627732  0.30485235  0.15056179  1
  In  In23  1  0.82541971  -0.01671189  0.51287389  1
  In  In24  1  0.65001260  0.30081414  0.31957675  1
  In  In25  1  0.52256794  0.64721216  0.21727856  1
  In  In26  1  0.32578128  0.65181781  0.66024733  1
  In  In27  1  0.52952836  0.15255711  -0.01287698  1
  In  In28  1  0.31834671  0.66513257  0.36229062  1
  In  In29  1  0.35082270  0.31551221  0.65776820  1
  In  In30  1  -0.01731929  0.66230373  0.33632406  1
  In  In31  1  0.32123774  0.47430589  0.15791709  1
  In  In32  1  0.82996907  -0.02983478  0.19348978  1
  In  In33  1  0.65370206  0.15638396  0.15153347  1
  In  In34  1  0.16231624  0.64224293  0.50598399  1
  In  In35  1  0.15993104  0.02991886  0.82133677  1
  In  In36  1  0.00012526  0.49601136  0.16171024  1
  In  In37  1  -0.02574300  0.00117583  0.36332817  1
  In  In38  1  0.33441829  0.00247971  0.01348787  1
  In  In39  1  0.84106156  0.49662878  0.32221427  1
  In  In40  1  0.00237464  0.33796400  0.32471841  1
  In  In41  1  0.82574447  0.64990368  0.82841218  1
  In  In42  1  0.35103576  0.84783217  0.20060341  1
  In  In43  1  0.00496520  0.00221319  0.66651800  1
  In  In44  1  0.32036493  0.16636547  0.14807576  1
  In  In45  1  0.82463716  0.16582797  0.31408954  1
  In  In46  1  0.67656598  0.69183293  0.35609783  1
  In  In47  1  0.01485410  0.17740202  0.52618410  1
  In  In48  1  0.32312980  0.34232194  -0.03198632  1
  In  In49  1  0.64884013  0.68648609  0.64497967  1
  In  In50  1  0.67387018  0.18726404  0.82382318  1
  In  In51  1  0.18307655  0.85717181  -0.04088552  1
  In  In52  1  0.53389822  0.83426957  0.34854960  1
  In  In53  1  0.68806094  0.33696402  0.67315206  1
  In  In54  1  -0.00852239  0.82115913  0.17200641  1
  In  In55  1  0.16229245  0.17355088  0.32980351  1
  In  In56  1  0.65950434  0.70444153  0.00558034  1
  In  In57  1  0.19015790  0.82878981  0.35699894  1
  In  In58  1  0.67027545  0.50521211  0.15193185  1
  In  In59  1  0.67678042  0.03530650  -0.02307752  1
  In  In60  1  -0.01658652  0.33986935  -0.04917058  1
  In  In61  1  -0.00253549  0.48421001  0.52707546  1
  In  In62  1  0.32180194  0.83281120  0.80929980  1
  In  In63  1  0.49224152  0.87101694  -0.00156293  1
  In  In64  1  0.49662955  0.49754864  0.35754389  1
  In  In65  1  0.84104611  0.03650316  0.85395633  1
  In  In66  1  0.00293207  0.67396542  0.67984222  1
  In  In67  1  0.33490518  0.34935637  0.33968928  1
  In  In68  1  0.13117442  0.65767912  0.17243454  1
  In  In69  1  0.50009411  0.00705669  0.70537970  1
  In  In70  1  0.15158407  0.00877489  0.19019993  1
  In  In71  1  0.34959946  0.83428071  0.50649471  1
  Te  Te72  1  0.09049325  0.08602629  0.07741157  1
  Te  Te73  1  0.08424031  0.08537444  0.42681685  1
  Te  Te74  1  0.04711395  0.11440972  0.76173060  1
  Te  Te75  1  0.06908154  0.40690616  0.06220143  1
  Te  Te76  1  0.08323737  0.39791351  0.43556781  1
  Te  Te77  1  0.03992046  0.37341662  0.75105871  1
  Te  Te78  1  0.09268176  0.76135047  0.06216539  1
  Te  Te79  1  0.08470451  0.74159882  0.41939272  1
  Te  Te80  1  0.10352867  0.76129930  0.75544999  1
  Te  Te81  1  0.44088279  0.07743159  0.09765149  1
  Te  Te82  1  0.39503528  0.09312694  0.45139124  1
  Te  Te83  1  0.37866962  0.10488577  0.71556466  1
  Te  Te84  1  0.42944987  0.40856617  0.07137721  1
  Te  Te85  1  0.40821860  0.42118296  0.44482909  1
  Te  Te86  1  0.42127168  0.41862255  0.75181275  1
  Te  Te87  1  0.42714799  0.76997380  0.09438913  1
  Te  Te88  1  0.43248478  0.74148266  0.42064956  1
  Te  Te89  1  0.42160341  0.74276669  0.73818277  1
  Te  Te90  1  0.76598978  0.06948981  0.09713290  1
  Te  Te91  1  0.75377527  0.07795043  0.41338502  1
  Te  Te92  1  0.77008621  0.10612655  0.74715264  1
  Te  Te93  1  0.75301791  0.41664756  0.07146509  1
  Te  Te94  1  0.73764534  0.40271719  0.39646874  1
  Te  Te95  1  0.74914892  0.40483809  0.78791669  1
  Te  Te96  1  0.75870068  0.77326430  0.08711504  1
  Te  Te97  1  0.76080814  0.79072395  0.42501567  1
  Te  Te98  1  0.73598692  0.74888834  0.76086922  1
  Te  Te99  1  0.08221508  0.25191514  0.22844628  1
  Te  Te100  1  0.07060973  0.27252474  0.62896050  1
  Te  Te101  1  0.09931914  0.28164812  0.87385219  1
  Te  Te102  1  0.07899410  0.55944822  0.27428824  1
  Te  Te103  1  0.09246524  0.56269923  0.61400862  1
  Te  Te104  1  0.06025641  0.55877419  0.88662096  1
  Te  Te105  1  0.07770647  0.90584825  0.27391361  1
  Te  Te106  1  0.07866979  0.91902289  0.57035463  1
  Te  Te107  1  0.06784188  0.94232239  0.90926079  1
  Te  Te108  1  0.41738747  0.24249701  0.24789859  1
  Te  Te109  1  0.39720304  0.18943608  0.58648973  1
  Te  Te110  1  0.41739549  0.23337426  0.92037043  1
  Te  Te111  1  0.39600878  0.57214019  0.25234289  1
  Te  Te112  1  0.42347109  0.58837283  0.56954320  1
  Te  Te113  1  0.40706000  0.56563789  0.91530251  1
  Te  Te114  1  0.42512956  0.93374688  0.29815742  1
  Te  Te115  1  0.41057015  0.92071171  0.61202088  1
  Te  Te116  1  0.40015705  0.93408647  0.89413258  1
  Te  Te117  1  0.75216807  0.25561974  0.21760734  1
  Te  Te118  1  0.75351142  0.24296494  0.57278571  1
  Te  Te119  1  0.77784443  0.19424530  0.92898891  1
  Te  Te120  1  0.74049026  0.58889765  0.25683570  1
  Te  Te121  1  0.75682291  0.59982347  0.59350565  1
  Te  Te122  1  0.73137587  0.59305349  0.93278834  1
  Te  Te123  1  0.77925280  0.89468363  0.30992287  1
  Te  Te124  1  0.73382199  0.92891080  0.61775615  1
  Te  Te125  1  0.73993830  0.92235558  0.89733077  1
  Te  Te126  1  0.24163250  0.27310528  0.07819199  1
  Te  Te127  1  0.25542282  0.24790308  0.42243980  1
  Te  Te128  1  0.27046275  0.21912585  0.74365906  1
  Te  Te129  1  0.22571096  0.57514086  0.07591122  1
  Te  Te130  1  0.24022682  0.55588580  0.41581844  1
  Te  Te131  1  0.24955881  0.57569788  0.76183284  1
  Te  Te132  1  0.24809792  0.91617689  0.10280204  1
  Te  Te133  1  0.25055892  0.93350467  0.44304469  1
  Te  Te134  1  0.22845797  0.92750839  0.73402552  1
  Te  Te135  1  0.61523730  0.26315303  0.04591358  1
  Te  Te136  1  0.55368199  0.26132034  0.42986005  1
  Te  Te137  1  0.57321889  0.24866565  0.72853596  1
  Te  Te138  1  0.56302066  0.58985932  0.08010704  1
  Te  Te139  1  0.58886523  0.59288015  0.43217267  1
  Te  Te140  1  0.60353965  0.57862056  0.74956207  1
  Te  Te141  1  0.60672959  0.93331705  0.07421902  1
  Te  Te142  1  0.60020879  0.91558558  0.45278255  1
  Te  Te143  1  0.59488206  0.88832710  0.69552633  1
  Te  Te144  1  0.89017043  0.24492925  0.02757922  1
  Te  Te145  1  0.91975352  0.24110872  0.41187073  1
  Te  Te146  1  0.92296403  0.29960132  0.70688094  1
  Te  Te147  1  0.91031008  0.60068001  0.10019130  1
  Te  Te148  1  0.90714892  0.57216294  0.43351593  1
  Te  Te149  1  0.92088733  0.57279299  0.74966631  1
  Te  Te150  1  0.93110322  0.92940360  0.08453424  1
  Te  Te151  1  0.90370502  0.88590315  0.42718559  1
  Te  Te152  1  0.89818821  0.91683447  0.74088390  1
  Te  Te153  1  0.26385171  0.08089868  0.26121377  1
  Te  Te154  1  0.23974364  0.12604218  0.62272374  1
  Te  Te155  1  0.25299117  0.09460336  0.92362676  1
  Te  Te156  1  0.23257081  0.40573732  0.25045841  1
  Te  Te157  1  0.25511437  0.41815097  0.61274491  1
  Te  Te158  1  0.24396077  0.40816536  0.86369672  1
  Te  Te159  1  0.24437860  0.73759772  0.23808354  1
  Te  Te160  1  0.24483566  0.74997873  0.57727342  1
  Te  Te161  1  0.28420170  0.74167929  0.93111527  1
  Te  Te162  1  0.60336511  0.07764506  0.27267884  1
  Te  Te163  1  0.58972251  0.08921276  0.60629278  1
  Te  Te164  1  0.57147284  0.06714248  0.87227258  1
  Te  Te165  1  0.57327591  0.41656802  0.24486607  1
  Te  Te166  1  0.58849770  0.40769915  0.58145759  1
  Te  Te167  1  0.62216482  0.40542913  0.88980185  1
  Te  Te168  1  0.60914495  0.76812608  0.23492057  1
  Te  Te169  1  0.58609952  0.79818540  0.56955919  1
  Te  Te170  1  0.56264889  0.76869826  0.90845319  1
  Te  Te171  1  0.93563597  0.08834747  0.24382776  1
  Te  Te172  1  0.90725705  0.08953224  0.58728294  1
  Te  Te173  1  0.96466678  0.10699937  0.88830383  1
  Te  Te174  1  0.90342984  0.39719578  0.22588127  1
  Te  Te175  1  0.88873839  0.42545047  0.61453057  1
  Te  Te176  1  0.87699146  0.41821646  0.87825521  1
  Te  Te177  1  0.89594455  0.74570138  0.25249362  1
  Te  Te178  1  0.92127881  0.73536275  0.57517590  1
  Te  Te179  1  0.92250144  0.74464782  0.91761930  1
