# generated using pymatgen
data_In2Te3
_symmetry_space_group_name_H-M   'P 1'
_cell_length_a   18.77544264
_cell_length_b   18.76696252
_cell_length_c   18.76255685
_cell_angle_alpha   90.03262946
_cell_angle_beta   90.02971373
_cell_angle_gamma   89.95329183
_symmetry_Int_Tables_number   1
_chemical_formula_structural   In2Te3
_chemical_formula_sum   'In72 Te108'
_cell_volume   6611.13338235
_cell_formula_units_Z   36
loop_
 _symmetry_equiv_pos_site_id
 _symmetry_equiv_pos_as_xyz
  1  'x, y, z'
loop_
 _atom_site_type_symbol
 _atom_site_label
 _atom_site_symmetry_multiplicity
 _atom_site_fract_x
 _atom_site_fract_y
 _atom_site_fract_z
 _atom_site_occupancy
  In  In0  1  0.16708884  -0.00613753  0.18064350  1
  In  In1  1  0.68080011  -0.00535063  0.33256500  1
  In  In2  1  0.32966687  0.51392678  0.52220541  1
  In  In3  1  0.83819690  0.49278246  0.00027763  1
  In  In4  1  0.00778345  0.67152396  0.67571739  1
  In  In5  1  -0.02989898  0.13039339  0.17466567  1
  In  In6  1  0.82754595  0.65159929  0.15214108  1
  In  In7  1  0.17117326  -0.00187935  0.48666393  1
  In  In8  1  0.00109198  0.33576237  0.68417194  1
  In  In9  1  0.15839547  0.66792893  0.17970195  1
  In  In10  1  0.00066773  0.16706235  0.84981039  1
  In  In11  1  0.48926700  0.51340037  0.35029169  1
  In  In12  1  0.50589328  0.15576505  0.34641950  1
  In  In13  1  0.01472118  0.51333136  0.50742261  1
  In  In14  1  0.50162264  0.65863409  0.52841548  1
  In  In15  1  -0.01323884  0.84119378  0.47807771  1
  In  In16  1  0.66257697  0.49214812  0.83277199  1
  In  In17  1  0.34809074  0.48124489  0.15787128  1
  In  In18  1  0.34078114  0.82788452  0.84636436  1
  In  In19  1  0.33063876  0.67170478  0.32980363  1
  In  In20  1  0.17926655  0.17623854  0.32831862  1
  In  In21  1  0.00918581  0.66697835  0.33653072  1
  In  In22  1  0.50859526  0.33345646  0.15045540  1
  In  In23  1  0.14890038  0.65959858  0.51057397  1
  In  In24  1  0.81355479  0.31773062  0.49918196  1
  In  In25  1  0.48695664  -0.00193311  0.16626536  1
  In  In26  1  0.31299023  0.15886109  0.14791331  1
  In  In27  1  0.36882036  0.19859535  0.84590066  1
  In  In28  1  0.51448143  0.82683759  0.31811824  1
  In  In29  1  0.16581408  0.83185363  -0.00471506  1
  In  In30  1  0.14606580  -0.01150017  0.84508558  1
  In  In31  1  0.83012272  -0.00081605  0.82574002  1
  In  In32  1  0.67113675  0.17701024  0.83243677  1
  In  In33  1  0.69547559  0.17299470  0.14247142  1
  In  In34  1  0.16787357  0.34572725  0.15300456  1
  In  In35  1  0.66532942  0.83881853  0.50925441  1
  In  In36  1  0.66132308  0.67655841  0.00585770  1
  In  In37  1  0.50558424  0.81410466  -0.00241603  1
  In  In38  1  0.16325469  0.80146910  0.65982172  1
  In  In39  1  0.35737636  0.17231346  0.48393824  1
  In  In40  1  0.53365719  0.18027971  0.66797492  1
  In  In41  1  0.81742195  0.16097826  0.67124824  1
  In  In42  1  0.00952701  0.34180631  0.33651906  1
  In  In43  1  0.00804135  0.16178005  0.50270337  1
  In  In44  1  0.50935437  0.85202210  0.69387139  1
  In  In45  1  0.84890501  0.31758534  0.16202643  1
  In  In46  1  0.32173451  0.52278372  0.80852020  1
  In  In47  1  0.80751493  0.66280546  0.51471630  1
  In  In48  1  0.64804193  0.52413902  0.15937211  1
  In  In49  1  0.33736381  -0.00867505  -0.01278496  1
  In  In50  1  0.67409928  0.82094618  0.17748179  1
  In  In51  1  0.66502666  0.16127987  0.50615100  1
  In  In52  1  -0.00876419  0.48965961  0.83587906  1
  In  In53  1  0.51635551  0.65234739  0.82200323  1
  In  In54  1  -0.02227260  0.86998959  0.14409395  1
  In  In55  1  0.68213562  0.00564307  -0.01863324  1
  In  In56  1  -0.03309423  0.68488288  -0.03218071  1
  In  In57  1  0.68129151  0.33507628  0.35287782  1
  In  In58  1  0.32786643  0.34674029  0.68341034  1
  In  In59  1  0.67658261  0.33325748  -0.02288073  1
  In  In60  1  -0.02324411  0.00095458  0.66592832  1
  In  In61  1  0.15703304  0.17788843  -0.00654591  1
  In  In62  1  0.34441565  0.33804933  0.33642594  1
  In  In63  1  0.83169268  0.83534218  0.33978507  1
  In  In64  1  0.17303912  0.19685953  0.66474952  1
  In  In65  1  0.82575905  0.47052195  0.33437513  1
  In  In66  1  0.79828367  0.83074514  0.68834128  1
  In  In67  1  0.15884166  0.49057987  -0.01434538  1
  In  In68  1  0.34547204  0.00273838  0.67303061  1
  In  In69  1  0.80993277  0.48733654  0.67059213  1
  In  In70  1  0.33680166  0.68373503  0.00386470  1
  In  In71  1  0.31218538  0.83377278  0.51419059  1
  Te  Te72  1  0.08583320  0.07736612  0.08238490  1
  Te  Te73  1  0.08010433  0.08036282  0.39538875  1
  Te  Te74  1  0.08320653  0.09024718  0.73450620  1
  Te  Te75  1  0.06556271  0.40740335  0.06607848  1
  Te  Te76  1  0.09671346  0.43169221  0.41495344  1
  Te  Te77  1  0.09754163  0.41656188  0.76020591  1
  Te  Te78  1  0.06737817  0.74786734  0.08102522  1
  Te  Te79  1  0.10065498  0.76522386  0.41029694  1
  Te  Te80  1  0.07763024  0.76014906  0.77246623  1
  Te  Te81  1  0.42244613  0.09316596  0.06417055  1
  Te  Te82  1  0.41636307  0.05862979  0.41257938  1
  Te  Te83  1  0.43278746  0.09488621  0.75474157  1
  Te  Te84  1  0.42077159  0.40497167  0.04876989  1
  Te  Te85  1  0.42218674  0.41367944  0.44279590  1
  Te  Te86  1  0.42980172  0.43829827  0.74338345  1
  Te  Te87  1  0.40942040  0.76990725  0.09975430  1
  Te  Te88  1  0.42136522  0.74777679  0.43010412  1
  Te  Te89  1  0.41582105  0.74164647  0.74643438  1
  Te  Te90  1  0.78127872  0.06768011  0.07844992  1
  Te  Te91  1  0.75549228  0.09826999  0.40788925  1
  Te  Te92  1  0.72468713  0.06138609  0.73439753  1
  Te  Te93  1  0.74083767  0.41582581  0.10141400  1
  Te  Te94  1  0.72731771  0.44816364  0.45398132  1
  Te  Te95  1  0.75396091  0.39255580  0.76903772  1
  Te  Te96  1  0.76983215  0.76580047  0.07102464  1
  Te  Te97  1  0.73101322  0.74399153  0.40837233  1
  Te  Te98  1  0.76731413  0.71999806  0.77827723  1
  Te  Te99  1  0.08081520  0.24237110  0.23195020  1
  Te  Te100  1  0.08459047  0.27555779  0.56840515  1
  Te  Te101  1  0.07952872  0.27474291  0.91299248  1
  Te  Te102  1  0.07992595  0.56696452  0.25460236  1
  Te  Te103  1  0.10486564  0.56174854  0.62446319  1
  Te  Te104  1  0.07634448  0.59679324  0.90711242  1
  Te  Te105  1  0.06992282  0.90895127  0.25188813  1
  Te  Te106  1  0.08028073  0.91729583  0.58359990  1
  Te  Te107  1  0.05587413  0.90982565  0.93087763  1
  Te  Te108  1  0.41556526  0.24145179  0.24089652  1
  Te  Te109  1  0.41661012  0.25230675  0.59716861  1
  Te  Te110  1  0.43536548  0.29074455  0.93896511  1
  Te  Te111  1  0.42269234  0.58938207  0.23585800  1
  Te  Te112  1  0.44773714  0.54422868  0.61231101  1
  Te  Te113  1  0.41770102  0.58792059  0.91813903  1
  Te  Te114  1  0.40902125  0.90413370  0.24798195  1
  Te  Te115  1  0.42563556  0.91462050  0.57902377  1
  Te  Te116  1  0.44668986  0.92930685  0.89782647  1
  Te  Te117  1  0.76328662  0.23998193  0.26248739  1
  Te  Te118  1  0.72121471  0.27484361  0.61792318  1
  Te  Te119  1  0.77031313  0.22938383  0.93049697  1
  Te  Te120  1  0.74696934  0.58251441  0.26148711  1
  Te  Te121  1  0.71924799  0.59270089  0.61233029  1
  Te  Te122  1  0.75020262  0.58532932  0.91786397  1
  Te  Te123  1  0.77191765  0.92793024  0.22901340  1
  Te  Te124  1  0.76730483  0.92164830  0.57721044  1
  Te  Te125  1  0.75550474  0.89652429  0.90713156  1
  Te  Te126  1  0.26147866  0.26960746  0.05827266  1
  Te  Te127  1  0.24725280  0.26451025  0.43126144  1
  Te  Te128  1  0.24278593  0.26251713  0.78106580  1
  Te  Te129  1  0.25198390  0.57807346  0.08369967  1
  Te  Te130  1  0.24168963  0.58136615  0.41485277  1
  Te  Te131  1  0.23989808  0.60783729  0.71866244  1
  Te  Te132  1  0.25891796  0.90972260  0.08747284  1
  Te  Te133  1  0.25211273  0.90855304  0.40213612  1
  Te  Te134  1  0.24691088  0.91300059  0.74842583  1
  Te  Te135  1  0.58481174  0.23621474  0.06096116  1
  Te  Te136  1  0.56953288  0.26516148  0.43346391  1
  Te  Te137  1  0.58023705  0.27739918  0.76934632  1
  Te  Te138  1  0.55699826  0.58749168  0.06282333  1
  Te  Te139  1  0.58762602  0.59093617  0.42762066  1
  Te  Te140  1  0.58893167  0.56495953  0.72252632  1
  Te  Te141  1  0.59134661  0.91760950  0.08358079  1
  Te  Te142  1  0.57663741  0.92488013  0.41840499  1
  Te  Te143  1  0.56926420  0.93816069  0.79698025  1
  Te  Te144  1  0.92393575  0.22813703  0.07269709  1
  Te  Te145  1  0.91771817  0.24496396  0.40912303  1
  Te  Te146  1  0.90318871  0.24804214  0.76208013  1
  Te  Te147  1  0.93852126  0.57979508  0.07674237  1
  Te  Te148  1  0.90619578  0.58653158  0.42091264  1
  Te  Te149  1  0.90665698  0.58185179  0.74652803  1
  Te  Te150  1  0.90131694  0.95391250  0.04928053  1
  Te  Te151  1  0.91281033  0.94828835  0.40022248  1
  Te  Te152  1  0.92419383  0.89474862  0.75619209  1
  Te  Te153  1  0.27062654  0.07167746  0.26512445  1
  Te  Te154  1  0.25087078  0.08948155  0.58477070  1
  Te  Te155  1  0.25143201  0.08499538  0.90183102  1
  Te  Te156  1  0.24665872  0.42535110  0.25785684  1
  Te  Te157  1  0.24106783  0.41281996  0.58317093  1
  Te  Te158  1  0.25973676  0.42393584  0.90125239  1
  Te  Te159  1  0.24639715  0.76351279  0.24950676  1
  Te  Te160  1  0.27426196  0.70878122  0.60048063  1
  Te  Te161  1  0.23466102  0.73310003  0.90089799  1
  Te  Te162  1  0.59364847  0.09136541  0.23738811  1
  Te  Te163  1  0.57817557  0.06888881  0.58050936  1
  Te  Te164  1  0.57984251  0.08647102  0.91033189  1
  Te  Te165  1  0.58159262  0.41401768  0.25878041  1
  Te  Te166  1  0.63090725  0.38085438  0.55595248  1
  Te  Te167  1  0.56908113  0.42285434  0.92736898  1
  Te  Te168  1  0.58515288  0.72253805  0.24061417  1
  Te  Te169  1  0.59292773  0.75360929  0.61197507  1
  Te  Te170  1  0.60019837  0.76049189  0.89028645  1
  Te  Te171  1  0.90357225  0.04399176  0.27327641  1
  Te  Te172  1  0.89432818  0.08105855  0.56578198  1
  Te  Te173  1  0.92873833  0.05874915  0.92547002  1
  Te  Te174  1  0.93036024  0.42630251  0.23416012  1
  Te  Te175  1  0.91467755  0.41502059  0.57410505  1
  Te  Te176  1  0.90957982  0.39505534  0.91664067  1
  Te  Te177  1  0.91628286  0.74800992  0.24265853  1
  Te  Te178  1  0.91482880  0.75258604  0.58051008  1
  Te  Te179  1  0.86234799  0.76249669  0.89523842  1
