# generated using pymatgen
data_In2Te3
_symmetry_space_group_name_H-M   'P 1'
_cell_length_a   18.75661237
_cell_length_b   18.75196766
_cell_length_c   18.75156407
_cell_angle_alpha   89.96922252
_cell_angle_beta   90.02887551
_cell_angle_gamma   89.97953636
_symmetry_Int_Tables_number   1
_chemical_formula_structural   In2Te3
_chemical_formula_sum   'In72 Te108'
_cell_volume   6595.36144753
_cell_formula_units_Z   36
loop_
 _symmetry_equiv_pos_site_id
 _symmetry_equiv_pos_as_xyz
  1  'x, y, z'
loop_
 _atom_site_type_symbol
 _atom_site_label
 _atom_site_symmetry_multiplicity
 _atom_site_fract_x
 _atom_site_fract_y
 _atom_site_fract_z
 _atom_site_occupancy
  In  In0  1  0.16977502  0.83884935  0.29739033  1
  In  In1  1  0.34168832  0.85049676  0.85228463  1
  In  In2  1  0.33486173  0.79800261  0.50488571  1
  In  In3  1  0.32347862  0.65379579  0.66768740  1
  In  In4  1  0.18264969  0.17430831  0.68045430  1
  In  In5  1  0.65053818  0.15806548  0.16521306  1
  In  In6  1  0.48269908  0.34993074  0.16796541  1
  In  In7  1  0.66602951  0.68681296  0.65051777  1
  In  In8  1  0.31852260  0.83917317  0.15743635  1
  In  In9  1  0.52354237  0.64493135  0.48887037  1
  In  In10  1  0.48821020  0.33149483  0.84808483  1
  In  In11  1  0.33112869  0.01155190  0.67818727  1
  In  In12  1  0.82466501  0.83295765  0.34411437  1
  In  In13  1  0.67097652  0.18136968  0.50250890  1
  In  In14  1  0.01190891  0.48952202  0.85128608  1
  In  In15  1  0.65997781  0.50195190  0.47483366  1
  In  In16  1  0.52018438  0.79674994  0.30579324  1
  In  In17  1  0.47791990  0.14473376  0.00674630  1
  In  In18  1  0.18405372  0.64416886  0.49218137  1
  In  In19  1  0.00553333  -0.03166856  0.31890377  1
  In  In20  1  -0.00112689  0.83894920  0.50274642  1
  In  In21  1  0.78229256  0.63980131  0.18980191  1
  In  In22  1  0.86553797  0.49666135  0.65759868  1
  In  In23  1  0.18883505  0.85101364  0.00489768  1
  In  In24  1  0.17193425  0.17809396  0.32085271  1
  In  In25  1  0.82954758  0.34261115  0.14898559  1
  In  In26  1  0.65164298  0.48325436  0.83199004  1
  In  In27  1  0.84775549  0.16960240  0.35710410  1
  In  In28  1  0.47558708  0.20743676  0.65335990  1
  In  In29  1  0.69550848  0.84291004  0.50282086  1
  In  In30  1  0.82231098  0.03422597  0.82295956  1
  In  In31  1  -0.01945123  0.30263643  0.68542735  1
  In  In32  1  0.18968445  0.48208066  0.63169402  1
  In  In33  1  0.65077042  0.01806589  0.32113066  1
  In  In34  1  0.84190151  0.85156794  0.64427774  1
  In  In35  1  0.16743154  0.01600382  0.83606821  1
  In  In36  1  0.83400988  0.47578935  0.01293046  1
  In  In37  1  0.49608083  0.86486061  0.68748360  1
  In  In38  1  0.63278616  0.65198745  0.01599107  1
  In  In39  1  0.00979400  0.64820492  -0.00334938  1
  In  In40  1  0.00131736  0.16913352  0.50995479  1
  In  In41  1  -0.00385679  0.65207307  0.34398986  1
  In  In42  1  0.67628291  0.32108428  0.66285819  1
  In  In43  1  0.47653345  0.48455961  0.66629962  1
  In  In44  1  0.50342909  0.00850101  0.84423495  1
  In  In45  1  0.50029401  0.65477908  0.85663686  1
  In  In46  1  -0.00859665  0.86032725  0.18751795  1
  In  In47  1  0.50627423  0.01885567  0.48508710  1
  In  In48  1  0.84324948  0.83883855  0.01883770  1
  In  In49  1  0.18981816  0.51982037  -0.01166524  1
  In  In50  1  0.03558983  0.81372309  0.81638110  1
  In  In51  1  0.66408418  0.34136600  0.33580156  1
  In  In52  1  0.16836707  0.14709744  0.01899246  1
  In  In53  1  0.35443394  0.66358831  0.01202792  1
  In  In54  1  0.84543587  0.63842740  0.82695831  1
  In  In55  1  -0.00338142  0.48675637  0.19103395  1
  In  In56  1  0.84384099  0.67278082  0.48394158  1
  In  In57  1  0.83649082  0.00058636  0.17892784  1
  In  In58  1  0.50494994  0.17266249  0.31627781  1
  In  In59  1  0.66527817  0.83429851  0.84496774  1
  In  In60  1  0.17318597  0.00023681  0.51319661  1
  In  In61  1  0.01357817  0.32485411  -0.00635604  1
  In  In62  1  0.17375278  0.45933703  0.38839963  1
  In  In63  1  0.17408986  0.32331320  0.15908871  1
  In  In64  1  0.68490187  0.32953835  -0.01456844  1
  In  In65  1  0.17723555  0.68060921  0.14912064  1
  In  In66  1  0.17898350  0.32594748  0.84096593  1
  In  In67  1  -0.02402508  0.01027701  0.65676637  1
  In  In68  1  0.32594708  0.01372739  0.32304836  1
  In  In69  1  0.62945743  -0.02709586  0.02595755  1
  In  In70  1  0.83997024  0.17981392  -0.01208351  1
  In  In71  1  0.34810382  0.33205735  0.34426411  1
  Te  Te72  1  0.07818810  0.06244239  0.09803284  1
  Te  Te73  1  0.08032940  0.07137940  0.41476671  1
  Te  Te74  1  0.07008867  0.09338975  0.74505364  1
  Te  Te75  1  0.07983983  0.43989997  0.07065338  1
  Te  Te76  1  0.04481339  0.41186838  0.43881223  1
  Te  Te77  1  0.08628489  0.40597520  0.74705109  1
  Te  Te78  1  0.07036680  0.76710831  0.08285140  1
  Te  Te79  1  0.08785780  0.76047958  0.40672993  1
  Te  Te80  1  0.11264538  0.74011565  0.71866143  1
  Te  Te81  1  0.39435110  0.06240891  0.09676035  1
  Te  Te82  1  0.40385643  0.10721367  0.41704203  1
  Te  Te83  1  0.42044510  0.10333200  0.75844370  1
  Te  Te84  1  0.40558367  0.45363771  0.09222192  1
  Te  Te85  1  0.41233824  0.41384092  0.45293044  1
  Te  Te86  1  0.39121316  0.39539565  0.74965099  1
  Te  Te87  1  0.43384922  0.76485164  0.09132964  1
  Te  Te88  1  0.42356091  0.72604319  0.40250577  1
  Te  Te89  1  0.41899218  0.74962896  0.75248060  1
  Te  Te90  1  0.75131014  0.08195925  0.07930960  1
  Te  Te91  1  0.74783625  0.07304707  0.42403114  1
  Te  Te92  1  0.76610911  0.08485637  0.69629889  1
  Te  Te93  1  0.71648701  0.43308325  0.10027573  1
  Te  Te94  1  0.75825973  0.39921321  0.43470329  1
  Te  Te95  1  0.75887810  0.42368873  0.74400077  1
  Te  Te96  1  0.74141042  0.74591836  0.08236099  1
  Te  Te97  1  0.72508252  0.73176363  0.40498025  1
  Te  Te98  1  0.75879155  0.75146960  0.75432676  1
  Te  Te99  1  0.07352279  0.26213168  0.24724579  1
  Te  Te100  1  0.09731978  0.25853128  0.58729504  1
  Te  Te101  1  0.08484456  0.22570764  0.90647597  1
  Te  Te102  1  0.09471531  0.58892210  0.24672555  1
  Te  Te103  1  0.08415225  0.56264321  0.56400914  1
  Te  Te104  1  0.10871083  0.60411190  0.88994239  1
  Te  Te105  1  0.12021577  0.95657341  0.20775673  1
  Te  Te106  1  0.08442222  0.91606244  0.60402044  1
  Te  Te107  1  0.08235089  0.91799350  0.91809438  1
  Te  Te108  1  0.39747702  0.23921611  0.22936399  1
  Te  Te109  1  0.40342388  0.29971773  0.56109514  1
  Te  Te110  1  0.40119032  0.25759402  0.94513485  1
  Te  Te111  1  0.42363187  0.54575591  0.20826393  1
  Te  Te112  1  0.40808055  0.57755213  0.56489317  1
  Te  Te113  1  0.40191144  0.56238433  0.91325951  1
  Te  Te114  1  0.41012748  0.90110728  0.26619206  1
  Te  Te115  1  0.40747824  0.92458176  0.57361140  1
  Te  Te116  1  0.42503625  0.93125138  0.94374649  1
  Te  Te117  1  0.74804724  0.23633710  0.25222061  1
  Te  Te118  1  0.77875992  0.25631435  0.57534762  1
  Te  Te119  1  0.75637270  0.24789145  0.87920668  1
  Te  Te120  1  0.72571505  0.56344795  0.30197531  1
  Te  Te121  1  0.75371539  0.58211878  0.58355855  1
  Te  Te122  1  0.74034044  0.58245670  0.92251011  1
  Te  Te123  1  0.73374257  0.91121759  0.24729097  1
  Te  Te124  1  0.73817843  0.94915210  0.59706317  1
  Te  Te125  1  0.75511570  0.92757696  0.92750571  1
  Te  Te126  1  0.25942766  0.26442854  0.05303507  1
  Te  Te127  1  0.23623987  0.26561967  0.42290335  1
  Te  Te128  1  0.28076307  0.26561675  0.74659409  1
  Te  Te129  1  0.27039161  0.56627247  0.11083459  1
  Te  Te130  1  0.26462991  0.57641562  0.38956449  1
  Te  Te131  1  0.25601677  0.54938582  0.74661605  1
  Te  Te132  1  0.28482338  0.95543106  0.06183776  1
  Te  Te133  1  0.24927702  0.90625901  0.41860208  1
  Te  Te134  1  0.24430399  0.91156415  0.75169399  1
  Te  Te135  1  0.57819759  0.25904800  0.07856972  1
  Te  Te136  1  0.56607569  0.26002952  0.42449371  1
  Te  Te137  1  0.58132772  0.24822069  0.75818837  1
  Te  Te138  1  0.54561886  0.58769228  0.11894795  1
  Te  Te139  1  0.58044175  0.57463593  0.36528223  1
  Te  Te140  1  0.58197083  0.59153773  0.73830966  1
  Te  Te141  1  0.55838460  0.86772359  0.10354442  1
  Te  Te142  1  0.57848262  0.90717803  0.40938795  1
  Te  Te143  1  0.60903131  0.94286340  0.75242423  1
  Te  Te144  1  0.93190667  0.24321365  0.09441429  1
  Te  Te145  1  0.94593023  0.26948989  0.41121999  1
  Te  Te146  1  0.88819226  0.25445425  0.79137430  1
  Te  Te147  1  0.90347635  0.58814432  0.09043149  1
  Te  Te148  1  0.90588443  0.55832773  0.41266569  1
  Te  Te149  1  0.95753223  0.58661772  0.74053513  1
  Te  Te150  1  0.93528795  0.94900440  0.07097123  1
  Te  Te151  1  0.90274736  0.93314769  0.43008988  1
  Te  Te152  1  0.91605926  0.91252603  0.76474940  1
  Te  Te153  1  0.26337858  0.10661320  0.22506427  1
  Te  Te154  1  0.26766044  0.10358754  0.57331311  1
  Te  Te155  1  0.26357347  0.09048118  0.91845017  1
  Te  Te156  1  0.24647544  0.41227247  0.25914264  1
  Te  Te157  1  0.27541564  0.39608110  0.54111523  1
  Te  Te158  1  0.26580613  0.40550321  0.93355494  1
  Te  Te159  1  0.27054814  0.73076956  0.25950421  1
  Te  Te160  1  0.22113848  0.75566683  0.60258777  1
  Te  Te161  1  0.25648302  0.74316610  0.92053899  1
  Te  Te162  1  0.54603263  0.05967945  0.21707805  1
  Te  Te163  1  0.57177524  0.10268059  0.59298901  1
  Te  Te164  1  0.59853483  0.09237693  0.92991031  1
  Te  Te165  1  0.55081240  0.42392758  0.27991632  1
  Te  Te166  1  0.58701689  0.41853936  0.58446871  1
  Te  Te167  1  0.56843763  0.42538791  0.94249452  1
  Te  Te168  1  0.60067787  0.73210417  0.19942272  1
  Te  Te169  1  0.56347758  0.77310354  0.57868788  1
  Te  Te170  1  0.56373327  0.76799537  0.93574027  1
  Te  Te171  1  0.93145795  0.09080557  0.25550516  1
  Te  Te172  1  0.88596857  0.11740158  0.59725319  1
  Te  Te173  1  0.92867568  0.09152462  0.90818948  1
  Te  Te174  1  0.88627513  0.42068433  0.26108729  1
  Te  Te175  1  0.94404363  0.40042528  0.57446213  1
  Te  Te176  1  0.90290539  0.39484554  0.90359424  1
  Te  Te177  1  0.90643949  0.74463738  0.24823050  1
  Te  Te178  1  0.93029526  0.73652526  0.59354686  1
  Te  Te179  1  0.91697972  0.74784064  0.91648907  1
