# generated using pymatgen
data_In2Te3
_symmetry_space_group_name_H-M   'P 1'
_cell_length_a   18.95972611
_cell_length_b   18.95086566
_cell_length_c   18.97977194
_cell_angle_alpha   89.94827406
_cell_angle_beta   90.05183730
_cell_angle_gamma   90.02901928
_symmetry_Int_Tables_number   1
_chemical_formula_structural   In2Te3
_chemical_formula_sum   'In72 Te108'
_cell_volume   6819.48677830
_cell_formula_units_Z   36
loop_
 _symmetry_equiv_pos_site_id
 _symmetry_equiv_pos_as_xyz
  1  'x, y, z'
loop_
 _atom_site_type_symbol
 _atom_site_label
 _atom_site_symmetry_multiplicity
 _atom_site_fract_x
 _atom_site_fract_y
 _atom_site_fract_z
 _atom_site_occupancy
  In  In0  1  0.68168943  0.49111706  0.84502428  1
  In  In1  1  0.85766383  0.83853654  0.69918194  1
  In  In2  1  0.85253285  0.65493496  0.81253249  1
  In  In3  1  0.51111838  0.65349454  0.16786106  1
  In  In4  1  0.34239985  0.14899292  0.46190466  1
  In  In5  1  0.67643462  0.30510018  -0.02786272  1
  In  In6  1  0.16146273  0.66048976  0.17443579  1
  In  In7  1  0.00683983  0.51085461  0.16126138  1
  In  In8  1  0.65182124  0.16940456  0.48717667  1
  In  In9  1  0.31119731  0.31465729  0.63929015  1
  In  In10  1  0.65276486  0.85382041  0.49443307  1
  In  In11  1  0.69238407  0.67608945  0.66636090  1
  In  In12  1  -0.00039019  -0.00083851  0.33815664  1
  In  In13  1  0.00920938  0.48214396  0.48773861  1
  In  In14  1  0.48334108  0.31433138  0.16904109  1
  In  In15  1  0.15321753  0.66492213  0.82522257  1
  In  In16  1  0.14841758  0.16854432  0.33018877  1
  In  In17  1  0.67992438  -0.00102744  0.00821851  1
  In  In18  1  0.83963645  0.18525808  0.68478233  1
  In  In19  1  0.66096444  0.34696628  0.66525601  1
  In  In20  1  0.82697702  0.02462772  0.50971527  1
  In  In21  1  0.49708515  0.48197265  0.33555464  1
  In  In22  1  0.29189254  0.30319169  0.02111642  1
  In  In23  1  0.82400686  0.51632145  0.33735430  1
  In  In24  1  0.66771626  0.51057014  0.50367858  1
  In  In25  1  0.18076372  0.84677122  0.33085764  1
  In  In26  1  0.82116553  0.67233040  0.49581932  1
  In  In27  1  0.67944303  0.34519006  0.32402150  1
  In  In28  1  0.50059204  0.31814659  0.80654455  1
  In  In29  1  0.48974527  -0.01044052  0.83498274  1
  In  In30  1  0.16537703  -0.00256085  0.49938535  1
  In  In31  1  0.31470579  0.16776221  0.19793559  1
  In  In32  1  0.69076967  0.51965067  0.16350667  1
  In  In33  1  0.01392636  0.87837002  0.86470383  1
  In  In34  1  0.84654282  0.00112120  0.16150435  1
  In  In35  1  0.32825580  0.66443365  -0.02096645  1
  In  In36  1  0.48941571  0.84213306  0.32870329  1
  In  In37  1  0.84128370  0.82786341  0.31142366  1
  In  In38  1  0.83766387  0.31758914  0.15259473  1
  In  In39  1  0.51042979  0.18810582  0.65711605  1
  In  In40  1  0.68513734  0.02186001  0.66906818  1
  In  In41  1  0.01950396  0.83154504  0.50359599  1
  In  In42  1  0.94746148  0.25282999  0.51582312  1
  In  In43  1  0.00950109  0.14796379  0.85284094  1
  In  In44  1  0.01179621  0.30954336  0.01586378  1
  In  In45  1  0.32862198  0.00803450  0.01405166  1
  In  In46  1  0.00444975  0.67295092  0.01109415  1
  In  In47  1  0.31535010  0.82687209  0.81249970  1
  In  In48  1  0.16577001  0.49131342  0.66977868  1
  In  In49  1  0.85998086  0.50894491  0.02016110  1
  In  In50  1  0.52410752  0.02885852  0.19878298  1
  In  In51  1  0.67344227  0.84558863  0.15476595  1
  In  In52  1  0.34352385  0.83266886  0.16139579  1
  In  In53  1  0.84673819  0.31004115  0.85750487  1
  In  In54  1  0.13615068  0.01255505  0.16350501  1
  In  In55  1  0.53533578  0.82212722  -0.02767444  1
  In  In56  1  0.49916365  0.84256327  0.65616019  1
  In  In57  1  -0.00293613  0.31755758  0.32463317  1
  In  In58  1  0.48741814  0.49615699  0.01907148  1
  In  In59  1  0.33420113  0.48901307  0.85307112  1
  In  In60  1  0.82901149  0.85232646  -0.00590979  1
  In  In61  1  0.15310488  0.49999514  0.01733252  1
  In  In62  1  0.13228872  0.18227336  0.65427380  1
  In  In63  1  0.48774158  0.65988728  0.47126879  1
  In  In64  1  0.49317538  0.17073593  -0.01928858  1
  In  In65  1  0.19199964  0.67489118  0.47847486  1
  In  In66  1  0.33336030  0.69036084  0.65099946  1
  In  In67  1  0.29731638  0.16424704  0.81242409  1
  In  In68  1  0.50304851  0.51027485  0.65917780  1
  In  In69  1  0.30522421  0.46860979  0.29823823  1
  In  In70  1  0.33006201  -0.00434652  0.65567205  1
  In  In71  1  0.01935743  0.66031189  0.68605691  1
  Te  Te72  1  0.03793369  0.03735381  0.04864924  1
  Te  Te73  1  0.06755045  0.09313340  0.43474702  1
  Te  Te74  1  0.08173344  0.07812074  0.74364210  1
  Te  Te75  1  0.09493281  0.39789553  0.11240417  1
  Te  Te76  1  0.08417534  0.42722046  0.37239040  1
  Te  Te77  1  0.06145738  0.45619224  0.76247416  1
  Te  Te78  1  0.09616478  0.75770269  0.08588849  1
  Te  Te79  1  0.08380214  0.74874216  0.39724539  1
  Te  Te80  1  0.07822010  0.77763645  0.75910731  1
  Te  Te81  1  0.41795438  0.10280876  0.09490463  1
  Te  Te82  1  0.45739855  0.07803188  0.39460702  1
  Te  Te83  1  0.42213374  0.09864773  0.75087135  1
  Te  Te84  1  0.38946931  0.40085487  0.08690827  1
  Te  Te85  1  0.38443940  0.44147564  0.42305705  1
  Te  Te86  1  0.40752516  0.41359647  0.73302837  1
  Te  Te87  1  0.42781571  0.74142762  0.07147372  1
  Te  Te88  1  0.40020700  0.75886209  0.41103398  1
  Te  Te89  1  0.43040078  0.74764237  0.75283877  1
  Te  Te90  1  0.72945336  0.08107520  0.11850993  1
  Te  Te91  1  0.73410940  0.07435290  0.40993826  1
  Te  Te92  1  0.78494450  0.07250024  0.76416644  1
  Te  Te93  1  0.74371392  0.41082664  0.05971179  1
  Te  Te94  1  0.76148329  0.41530737  0.43179685  1
  Te  Te95  1  0.76667625  0.40201637  0.75957116  1
  Te  Te96  1  0.73792070  0.75719432  0.05884363  1
  Te  Te97  1  0.73722726  0.76149570  0.40869801  1
  Te  Te98  1  0.74176657  0.76563208  0.78030070  1
  Te  Te99  1  0.04518554  0.21111862  0.23163786  1
  Te  Te100  1  0.08065974  0.29447964  0.57062578  1
  Te  Te101  1  0.10281328  0.23654176  0.92706578  1
  Te  Te102  1  0.09561373  0.56428288  0.26641777  1
  Te  Te103  1  0.09091667  0.59232680  0.57102673  1
  Te  Te104  1  0.06961918  0.57488304  0.91610314  1
  Te  Te105  1  0.06765808  0.90234062  0.24524009  1
  Te  Te106  1  0.07272912  0.93265427  0.59292681  1
  Te  Te107  1  0.11081349  0.96647589  0.93440274  1
  Te  Te108  1  0.39659279  0.26530229  0.28066905  1
  Te  Te109  1  0.41975028  0.25123739  0.55550687  1
  Te  Te110  1  0.39384873  0.25801673  0.90506376  1
  Te  Te111  1  0.41292376  0.57035187  0.24315144  1
  Te  Te112  1  0.40336193  0.58221852  0.57184885  1
  Te  Te113  1  0.43744973  0.58690365  0.90663025  1
  Te  Te114  1  0.40818461  0.94100415  0.24493442  1
  Te  Te115  1  0.40764809  0.91100093  0.56588273  1
  Te  Te116  1  0.40011379  0.90566431  0.92358415  1
  Te  Te117  1  0.74335830  0.24505154  0.23788357  1
  Te  Te118  1  0.74117709  0.24681690  0.58602479  1
  Te  Te119  1  0.77406671  0.20302029  0.93007612  1
  Te  Te120  1  0.75177498  0.61760409  0.25525011  1
  Te  Te121  1  0.77307919  0.56772489  0.59720285  1
  Te  Te122  1  0.77193935  0.58572505  0.92127002  1
  Te  Te123  1  0.74362761  0.93005915  0.25763098  1
  Te  Te124  1  0.75843290  0.90238815  0.59453844  1
  Te  Te125  1  0.76481031  0.94651091  0.90103052  1
  Te  Te126  1  0.21559570  0.20180053  0.09268329  1
  Te  Te127  1  0.23978758  0.24945401  0.41496170  1
  Te  Te128  1  0.21674473  0.27397449  0.74981815  1
  Te  Te129  1  0.26107467  0.58073222  0.08496780  1
  Te  Te130  1  0.26722149  0.56867742  0.41057728  1
  Te  Te131  1  0.26660715  0.58800042  0.75762805  1
  Te  Te132  1  0.23778050  0.91741344  0.09448001  1
  Te  Te133  1  0.26550070  0.92461867  0.42172265  1
  Te  Te134  1  0.24034529  0.93764017  0.75483580  1
  Te  Te135  1  0.58435528  0.24434217  0.07706087  1
  Te  Te136  1  0.57990936  0.27198373  0.40651366  1
  Te  Te137  1  0.61478058  0.23353502  0.75873052  1
  Te  Te138  1  0.59944357  0.59020872  0.06245447  1
  Te  Te139  1  0.59387318  0.58428781  0.39444817  1
  Te  Te140  1  0.60358974  0.57859770  0.74757737  1
  Te  Te141  1  0.55670856  0.92631586  0.08214664  1
  Te  Te142  1  0.56497256  0.94024532  0.41297354  1
  Te  Te143  1  0.59058510  0.92335238  0.74450024  1
  Te  Te144  1  0.90495211  0.21526291  0.06540602  1
  Te  Te145  1  0.88887937  0.23811332  0.38270693  1
  Te  Te146  1  0.94806832  0.25905072  0.75957787  1
  Te  Te147  1  0.90309709  0.62275409  0.11530724  1
  Te  Te148  1  0.92451810  0.59331779  0.41978362  1
  Te  Te149  1  0.93739497  0.54940544  0.74752218  1
  Te  Te150  1  0.93037841  0.90286774  0.08889412  1
  Te  Te151  1  0.90853744  0.91019125  0.43000769  1
  Te  Te152  1  0.92983066  0.94806405  0.76415096  1
  Te  Te153  1  0.23466181  0.06000702  0.26987993  1
  Te  Te154  1  0.25217993  0.10602697  0.58521831  1
  Te  Te155  1  0.23726619  0.07666293  0.91711117  1
  Te  Te156  1  0.25578478  0.33060057  0.26634043  1
  Te  Te157  1  0.23428719  0.41483015  0.56598882  1
  Te  Te158  1  0.22979412  0.40842678  0.92336304  1
  Te  Te159  1  0.26282107  0.74416828  0.25337778  1
  Te  Te160  1  0.22848649  0.76695139  0.58652916  1
  Te  Te161  1  0.22838222  0.75988583  0.91971934  1
  Te  Te162  1  0.55042799  0.13890812  0.29310474  1
  Te  Te163  1  0.57295442  0.07322347  0.58253454  1
  Te  Te164  1  0.58693676  0.07906190  0.90905494  1
  Te  Te165  1  0.58392691  0.42556596  0.21767413  1
  Te  Te166  1  0.56841408  0.41251142  0.56418768  1
  Te  Te167  1  0.56585310  0.40742222  0.91400991  1
  Te  Te168  1  0.58582574  0.75865666  0.24549410  1
  Te  Te169  1  0.58374021  0.73305265  0.57579622  1
  Te  Te170  1  0.62207047  0.75413538  0.88161248  1
  Te  Te171  1  0.92743736  0.09333927  0.24903486  1
  Te  Te172  1  0.92352145  0.11084373  0.58201318  1
  Te  Te173  1  0.91999249  0.09396799  0.96146401  1
  Te  Te174  1  0.90016466  0.42829698  0.23750770  1
  Te  Te175  1  0.93698866  0.38998086  0.57688368  1
  Te  Te176  1  0.93306319  0.41163849  0.93293491  1
  Te  Te177  1  0.90047570  0.71443826  0.24333119  1
  Te  Te178  1  0.91678109  0.74335024  0.59570955  1
  Te  Te179  1  0.92700863  0.75089123  0.90445045  1
