# generated using pymatgen
data_In2Te3
_symmetry_space_group_name_H-M   'P 1'
_cell_length_a   18.75027275
_cell_length_b   18.75898181
_cell_length_c   18.75690618
_cell_angle_alpha   90.01976666
_cell_angle_beta   89.96038689
_cell_angle_gamma   90.03974484
_symmetry_Int_Tables_number   1
_chemical_formula_structural   In2Te3
_chemical_formula_sum   'In72 Te108'
_cell_volume   6597.47606969
_cell_formula_units_Z   36
loop_
 _symmetry_equiv_pos_site_id
 _symmetry_equiv_pos_as_xyz
  1  'x, y, z'
loop_
 _atom_site_type_symbol
 _atom_site_label
 _atom_site_symmetry_multiplicity
 _atom_site_fract_x
 _atom_site_fract_y
 _atom_site_fract_z
 _atom_site_occupancy
  In  In0  1  0.32492892  0.17678850  0.50626985  1
  In  In1  1  0.31038315  0.16225321  0.17030240  1
  In  In2  1  0.67179267  0.81841807  0.49071697  1
  In  In3  1  0.30949678  0.36000190  0.63235079  1
  In  In4  1  -0.00784501  0.17673469  0.49386706  1
  In  In5  1  0.84134654  -0.01661064  0.84445927  1
  In  In6  1  0.63678944  -0.02297151  0.66270618  1
  In  In7  1  0.00117731  0.83316845  0.17898758  1
  In  In8  1  0.67521900  0.33748704  0.00369489  1
  In  In9  1  0.29758231  0.85229505  0.47785376  1
  In  In10  1  0.34495722  0.84298304  0.82745271  1
  In  In11  1  0.68204239  0.50654094  0.83111003  1
  In  In12  1  0.01369592  -0.01507191  0.64702710  1
  In  In13  1  0.66065339  0.35703426  0.67839421  1
  In  In14  1  0.34255556  0.65969109  0.01753660  1
  In  In15  1  0.15348283  0.33357558  0.83142383  1
  In  In16  1  0.81300207  0.35910468  0.83925983  1
  In  In17  1  0.49246512  -0.00823407  0.81253016  1
  In  In18  1  0.18252018  0.65377622  0.17805865  1
  In  In19  1  0.51116655  0.50442127  0.34399434  1
  In  In20  1  0.29158723  0.01912109  -0.00281707  1
  In  In21  1  0.48926279  0.36903898  0.16548705  1
  In  In22  1  0.33008675  0.50505118  0.15200770  1
  In  In23  1  0.86235335  -0.02168925  0.46856493  1
  In  In24  1  0.67768878  -0.00340382  0.02015311  1
  In  In25  1  0.50877427  0.79866250  -0.01598566  1
  In  In26  1  0.15538847  0.16538401  0.32232981  1
  In  In27  1  0.51203025  0.81312598  0.65286273  1
  In  In28  1  0.46114925  0.15241526  0.66668485  1
  In  In29  1  -0.00874025  -0.00146350  0.32527504  1
  In  In30  1  0.32187165  0.50069892  0.83101345  1
  In  In31  1  0.00155993  0.17255400  0.84843447  1
  In  In32  1  0.14528070  0.49944294  0.34609454  1
  In  In33  1  0.82366697  0.67220957  0.18262075  1
  In  In34  1  0.68977097  0.84777278  0.20052691  1
  In  In35  1  0.48907318  -0.00025569  0.49172000  1
  In  In36  1  0.51131542  0.65346201  0.50141253  1
  In  In37  1  0.84615298  0.49055428  -0.01200055  1
  In  In38  1  0.81658753  0.36833773  0.48372534  1
  In  In39  1  0.48813302  0.49557432  0.01871964  1
  In  In40  1  0.32757088  0.67034952  0.33745178  1
  In  In41  1  0.01780210  0.63889568  0.64728465  1
  In  In42  1  0.02217048  0.00690102  0.02479892  1
  In  In43  1  0.85449983  0.16416988  0.33063345  1
  In  In44  1  0.82193797  0.16868378  0.68932862  1
  In  In45  1  0.51327325  0.16406203  0.34497806  1
  In  In46  1  0.52609488  0.50964902  0.66428408  1
  In  In47  1  0.86656641  0.32384375  0.17120711  1
  In  In48  1  -0.00660164  0.36870536  0.64844323  1
  In  In49  1  0.01175029  0.48734467  0.18473048  1
  In  In50  1  0.51401315  0.69293090  0.15827059  1
  In  In51  1  0.84589782  0.82156350  0.01364666  1
  In  In52  1  0.32247960  0.68202893  0.64551674  1
  In  In53  1  0.16278814  0.84543759  -0.00085188  1
  In  In54  1  0.15913480  0.65661069  0.83032233  1
  In  In55  1  0.16839475  0.82836951  0.65590832  1
  In  In56  1  0.16406930  0.15806298  0.66806393  1
  In  In57  1  0.83154829  0.80743654  0.65341823  1
  In  In58  1  0.14848157  0.32365568  0.15762105  1
  In  In59  1  0.85254379  0.66046879  0.82051770  1
  In  In60  1  0.68563167  0.17150927  0.47072211  1
  In  In61  1  0.34382487  0.34047298  0.34069658  1
  In  In62  1  0.48051794  0.31122473  0.83783982  1
  In  In63  1  0.32208047  0.00880915  0.68000851  1
  In  In64  1  0.50475805  0.82567667  0.31687200  1
  In  In65  1  0.49001924  0.18426234  -0.02318350  1
  In  In66  1  0.66236577  0.51714360  0.19171210  1
  In  In67  1  0.47958777  -0.01585169  0.17537006  1
  In  In68  1  0.68317391  0.16730888  0.17858793  1
  In  In69  1  0.00195271  0.65198864  -0.01871166  1
  In  In70  1  0.84115584  0.65132761  0.49723216  1
  In  In71  1  0.68158069  0.18648757  0.85343255  1
  Te  Te72  1  0.08111913  0.11856956  0.10359261  1
  Te  Te73  1  0.08107592  0.07655708  0.42486551  1
  Te  Te74  1  0.07597646  0.07180998  0.75788550  1
  Te  Te75  1  0.07478368  0.41928230  0.07137605  1
  Te  Te76  1  0.07520033  0.42350764  0.45494398  1
  Te  Te77  1  0.08440224  0.43621632  0.74540681  1
  Te  Te78  1  0.08067179  0.73903441  0.08370505  1
  Te  Te79  1  0.03475237  0.73028693  0.43756073  1
  Te  Te80  1  0.07307169  0.74865652  0.74458738  1
  Te  Te81  1  0.41909547  0.08579267  0.07850301  1
  Te  Te82  1  0.39668989  0.08431212  0.40595086  1
  Te  Te83  1  0.38098001  0.10015805  0.79342141  1
  Te  Te84  1  0.38303652  0.39156345  0.06087265  1
  Te  Te85  1  0.41082313  0.43683805  0.42967089  1
  Te  Te86  1  0.42168814  0.41527003  0.74128778  1
  Te  Te87  1  0.39993334  0.77340670  0.09841252  1
  Te  Te88  1  0.42213187  0.75917064  0.43546984  1
  Te  Te89  1  0.42016615  0.73561344  0.75018052  1
  Te  Te90  1  0.76928919  0.08954132  0.08786822  1
  Te  Te91  1  0.75130257  0.05673719  0.38848905  1
  Te  Te92  1  0.73304386  0.06501995  0.75795116  1
  Te  Te93  1  0.75509852  0.42312161  0.10109042  1
  Te  Te94  1  0.74230797  0.47173426  0.40535661  1
  Te  Te95  1  0.77714001  0.45188980  0.71890731  1
  Te  Te96  1  0.73294373  0.75045699  0.08753188  1
  Te  Te97  1  0.77071175  0.74700277  0.40775755  1
  Te  Te98  1  0.74660417  0.73841955  0.75083842  1
  Te  Te99  1  0.05998446  0.26359710  0.26215969  1
  Te  Te100  1  0.08262072  0.25782398  0.58545553  1
  Te  Te101  1  0.10345764  0.23652074  0.93576161  1
  Te  Te102  1  0.06592286  0.60644086  0.26468865  1
  Te  Te103  1  0.09507894  0.54570572  0.55500806  1
  Te  Te104  1  0.07881836  0.55384414  0.90231686  1
  Te  Te105  1  0.09996411  0.91531541  0.25817132  1
  Te  Te106  1  0.10173777  0.91324456  0.55339265  1
  Te  Te107  1  0.07343894  0.92490634  0.91330555  1
  Te  Te108  1  0.42005814  0.24657105  0.24175187  1
  Te  Te109  1  0.42458541  0.26976834  0.57485775  1
  Te  Te110  1  0.37063583  0.25243448  0.91932085  1
  Te  Te111  1  0.42500395  0.58810346  0.23918870  1
  Te  Te112  1  0.41019325  0.57318067  0.58179893  1
  Te  Te113  1  0.42330026  0.58465395  0.91248804  1
  Te  Te114  1  0.39346494  0.91267716  0.27205936  1
  Te  Te115  1  0.40641481  0.91112483  0.59390097  1
  Te  Te116  1  0.42034632  0.92219434  0.93396408  1
  Te  Te117  1  0.75711784  0.26528954  0.26712129  1
  Te  Te118  1  0.75628816  0.25869625  0.58401063  1
  Te  Te119  1  0.78445927  0.24717733  0.94675317  1
  Te  Te120  1  0.77963026  0.56006283  0.27741729  1
  Te  Te121  1  0.77933023  0.55669793  0.59405713  1
  Te  Te122  1  0.75712618  0.59710649  0.92835008  1
  Te  Te123  1  0.76850663  0.93901161  0.28315999  1
  Te  Te124  1  0.75408780  0.92640870  0.57761804  1
  Te  Te125  1  0.74355792  0.89694745  0.92392560  1
  Te  Te126  1  0.22921315  0.23379698  0.06820034  1
  Te  Te127  1  0.23657774  0.26135584  0.41613939  1
  Te  Te128  1  0.25493335  0.26147871  0.73397252  1
  Te  Te129  1  0.22680718  0.56832927  0.05926754  1
  Te  Te130  1  0.25090158  0.57564041  0.42145001  1
  Te  Te131  1  0.24128030  0.57922672  0.72667089  1
  Te  Te132  1  0.23634169  0.92714649  0.09735798  1
  Te  Te133  1  0.22722958  0.92083211  0.36939068  1
  Te  Te134  1  0.23009573  0.91977933  0.76424380  1
  Te  Te135  1  0.57883467  0.25123026  0.08567035  1
  Te  Te136  1  0.58083353  0.26583196  0.42782414  1
  Te  Te137  1  0.58222136  0.23413389  0.74459092  1
  Te  Te138  1  0.59288058  0.59041849  0.07586680  1
  Te  Te139  1  0.61610355  0.57770099  0.42452927  1
  Te  Te140  1  0.58526044  0.60272781  0.76748904  1
  Te  Te141  1  0.58119802  0.90109917  0.09372844  1
  Te  Te142  1  0.58725612  0.91814509  0.40913611  1
  Te  Te143  1  0.58847797  0.88034999  0.77093582  1
  Te  Te144  1  0.96695530  0.22312452  0.11352140  1
  Te  Te145  1  0.91973207  0.27940789  0.40991044  1
  Te  Te146  1  0.92326770  0.26495390  0.74955941  1
  Te  Te147  1  0.91482751  0.58612952  0.09228885  1
  Te  Te148  1  0.96037658  0.60273063  0.41986188  1
  Te  Te149  1  0.94876514  0.56420053  0.75896283  1
  Te  Te150  1  0.90965592  0.92728389  0.10021285  1
  Te  Te151  1  0.95027749  0.87406077  0.40586924  1
  Te  Te152  1  0.91706985  0.90639203  0.73700889  1
  Te  Te153  1  0.24038281  0.06208228  0.25479550  1
  Te  Te154  1  0.23705208  0.06744432  0.56734858  1
  Te  Te155  1  0.25092957  0.09524911  0.88066022  1
  Te  Te156  1  0.24627691  0.42078422  0.24864467  1
  Te  Te157  1  0.20934172  0.43686599  0.55171906  1
  Te  Te158  1  0.24132063  0.41798718  0.92119505  1
  Te  Te159  1  0.23556035  0.76143908  0.26506153  1
  Te  Te160  1  0.22233526  0.73608763  0.54327036  1
  Te  Te161  1  0.25630885  0.74468751  0.91498647  1
  Te  Te162  1  0.58527540  0.07124846  0.24774919  1
  Te  Te163  1  0.58200616  0.09293243  0.57542170  1
  Te  Te164  1  0.58579315  0.07494792  0.91336265  1
  Te  Te165  1  0.59612820  0.39961678  0.26655616  1
  Te  Te166  1  0.59352714  0.42279813  0.56539769  1
  Te  Te167  1  0.57986810  0.41284714  0.91091383  1
  Te  Te168  1  0.61121767  0.72818898  0.26993623  1
  Te  Te169  1  0.61691761  0.71955536  0.59344126  1
  Te  Te170  1  0.57920672  0.71731270  0.88703411  1
  Te  Te171  1  0.94178133  0.10114945  0.22387171  1
  Te  Te172  1  0.90571041  0.08891346  0.58785001  1
  Te  Te173  1  0.91294572  0.08126111  0.93334461  1
  Te  Te174  1  0.91384951  0.42138144  0.27402160  1
  Te  Te175  1  0.90600444  0.46314771  0.56470525  1
  Te  Te176  1  0.93266836  0.39358674  0.91961905  1
  Te  Te177  1  0.89675505  0.77069244  0.26787869  1
  Te  Te178  1  0.94857360  0.75637301  0.57068369  1
  Te  Te179  1  0.93424805  0.76426223  0.90373869  1
