# generated using pymatgen
data_In2Te3
_symmetry_space_group_name_H-M   'P 1'
_cell_length_a   18.95699820
_cell_length_b   18.95462268
_cell_length_c   18.96022006
_cell_angle_alpha   90.02238925
_cell_angle_beta   89.89930434
_cell_angle_gamma   90.18285615
_symmetry_Int_Tables_number   1
_chemical_formula_structural   In2Te3
_chemical_formula_sum   'In72 Te108'
_cell_volume   6812.79265319
_cell_formula_units_Z   36
loop_
 _symmetry_equiv_pos_site_id
 _symmetry_equiv_pos_as_xyz
  1  'x, y, z'
loop_
 _atom_site_type_symbol
 _atom_site_label
 _atom_site_symmetry_multiplicity
 _atom_site_fract_x
 _atom_site_fract_y
 _atom_site_fract_z
 _atom_site_occupancy
  In  In0  1  0.70773938  -0.01440436  0.30349232  1
  In  In1  1  0.33419590  -0.01716528  0.32485342  1
  In  In2  1  0.85178750  0.17064618  0.34224525  1
  In  In3  1  0.14219200  0.30988410  0.15269311  1
  In  In4  1  -0.02092863  0.37701124  0.66395972  1
  In  In5  1  0.62180824  0.67530439  0.35674128  1
  In  In6  1  0.14353979  0.84601636  0.65159676  1
  In  In7  1  0.00676500  0.00228314  0.32851947  1
  In  In8  1  0.83970094  -0.02396160  0.84790721  1
  In  In9  1  0.51862733  0.33711465  0.18729428  1
  In  In10  1  0.70467456  0.78846389  0.82716739  1
  In  In11  1  0.68177225  -0.01869938  0.66703782  1
  In  In12  1  0.16381325  0.64998898  0.53587686  1
  In  In13  1  0.29042940  0.02604704  0.62857241  1
  In  In14  1  0.34377889  0.65257084  -0.03069623  1
  In  In15  1  0.48795434  0.36440226  0.50680937  1
  In  In16  1  0.48746362  0.33774223  0.83807328  1
  In  In17  1  0.18056394  0.50948937  0.32599864  1
  In  In18  1  0.48827264  0.16430553  0.64457072  1
  In  In19  1  0.65828970  0.14941252  0.16437142  1
  In  In20  1  0.68069210  0.66262431  0.01236356  1
  In  In21  1  0.47440707  -0.00865586  0.80625259  1
  In  In22  1  0.00988634  0.69402644  0.32498022  1
  In  In23  1  0.35145559  0.49304112  0.50039996  1
  In  In24  1  0.33889494  0.33945495  0.67646317  1
  In  In25  1  0.00564592  0.16968750  0.50290551  1
  In  In26  1  0.34828693  0.83796166  0.16157985  1
  In  In27  1  0.16090821  0.32449923  0.51364201  1
  In  In28  1  0.16656742  0.68896320  0.15499607  1
  In  In29  1  0.81536983  0.82611048  0.30990207  1
  In  In30  1  0.66428137  0.19078900  0.85879187  1
  In  In31  1  0.66229431  0.19981287  0.52686672  1
  In  In32  1  0.16833011  0.32406100  0.83320390  1
  In  In33  1  0.32474314  0.32601321  0.34313300  1
  In  In34  1  0.64253972  0.37452349  0.67891327  1
  In  In35  1  0.67093162  0.36760723  0.34040592  1
  In  In36  1  0.84913276  0.62970542  0.52169172  1
  In  In37  1  0.82664034  0.34747498  0.17925186  1
  In  In38  1  0.00041595  0.14108151  0.18075737  1
  In  In39  1  0.37805183  0.67892196  0.33380160  1
  In  In40  1  0.15919655  0.15057319  -0.00423987  1
  In  In41  1  0.33215995  0.83258152  0.48352514  1
  In  In42  1  0.80890562  0.53293848  0.33758161  1
  In  In43  1  0.17837634  0.65062346  0.80806568  1
  In  In44  1  0.48824992  0.16515053  0.33638570  1
  In  In45  1  0.12984494  -0.02746595  0.83812746  1
  In  In46  1  0.36065747  0.63862240  0.64980862  1
  In  In47  1  0.49761719  -0.02839548  0.47939121  1
  In  In48  1  0.32640933  -0.00601166  0.00492984  1
  In  In49  1  -0.02676860  0.83045472  0.14271246  1
  In  In50  1  -0.09999528  0.70476119  -0.00574362  1
  In  In51  1  0.69718435  0.83246481  0.52038464  1
  In  In52  1  0.34921352  0.50254593  0.16316595  1
  In  In53  1  0.16976329  -0.03462730  0.18011546  1
  In  In54  1  -0.00498073  0.82091432  0.49801967  1
  In  In55  1  -0.03268883  0.35216150  0.01589350  1
  In  In56  1  0.00922778  0.13605393  0.85020195  1
  In  In57  1  0.53230906  0.81620754  0.01634549  1
  In  In58  1  0.31252745  0.33359849  -0.00541823  1
  In  In59  1  -0.01910441  0.53146176  0.81839255  1
  In  In60  1  0.65754059  -0.00403874  -0.01547553  1
  In  In61  1  0.68832551  0.35900209  0.02031964  1
  In  In62  1  0.32480696  0.82339183  0.82949386  1
  In  In63  1  0.46836082  0.16072519  0.00868891  1
  In  In64  1  0.80966441  0.33237011  0.83167989  1
  In  In65  1  0.83372226  0.17238948  0.68743164  1
  In  In66  1  0.15763605  0.47679515  -0.00904166  1
  In  In67  1  0.69237253  0.53633510  0.82845686  1
  In  In68  1  0.52050743  0.51510205  -0.00129307  1
  In  In69  1  0.82097496  0.00335911  0.50648812  1
  In  In70  1  0.50316747  0.82589964  0.67062043  1
  In  In71  1  -0.00526513  0.33695025  0.34539821  1
  Te  Te72  1  0.08539562  0.05740674  0.08859500  1
  Te  Te73  1  0.09281255  0.08128545  0.42079490  1
  Te  Te74  1  0.08118319  0.07172886  0.74206455  1
  Te  Te75  1  0.06427228  0.42995120  0.10265962  1
  Te  Te76  1  0.09458617  0.42512622  0.41925203  1
  Te  Te77  1  0.08037790  0.42814177  0.76287913  1
  Te  Te78  1  0.05153963  0.72590964  0.06718298  1
  Te  Te79  1  0.10694873  0.74485668  0.42971011  1
  Te  Te80  1  0.08727977  0.75501540  0.75414765  1
  Te  Te81  1  0.41493940  0.06073724  0.10208523  1
  Te  Te82  1  0.40608920  0.07875744  0.42871716  1
  Te  Te83  1  0.38925303  0.09212584  0.73269675  1
  Te  Te84  1  0.42486373  0.40338507  0.07193081  1
  Te  Te85  1  0.42712607  0.42846774  0.38264269  1
  Te  Te86  1  0.45739371  0.41886999  0.71956184  1
  Te  Te87  1  0.41887589  0.73341461  0.07503880  1
  Te  Te88  1  0.44699709  0.75208022  0.44226531  1
  Te  Te89  1  0.42124810  0.73232565  0.75737156  1
  Te  Te90  1  0.74413633  0.07839165  0.07036487  1
  Te  Te91  1  0.73942342  0.10482331  0.42825074  1
  Te  Te92  1  0.73640688  0.08459264  0.76794392  1
  Te  Te93  1  0.78035396  0.45731836  0.08616208  1
  Te  Te94  1  0.77124440  0.42335139  0.42959554  1
  Te  Te95  1  0.76823159  0.43984848  0.73360784  1
  Te  Te96  1  0.74997680  0.78095695  0.06834309  1
  Te  Te97  1  0.78424926  0.74455302  0.43442166  1
  Te  Te98  1  0.78048205  0.70899053  0.72748240  1
  Te  Te99  1  0.08080564  0.23594355  0.26930085  1
  Te  Te100  1  0.06281836  0.26273353  0.61149697  1
  Te  Te101  1  0.07473169  0.26466030  0.94224081  1
  Te  Te102  1  0.08656197  0.59030534  0.23983049  1
  Te  Te103  1  0.05357166  0.57748514  0.60279075  1
  Te  Te104  1  0.08431188  0.58444457  0.91665250  1
  Te  Te105  1  0.06629688  0.88391156  0.25494373  1
  Te  Te106  1  0.05955526  0.93176561  0.56922641  1
  Te  Te107  1  0.03340713  0.90174875  0.93034386  1
  Te  Te108  1  0.40810570  0.24663004  0.23834564  1
  Te  Te109  1  0.40153143  0.25376152  0.56225976  1
  Te  Te110  1  0.39151999  0.23979780  0.90314303  1
  Te  Te111  1  0.44025997  0.57542555  0.25104400  1
  Te  Te112  1  0.45987917  0.58588736  0.55003475  1
  Te  Te113  1  0.43216773  0.56424821  0.89378538  1
  Te  Te114  1  0.44035663  0.88902572  0.27045240  1
  Te  Te115  1  0.41476260  0.92632816  0.59915479  1
  Te  Te116  1  0.42238751  0.90068846  0.91828229  1
  Te  Te117  1  0.74233312  0.24470488  0.25816777  1
  Te  Te118  1  0.75513337  0.27795053  0.61302764  1
  Te  Te119  1  0.76936550  0.24603857  0.95040424  1
  Te  Te120  1  0.72159466  0.62286710  0.26140750  1
  Te  Te121  1  0.72283287  0.61708114  0.60917594  1
  Te  Te122  1  0.79156512  0.60138393  0.92687144  1
  Te  Te123  1  0.73838946  0.88738862  0.19624257  1
  Te  Te124  1  0.79748978  0.90004809  0.61849765  1
  Te  Te125  1  0.75740193  0.88039065  0.93789821  1
  Te  Te126  1  0.25226932  0.22887884  0.08680803  1
  Te  Te127  1  0.24528852  0.23421261  0.42889758  1
  Te  Te128  1  0.24613109  0.24442340  0.73951721  1
  Te  Te129  1  0.24788701  0.57589064  0.07683483  1
  Te  Te130  1  0.26229094  0.59408055  0.42183741  1
  Te  Te131  1  0.26353425  0.56080382  0.72910333  1
  Te  Te132  1  0.23640198  0.88926923  0.06758400  1
  Te  Te133  1  0.23723971  0.91308754  0.41117107  1
  Te  Te134  1  0.25065746  0.92100788  0.74126422  1
  Te  Te135  1  0.57945032  0.24981018  0.06877355  1
  Te  Te136  1  0.57495056  0.26212880  0.41762751  1
  Te  Te137  1  0.57770007  0.24355991  0.73977667  1
  Te  Te138  1  0.58559110  0.59311868  0.10272019  1
  Te  Te139  1  0.58443006  0.56526115  0.44775942  1
  Te  Te140  1  0.61920911  0.60527232  0.72094292  1
  Te  Te141  1  0.56079217  0.94290724  0.08315484  1
  Te  Te142  1  0.62608398  0.92142272  0.41871124  1
  Te  Te143  1  0.59944290  0.90533186  0.77029467  1
  Te  Te144  1  0.91363994  0.24417777  0.10839038  1
  Te  Te145  1  0.90408902  0.26807824  0.44694111  1
  Te  Te146  1  0.92679928  0.25089935  0.77638609  1
  Te  Te147  1  0.88459845  0.57538549  0.06248887  1
  Te  Te148  1  0.93879408  0.58831926  0.40414874  1
  Te  Te149  1  0.91090654  0.62277995  0.72672299  1
  Te  Te150  1  0.93544876  0.93504657  0.04579455  1
  Te  Te151  1  0.90205945  0.91948905  0.40856870  1
  Te  Te152  1  0.94679866  0.90134028  0.77957139  1
  Te  Te153  1  0.24996327  0.07014398  0.24254194  1
  Te  Te154  1  0.21423187  0.11056497  0.53852842  1
  Te  Te155  1  0.24069557  0.06533099  0.90329696  1
  Te  Te156  1  0.24487195  0.40360381  0.23060572  1
  Te  Te157  1  0.24705094  0.42511708  0.58848159  1
  Te  Te158  1  0.26294724  0.43137826  0.89129074  1
  Te  Te159  1  0.26557988  0.74845847  0.25309826  1
  Te  Te160  1  0.26238272  0.74880146  0.59955602  1
  Te  Te161  1  0.23397524  0.74462835  0.92013790  1
  Te  Te162  1  0.58166608  0.06859534  0.26732738  1
  Te  Te163  1  0.58832994  0.06805556  0.58106242  1
  Te  Te164  1  0.55454760  0.08598539  0.89945999  1
  Te  Te165  1  0.61109113  0.44158100  0.22957178  1
  Te  Te166  1  0.60838766  0.44289666  0.55047839  1
  Te  Te167  1  0.60823813  0.41558771  0.90451445  1
  Te  Te168  1  0.54196565  0.77119851  0.27891828  1
  Te  Te169  1  0.60107006  0.74579167  0.59398509  1
  Te  Te170  1  0.58825316  0.73008470  0.90535740  1
  Te  Te171  1  0.89035177  0.05834809  0.24635627  1
  Te  Te172  1  0.91390101  0.08485052  0.59466350  1
  Te  Te173  1  0.91100899  0.07119280  0.93954129  1
  Te  Te174  1  0.91230464  0.43463263  0.26584046  1
  Te  Te175  1  0.93261133  0.48626808  0.57590861  1
  Te  Te176  1  0.90363001  0.42796791  0.90392727  1
  Te  Te177  1  0.89777543  0.72755812  0.22926184  1
  Te  Te178  1  0.94256018  0.72344377  0.59915532  1
  Te  Te179  1  0.95146580  0.77651039  0.87008567  1
