# generated using pymatgen
data_In2Te3
_symmetry_space_group_name_H-M   'P 1'
_cell_length_a   18.77476358
_cell_length_b   18.77026880
_cell_length_c   18.77933110
_cell_angle_alpha   89.97476835
_cell_angle_beta   89.95216015
_cell_angle_gamma   89.91483528
_symmetry_Int_Tables_number   1
_chemical_formula_structural   In2Te3
_chemical_formula_sum   'In72 Te108'
_cell_volume   6617.96422096
_cell_formula_units_Z   36
loop_
 _symmetry_equiv_pos_site_id
 _symmetry_equiv_pos_as_xyz
  1  'x, y, z'
loop_
 _atom_site_type_symbol
 _atom_site_label
 _atom_site_symmetry_multiplicity
 _atom_site_fract_x
 _atom_site_fract_y
 _atom_site_fract_z
 _atom_site_occupancy
  In  In0  1  0.33791194  0.14439582  0.83545991  1
  In  In1  1  -0.00189977  0.83720594  0.50131395  1
  In  In2  1  0.49864462  0.16007710  0.67662095  1
  In  In3  1  0.50242708  0.83680511  0.32110905  1
  In  In4  1  0.82242563  -0.01999070  0.15978792  1
  In  In5  1  0.82214347  0.68905947  0.15626518  1
  In  In6  1  0.82084558  0.33823358  0.83007148  1
  In  In7  1  0.00111231  0.17631201  0.16363860  1
  In  In8  1  0.19472406  0.16353924  -0.02706008  1
  In  In9  1  0.01334157  0.37482653  0.38304717  1
  In  In10  1  0.85832661  0.52970142  0.37490957  1
  In  In11  1  0.03539913  0.13313174  0.77671176  1
  In  In12  1  0.67894477  0.51728689  0.83684326  1
  In  In13  1  0.49059814  0.51682595  -0.02622894  1
  In  In14  1  0.83472668  -0.00733777  0.81879083  1
  In  In15  1  0.84528334  0.33414262  0.50703780  1
  In  In16  1  0.31743803  0.82740775  0.51526731  1
  In  In17  1  0.83178065  0.50985336  0.00648788  1
  In  In18  1  0.64624571  0.50316350  0.19670274  1
  In  In19  1  0.67969717  0.66929368  0.65911470  1
  In  In20  1  0.66236541  0.32089655  0.68107619  1
  In  In21  1  0.50072642  -0.04488860  0.14186465  1
  In  In22  1  0.50798285  0.66196553  0.52271555  1
  In  In23  1  0.67977194  0.14401628  0.17370702  1
  In  In24  1  0.84375530  0.85517631  0.66434151  1
  In  In25  1  0.31144340  0.32813393  0.32662935  1
  In  In26  1  0.69233328  0.69623797  0.35620881  1
  In  In27  1  0.33597010  0.31899727  0.67140237  1
  In  In28  1  0.02702052  0.34124382  0.01083418  1
  In  In29  1  0.18382801  -0.00084087  0.15946599  1
  In  In30  1  0.48597077  -0.00987425  0.82856284  1
  In  In31  1  0.48662888  0.50363356  0.32452016  1
  In  In32  1  0.49743009  0.15917923  -0.03055727  1
  In  In33  1  0.18780306  0.82877482  0.68443521  1
  In  In34  1  0.32473112  0.52145885  0.81686222  1
  In  In35  1  0.01627076  0.67047265  0.67061704  1
  In  In36  1  0.66934579  0.67662802  -0.00976265  1
  In  In37  1  0.48539078  0.52343034  0.67906376  1
  In  In38  1  -0.01843398  0.82628935  0.17851233  1
  In  In39  1  0.01267203  0.53354862  0.83156026  1
  In  In40  1  0.83729438  0.31171423  0.18651875  1
  In  In41  1  0.49350640  0.14910395  0.36066347  1
  In  In42  1  0.01216997  -0.02000906  -0.01682693  1
  In  In43  1  0.32512310  0.51111648  0.15490760  1
  In  In44  1  0.48284702  -0.01328645  0.51274900  1
  In  In45  1  0.16408791  0.51766590  0.66539609  1
  In  In46  1  0.33204555  0.51861064  0.51480736  1
  In  In47  1  0.66686482  0.33316959  0.00098973  1
  In  In48  1  -0.00717094  -0.01332060  0.36210368  1
  In  In49  1  0.00435669  0.14304291  0.53097211  1
  In  In50  1  0.49243707  0.71950515  0.12888541  1
  In  In51  1  0.17136398  0.34860003  0.16084885  1
  In  In52  1  0.17503409  0.83611152  -0.02810690  1
  In  In53  1  0.67524820  -0.00481763  0.34241741  1
  In  In54  1  0.15800101  0.16752781  0.34129157  1
  In  In55  1  0.83902986  0.15059658  0.65981843  1
  In  In56  1  0.01585234  0.50393059  0.17573074  1
  In  In57  1  -0.00960231  0.70024456  -0.03418881  1
  In  In58  1  0.50218745  0.31577955  0.51046347  1
  In  In59  1  0.17545302  0.66755352  0.17229958  1
  In  In60  1  0.83172708  0.14298402  0.35564290  1
  In  In61  1  0.65982195  0.83714325  0.83572482  1
  In  In62  1  0.17083946  0.83327100  0.35584637  1
  In  In63  1  0.31470111  0.16972079  0.16766039  1
  In  In64  1  0.81760047  0.12956595  0.00202191  1
  In  In65  1  0.19073443  0.34063635  0.83639105  1
  In  In66  1  0.33749118  -0.00402412  -0.02164671  1
  In  In67  1  0.66613909  -0.01121328  0.66540759  1
  In  In68  1  0.00324088  0.33575451  0.63564000  1
  In  In69  1  0.68375895  0.50081867  0.50689255  1
  In  In70  1  0.50465782  0.35870422  0.16509909  1
  In  In71  1  0.31797800  0.65816861  0.34389875  1
  Te  Te72  1  0.09291318  0.08511230  0.07039956  1
  Te  Te73  1  0.09914906  0.06197605  0.43792644  1
  Te  Te74  1  0.12335957  0.03410840  0.69209632  1
  Te  Te75  1  0.11133322  0.45454637  0.06617109  1
  Te  Te76  1  0.12111488  0.44395646  0.45197182  1
  Te  Te77  1  0.08208944  0.41142484  0.75191386  1
  Te  Te78  1  0.08442323  0.76555934  0.07928965  1
  Te  Te79  1  0.07209203  0.73801697  0.41369394  1
  Te  Te80  1  0.07922532  0.76256052  0.77090835  1
  Te  Te81  1  0.41137591  0.08475590  0.08352415  1
  Te  Te82  1  0.39055377  0.07371709  0.43347344  1
  Te  Te83  1  0.39540525  0.05691688  0.72364218  1
  Te  Te84  1  0.41078592  0.42026766  0.06410662  1
  Te  Te85  1  0.40924317  0.41750331  0.42561075  1
  Te  Te86  1  0.41989387  0.41126327  0.75888441  1
  Te  Te87  1  0.39485522  0.78714768  0.04252124  1
  Te  Te88  1  0.42264508  0.74151814  0.41862022  1
  Te  Te89  1  0.36945966  0.71971663  0.77461365  1
  Te  Te90  1  0.71330366  0.03948603  0.06736170  1
  Te  Te91  1  0.75665483  0.05940166  0.44987314  1
  Te  Te92  1  0.73598921  0.09102249  0.75597677  1
  Te  Te93  1  0.74806813  0.41923276  0.09921213  1
  Te  Te94  1  0.76019193  0.41367957  0.40784973  1
  Te  Te95  1  0.75325987  0.43386323  0.73086035  1
  Te  Te96  1  0.72326163  0.77978176  0.08856852  1
  Te  Te97  1  0.77823466  0.78010951  0.44006258  1
  Te  Te98  1  0.76223490  0.75857670  0.75212636  1
  Te  Te99  1  0.08004515  0.27194803  0.25600212  1
  Te  Te100  1  0.10781112  0.24512346  0.57540359  1
  Te  Te101  1  0.08072523  0.24294043  0.90521487  1
  Te  Te102  1  0.08004373  0.60168461  0.26545437  1
  Te  Te103  1  0.05762875  0.56183689  0.56411165  1
  Te  Te104  1  0.09780979  0.60811626  0.92441559  1
  Te  Te105  1  0.08141264  0.92443269  0.24622961  1
  Te  Te106  1  0.09644468  0.90919787  0.58794293  1
  Te  Te107  1  0.06377438  0.88565320  0.87775923  1
  Te  Te108  1  0.41998477  0.25211002  0.24709553  1
  Te  Te109  1  0.40079404  0.22175640  0.57353836  1
  Te  Te110  1  0.40338462  0.25447767  0.91026445  1
  Te  Te111  1  0.42073445  0.60527109  0.23175244  1
  Te  Te112  1  0.38955277  0.62250835  0.61145594  1
  Te  Te113  1  0.41442328  0.61889954  0.89527407  1
  Te  Te114  1  0.40521007  0.92103082  0.24878011  1
  Te  Te115  1  0.41109662  0.89596424  0.60681836  1
  Te  Te116  1  0.42695658  0.88636430  0.92306485  1
  Te  Te117  1  0.73940308  0.23918253  0.27713815  1
  Te  Te118  1  0.74590964  0.24348824  0.57932271  1
  Te  Te119  1  0.74320759  0.23498806  0.91290184  1
  Te  Te120  1  0.76132200  0.58201345  0.25789514  1
  Te  Te121  1  0.77380491  0.60044428  0.56546720  1
  Te  Te122  1  0.78094870  0.61081486  0.90329193  1
  Te  Te123  1  0.74963731  0.89829361  0.25819301  1
  Te  Te124  1  0.74299812  0.90668451  0.56605761  1
  Te  Te125  1  0.77445841  0.89464486  0.91669425  1
  Te  Te126  1  0.25925846  0.26842429  0.06506817  1
  Te  Te127  1  0.24635033  0.24670787  0.42990605  1
  Te  Te128  1  0.23788004  0.22493827  0.74521457  1
  Te  Te129  1  0.26698628  0.61565194  0.06873929  1
  Te  Te130  1  0.22441291  0.57641241  0.42703842  1
  Te  Te131  1  0.23099994  0.62116599  0.75208735  1
  Te  Te132  1  0.26613228  0.89920258  0.08133604  1
  Te  Te133  1  0.25034524  0.93103966  0.43174371  1
  Te  Te134  1  0.24896067  0.93874421  0.76551335  1
  Te  Te135  1  0.58522113  0.24177416  0.09349313  1
  Te  Te136  1  0.59309796  0.23466090  0.42759634  1
  Te  Te137  1  0.56987162  0.24995766  0.76994114  1
  Te  Te138  1  0.58275577  0.58072320  0.08228259  1
  Te  Te139  1  0.58605945  0.58482792  0.41300004  1
  Te  Te140  1  0.58113704  0.60786370  0.76156082  1
  Te  Te141  1  0.59032178  0.86499678  0.06961817  1
  Te  Te142  1  0.58365803  0.90541852  0.42847257  1
  Te  Te143  1  0.56347338  0.89742391  0.73228837  1
  Te  Te144  1  0.90248775  0.25232340  0.06078024  1
  Te  Te145  1  0.93552134  0.23840700  0.41708945  1
  Te  Te146  1  0.91845792  0.25379116  0.74339954  1
  Te  Te147  1  0.93107523  0.59682812  0.08315639  1
  Te  Te148  1  0.97475163  0.59894578  0.43307538  1
  Te  Te149  1  0.91230246  0.58924067  0.74165368  1
  Te  Te150  1  0.91098427  0.89926770  0.06398254  1
  Te  Te151  1  0.88755733  0.88910030  0.40548231  1
  Te  Te152  1  0.94669717  0.92270234  0.74936196  1
  Te  Te153  1  0.25807502  0.07275959  0.26975126  1
  Te  Te154  1  0.20542734  0.12433430  0.60874823  1
  Te  Te155  1  0.22002270  0.03885590  0.88462812  1
  Te  Te156  1  0.23696054  0.44380993  0.26061819  1
  Te  Te157  1  0.24743442  0.41239606  0.58918749  1
  Te  Te158  1  0.25309361  0.44214691  0.92122467  1
  Te  Te159  1  0.26201958  0.76695550  0.25200043  1
  Te  Te160  1  0.22311654  0.73215228  0.57677795  1
  Te  Te161  1  0.26796384  0.76837118  0.87121097  1
  Te  Te162  1  0.56957682  0.06598930  0.24626218  1
  Te  Te163  1  0.58477718  0.08422364  0.57727629  1
  Te  Te164  1  0.58829262  0.06273891  0.90752688  1
  Te  Te165  1  0.58932477  0.39435404  0.28751146  1
  Te  Te166  1  0.57259296  0.43079478  0.58795626  1
  Te  Te167  1  0.58471351  0.41654175  0.90308587  1
  Te  Te168  1  0.59123857  0.73522555  0.24997424  1
  Te  Te169  1  0.59195619  0.76438961  0.58496412  1
  Te  Te170  1  0.56628095  0.74716562  0.91005023  1
  Te  Te171  1  0.91519300  0.07406720  0.24371368  1
  Te  Te172  1  0.91419664  0.04276582  0.59168633  1
  Te  Te173  1  0.93068340  0.08699823  0.90647531  1
  Te  Te174  1  0.91913757  0.41881758  0.25954004  1
  Te  Te175  1  0.91530592  0.44137387  0.58049795  1
  Te  Te176  1  0.91938229  0.42032008  0.91762604  1
  Te  Te177  1  0.90712633  0.73616140  0.26779166  1
  Te  Te178  1  0.91163994  0.74210748  0.58453195  1
  Te  Te179  1  0.86912801  0.76243606  0.91276525  1
