# generated using pymatgen
data_In2Te3
_symmetry_space_group_name_H-M   'P 1'
_cell_length_a   18.86116580
_cell_length_b   18.88722826
_cell_length_c   18.87941896
_cell_angle_alpha   89.96205705
_cell_angle_beta   90.07532992
_cell_angle_gamma   89.95013808
_symmetry_Int_Tables_number   1
_chemical_formula_structural   In2Te3
_chemical_formula_sum   'In72 Te108'
_cell_volume   6725.50268521
_cell_formula_units_Z   36
loop_
 _symmetry_equiv_pos_site_id
 _symmetry_equiv_pos_as_xyz
  1  'x, y, z'
loop_
 _atom_site_type_symbol
 _atom_site_label
 _atom_site_symmetry_multiplicity
 _atom_site_fract_x
 _atom_site_fract_y
 _atom_site_fract_z
 _atom_site_occupancy
  In  In0  1  0.02118439  0.68165772  0.65533701  1
  In  In1  1  0.34006450  0.34175288  0.33199408  1
  In  In2  1  0.31142220  -0.00232027  0.32922089  1
  In  In3  1  0.48312620  0.14644642  0.68631178  1
  In  In4  1  0.01236128  0.01627335  -0.00777457  1
  In  In5  1  0.84623665  0.68727608  0.16143455  1
  In  In6  1  0.84319808  0.53852779  0.00246987  1
  In  In7  1  0.85353921  0.47520588  0.33997122  1
  In  In8  1  0.04458819  0.50635346  0.83060115  1
  In  In9  1  0.47457308  0.50259800  -0.00190964  1
  In  In10  1  0.18032327  0.83916044  0.68967500  1
  In  In11  1  0.17166999  -0.00540828  0.16204168  1
  In  In12  1  0.14294943  0.54580519  0.30725442  1
  In  In13  1  0.85040148  0.67978914  0.81782284  1
  In  In14  1  0.16988602  -0.00584101  0.83742751  1
  In  In15  1  0.29406052  0.13753042  0.54203035  1
  In  In16  1  0.00525010  0.35571738  -0.00271866  1
  In  In17  1  0.83334886  0.34058259  0.16176229  1
  In  In18  1  0.16681449  0.80988912  0.32713077  1
  In  In19  1  0.15211876  0.67490530  0.51025308  1
  In  In20  1  0.66040944  0.65576708  0.32237233  1
  In  In21  1  0.00870053  0.82474597  0.15630672  1
  In  In22  1  0.35161831  0.50995993  0.49050276  1
  In  In23  1  0.49837478  0.82233825  0.33838654  1
  In  In24  1  0.33383005  0.67621512  -0.00771568  1
  In  In25  1  0.61559283  0.52505907  0.50035243  1
  In  In26  1  0.83173543  0.01225171  0.17582448  1
  In  In27  1  0.64923747  -0.00861014  -0.01840244  1
  In  In28  1  0.33904572  0.83475753  0.17618116  1
  In  In29  1  0.63120180  0.17155348  0.15808912  1
  In  In30  1  0.64204201  0.33565791  0.31420851  1
  In  In31  1  0.34006963  0.17551564  0.84424104  1
  In  In32  1  0.47522585  0.48898662  0.68754193  1
  In  In33  1  0.49084319  0.81930928  0.67108868  1
  In  In34  1  0.18846638  0.33440101  0.15589491  1
  In  In35  1  0.01972040  0.14493102  0.82274415  1
  In  In36  1  0.65188773  0.52160956  0.15362738  1
  In  In37  1  0.66650741  0.83541836  0.50325781  1
  In  In38  1  0.64834585  0.15975596  0.83715197  1
  In  In39  1  0.32287624  0.83105481  0.50785394  1
  In  In40  1  0.86121620  0.85510917  0.69143101  1
  In  In41  1  0.84115540  0.14235174  0.33519966  1
  In  In42  1  0.84528547  0.30205646  0.84982433  1
  In  In43  1  -0.02631091  0.86373938  0.50595643  1
  In  In44  1  0.49169842  0.33872543  0.14583497  1
  In  In45  1  0.18626879  0.18119603  0.00305313  1
  In  In46  1  -0.01609609  0.13265916  0.52054070  1
  In  In47  1  -0.00465676  0.52674704  0.50348604  1
  In  In48  1  0.41935381  0.00953306  -0.02925083  1
  In  In49  1  0.51844203  0.68663041  0.84148467  1
  In  In50  1  0.15438199  0.14599724  0.34154080  1
  In  In51  1  0.84123898  0.16561680  -0.01455102  1
  In  In52  1  0.66629250  0.48388457  0.84966899  1
  In  In53  1  0.18046681  0.33982784  0.51267046  1
  In  In54  1  0.62183124  0.31917569  0.05631957  1
  In  In55  1  0.82550300  0.83303719  -0.01764596  1
  In  In56  1  0.18193856  0.82006145  -0.00988449  1
  In  In57  1  0.65090496  0.29939490  0.65642000  1
  In  In58  1  0.82070861  0.49033909  0.66405643  1
  In  In59  1  0.65271202  -0.01018263  0.68621686  1
  In  In60  1  0.83876169  0.63683792  0.48397884  1
  In  In61  1  0.03031381  0.34399353  0.68063062  1
  In  In62  1  0.00833327  0.33477398  0.33741858  1
  In  In63  1  0.20432717  0.50451620  -0.02346370  1
  In  In64  1  0.68871648  0.86354943  0.15138003  1
  In  In65  1  0.48303419  0.65464922  0.16694145  1
  In  In66  1  0.79714493  0.33463462  0.49830032  1
  In  In67  1  0.64028323  0.70578471  0.66976818  1
  In  In68  1  0.68186747  0.15476663  0.47816755  1
  In  In69  1  0.50062028  -0.01790538  0.48936769  1
  In  In70  1  0.50532465  0.15892533  0.33462313  1
  In  In71  1  0.33494546  0.31765410  0.68126686  1
  Te  Te72  1  0.08831865  0.10147943  0.09009117  1
  Te  Te73  1  0.05472637  0.06211296  0.41167512  1
  Te  Te74  1  0.12921242  0.09619469  0.73114059  1
  Te  Te75  1  0.10498166  0.43433026  0.07696511  1
  Te  Te76  1  0.09050613  0.42894952  0.42411040  1
  Te  Te77  1  0.13631747  0.39641535  0.77479081  1
  Te  Te78  1  0.12656643  0.74306805  0.10781377  1
  Te  Te79  1  0.06112240  0.76146608  0.42672922  1
  Te  Te80  1  0.08025655  0.75883563  0.76448000  1
  Te  Te81  1  0.44432942  0.07126747  0.10140010  1
  Te  Te82  1  0.40067224  0.08048694  0.42603422  1
  Te  Te83  1  0.37564362  0.06533836  0.74683147  1
  Te  Te84  1  0.38916359  0.44113463  0.10302752  1
  Te  Te85  1  0.43170671  0.40278058  0.42858914  1
  Te  Te86  1  0.39311487  0.40990050  0.78523405  1
  Te  Te87  1  0.42887719  0.76387624  0.07576590  1
  Te  Te88  1  0.38344928  0.74888834  0.39827149  1
  Te  Te89  1  0.41183384  0.71543415  0.74158388  1
  Te  Te90  1  0.74116274  0.09370853  0.07596064  1
  Te  Te91  1  0.78466041  0.05092956  0.44079061  1
  Te  Te92  1  0.74347772  0.08444671  0.75450616  1
  Te  Te93  1  0.74852972  0.42882318  0.07121617  1
  Te  Te94  1  0.71979981  0.43862718  0.41555613  1
  Te  Te95  1  0.74558176  0.38880767  0.74938140  1
  Te  Te96  1  0.73822852  0.74462805  0.07071128  1
  Te  Te97  1  0.74822265  0.73898985  0.41509918  1
  Te  Te98  1  0.74544787  0.77360321  0.75592364  1
  Te  Te99  1  0.09486147  0.25171621  0.24567776  1
  Te  Te100  1  0.07755455  0.24681828  0.57425319  1
  Te  Te101  1  0.08026215  0.24904167  0.91728627  1
  Te  Te102  1  0.07860274  0.63305721  0.20950789  1
  Te  Te103  1  0.10259131  0.56213895  0.60367111  1
  Te  Te104  1  0.10010469  0.60645844  0.92919469  1
  Te  Te105  1  0.08263301  0.91671601  0.25508057  1
  Te  Te106  1  0.08805084  0.91898661  0.59124327  1
  Te  Te107  1  0.07580096  0.90231372  0.91620399  1
  Te  Te108  1  0.41878481  0.24521902  0.24393277  1
  Te  Te109  1  0.40972817  0.22955897  0.58075463  1
  Te  Te110  1  0.40492863  0.25306766  0.95248193  1
  Te  Te111  1  0.43907463  0.56653412  0.27413169  1
  Te  Te112  1  0.41586773  0.59040901  0.59823212  1
  Te  Te113  1  0.41066026  0.58783399  0.89125995  1
  Te  Te114  1  0.42631818  0.93091091  0.25653741  1
  Te  Te115  1  0.40744021  0.92461130  0.59265322  1
  Te  Te116  1  0.43823545  0.88021088  0.90110865  1
  Te  Te117  1  0.75156481  0.25058131  0.25326121  1
  Te  Te118  1  0.76365775  0.21990419  0.59212821  1
  Te  Te119  1  0.72643908  0.25712111  0.93512548  1
  Te  Te120  1  0.76480911  0.56903759  0.24592471  1
  Te  Te121  1  0.73240638  0.58800349  0.58679593  1
  Te  Te122  1  0.74641574  0.60149568  0.90338688  1
  Te  Te123  1  0.78044312  0.90194466  0.26217779  1
  Te  Te124  1  0.75241785  0.91554686  0.59862069  1
  Te  Te125  1  0.75478397  0.93097051  0.89798340  1
  Te  Te126  1  0.28979488  0.27347366  0.06129176  1
  Te  Te127  1  0.24976692  0.24056489  0.41934974  1
  Te  Te128  1  0.23762563  0.22474411  0.74620592  1
  Te  Te129  1  0.28399442  0.57025089  0.08616451  1
  Te  Te130  1  0.23611265  0.58798606  0.41816121  1
  Te  Te131  1  0.18123963  0.57023140  0.80370549  1
  Te  Te132  1  0.26635502  0.91882152  0.07179948  1
  Te  Te133  1  0.22770106  0.91448069  0.42252116  1
  Te  Te134  1  0.27895039  0.92345101  0.76347893  1
  Te  Te135  1  0.52351827  0.19120153  0.04292824  1
  Te  Te136  1  0.58006729  0.25674288  0.42819643  1
  Te  Te137  1  0.55362658  0.25686782  0.76470108  1
  Te  Te138  1  0.57674264  0.60284410  0.05200476  1
  Te  Te139  1  0.53930790  0.59608329  0.39148523  1
  Te  Te140  1  0.59512454  0.57592449  0.75006090  1
  Te  Te141  1  0.57572215  0.94923479  0.10428927  1
  Te  Te142  1  0.60300974  0.92215533  0.39526136  1
  Te  Te143  1  0.55619778  0.91162781  0.77144802  1
  Te  Te144  1  0.92545391  0.25220944  0.07872677  1
  Te  Te145  1  0.90636986  0.25688712  0.41915476  1
  Te  Te146  1  0.93073034  0.24338367  0.74025517  1
  Te  Te147  1  0.94185047  0.59303449  0.09695421  1
  Te  Te148  1  0.94003358  0.59520276  0.37849574  1
  Te  Te149  1  0.92627180  0.57394049  0.73478446  1
  Te  Te150  1  0.91836477  0.92681042  0.07556883  1
  Te  Te151  1  0.89651511  0.94478552  0.41167338  1
  Te  Te152  1  0.98863445  0.92649343  0.72135215  1
  Te  Te153  1  0.25570121  0.10085989  0.23253880  1
  Te  Te154  1  0.19029639  0.04324502  0.58292439  1
  Te  Te155  1  0.26314869  0.06798080  0.93795403  1
  Te  Te156  1  0.23795504  0.43072216  0.26321498  1
  Te  Te157  1  0.26939778  0.42689285  0.59585568  1
  Te  Te158  1  0.25679519  0.40670696  0.87784831  1
  Te  Te159  1  0.27956602  0.73241478  0.26676212  1
  Te  Te160  1  0.25458635  0.73527454  0.60482138  1
  Te  Te161  1  0.26198248  0.75230147  0.88749350  1
  Te  Te162  1  0.61631161  0.08337373  0.27521795  1
  Te  Te163  1  0.58136153  0.08187991  0.57676451  1
  Te  Te164  1  0.54631941  0.06425308  0.89497739  1
  Te  Te165  1  0.55834272  0.44150290  0.24484910  1
  Te  Te166  1  0.56990542  0.41222787  0.59290849  1
  Te  Te167  1  0.57024628  0.40347777  0.93356771  1
  Te  Te168  1  0.59002674  0.75687317  0.23190878  1
  Te  Te169  1  0.55344088  0.74651116  0.55032026  1
  Te  Te170  1  0.57383406  0.80968350  0.90403777  1
  Te  Te171  1  0.93649200  0.09753042  0.23393293  1
  Te  Te172  1  0.93708205  0.03181342  0.61879532  1
  Te  Te173  1  0.90827469  0.06598535  0.89168985  1
  Te  Te174  1  0.94362789  0.42219001  0.22880083  1
  Te  Te175  1  0.91410986  0.41125758  0.57246128  1
  Te  Te176  1  0.90817261  0.43073911  0.90333431  1
  Te  Te177  1  0.90797262  0.78069771  0.25720597  1
  Te  Te178  1  0.89832070  0.74270867  0.58382267  1
  Te  Te179  1  0.92844492  0.74540435  0.92308347  1
