# generated using pymatgen
data_In2Te3
_symmetry_space_group_name_H-M   'P 1'
_cell_length_a   18.81898126
_cell_length_b   18.83967262
_cell_length_c   18.81226484
_cell_angle_alpha   89.91278905
_cell_angle_beta   90.06556741
_cell_angle_gamma   90.07010684
_symmetry_Int_Tables_number   1
_chemical_formula_structural   In2Te3
_chemical_formula_sum   'In72 Te108'
_cell_volume   6669.74813073
_cell_formula_units_Z   36
loop_
 _symmetry_equiv_pos_site_id
 _symmetry_equiv_pos_as_xyz
  1  'x, y, z'
loop_
 _atom_site_type_symbol
 _atom_site_label
 _atom_site_symmetry_multiplicity
 _atom_site_fract_x
 _atom_site_fract_y
 _atom_site_fract_z
 _atom_site_occupancy
  In  In0  1  0.50121857  0.19406955  0.33564494  1
  In  In1  1  0.17370619  0.83581703  0.66901153  1
  In  In2  1  0.51076283  0.51582183  0.69061342  1
  In  In3  1  0.49575384  0.16077017  0.67957668  1
  In  In4  1  0.65515195  0.16660919  0.84088261  1
  In  In5  1  0.35084070  0.80947589  0.82800147  1
  In  In6  1  0.18996803  0.46747364  -0.02956519  1
  In  In7  1  0.36257951  0.82180002  0.50379552  1
  In  In8  1  0.30552243  0.14733593  0.51580639  1
  In  In9  1  0.83037794  0.16585562  0.33277403  1
  In  In10  1  0.81052626  0.33544079  0.50718038  1
  In  In11  1  0.50159216  0.50880844  -0.02157943  1
  In  In12  1  -0.00190217  0.15799070  0.14118010  1
  In  In13  1  0.53048501  0.79281142  -0.01039667  1
  In  In14  1  -0.00097404  0.48292086  0.49857346  1
  In  In15  1  0.18970801  0.32571601  0.85169402  1
  In  In16  1  0.18723543  0.67217469  0.49247110  1
  In  In17  1  0.37122341  0.50162210  0.16158747  1
  In  In18  1  0.53210515  0.54449801  0.32134929  1
  In  In19  1  -0.01802479  0.82037987  0.49807904  1
  In  In20  1  0.65163898  0.00036701  -0.02759374  1
  In  In21  1  0.82698298  0.50459013  0.31102285  1
  In  In22  1  0.77413714  0.68519680  0.88303033  1
  In  In23  1  0.82078756  0.66986397  0.50159995  1
  In  In24  1  0.65471164  0.81982417  0.50636593  1
  In  In25  1  0.51075957  0.33911072  0.48843533  1
  In  In26  1  -0.02785911  0.66894709  -0.00455414  1
  In  In27  1  -0.04429070  0.69021626  0.29399432  1
  In  In28  1  0.32250851  0.15795692  0.16463606  1
  In  In29  1  -0.00542172  0.50097328  0.83042078  1
  In  In30  1  0.18811737  0.16672558  0.32201892  1
  In  In31  1  0.33992765  -0.01878733  0.34007742  1
  In  In32  1  0.16121644  0.15958515  -0.01184540  1
  In  In33  1  0.33672440  0.35194648  0.66248106  1
  In  In34  1  0.83863797  0.34260424  0.81333170  1
  In  In35  1  0.83618164  -0.03489040  0.16009200  1
  In  In36  1  0.35624255  0.66495734  0.00893405  1
  In  In37  1  0.35886055  0.19374707  0.84929990  1
  In  In38  1  0.17351006  0.01921592  0.51881859  1
  In  In39  1  0.16166829  0.32482433  0.16002874  1
  In  In40  1  0.33932799  0.33227245  0.31925434  1
  In  In41  1  0.53649199  0.79855385  0.32115999  1
  In  In42  1  0.31994473  -0.01991893  -0.01004939  1
  In  In43  1  0.49897678  -0.00844511  0.53126289  1
  In  In44  1  0.67914028  0.00633547  0.33052327  1
  In  In45  1  0.17765842  0.65585901  0.81433251  1
  In  In46  1  0.80614203  0.53706439  0.66526824  1
  In  In47  1  0.64916844  0.35438143  0.32692432  1
  In  In48  1  0.00325057  -0.02998899  0.34729057  1
  In  In49  1  0.13565786  0.13638006  0.69476582  1
  In  In50  1  0.01036938  0.68661664  0.65355556  1
  In  In51  1  0.84972860  -0.01533303  0.51054296  1
  In  In52  1  -0.02349996  0.53015166  0.16016531  1
  In  In53  1  0.35120418  0.50406384  0.51593359  1
  In  In54  1  0.15890500  0.83404448  0.31306216  1
  In  In55  1  0.00531445  0.31794476  0.66313163  1
  In  In56  1  0.18411206  0.67668929  0.16346795  1
  In  In57  1  0.15626826  0.84518350  0.00442938  1
  In  In58  1  0.65789060  0.68678676  0.68018071  1
  In  In59  1  -0.00400269  0.33158322  -0.01519141  1
  In  In60  1  -0.02266687  0.16628420  0.50833434  1
  In  In61  1  0.20153292  0.51773764  0.68943705  1
  In  In62  1  0.81638990  0.16959678  0.01682536  1
  In  In63  1  0.66335792  0.52339276  0.15494160  1
  In  In64  1  0.84741073  -0.01876694  0.83391393  1
  In  In65  1  0.63966775  -0.02582006  0.69599058  1
  In  In66  1  0.64968604  0.36022943  0.01921555  1
  In  In67  1  0.16205461  0.50758197  0.35508828  1
  In  In68  1  0.67274016  0.33321575  0.67913067  1
  In  In69  1  0.49974333  -0.02099487  0.15075023  1
  In  In70  1  0.64984245  0.19110871  0.15488839  1
  In  In71  1  -0.01088769  -0.01066634  -0.00238635  1
  Te  Te72  1  0.09805814  0.06061591  0.08478772  1
  Te  Te73  1  0.08000657  0.08634932  0.41031189  1
  Te  Te74  1  0.06211939  0.03137980  0.76859138  1
  Te  Te75  1  0.07717940  0.42379849  0.07745807  1
  Te  Te76  1  0.08390520  0.39817038  0.41409207  1
  Te  Te77  1  0.09396427  0.41670148  0.75158134  1
  Te  Te78  1  0.07239544  0.74482166  0.08552368  1
  Te  Te79  1  0.07536323  0.73747901  0.41053306  1
  Te  Te80  1  0.07784067  0.76165714  0.76680209  1
  Te  Te81  1  0.41191591  0.07562618  0.07263422  1
  Te  Te82  1  0.41093719  0.09437406  0.41591177  1
  Te  Te83  1  0.43211294  0.07721589  0.78536762  1
  Te  Te84  1  0.41063027  0.40957775  0.05091413  1
  Te  Te85  1  0.42886472  0.42913865  0.39662277  1
  Te  Te86  1  0.42390759  0.41526595  0.76377929  1
  Te  Te87  1  0.42519101  0.76545786  0.09098387  1
  Te  Te88  1  0.44588260  0.73462809  0.41918138  1
  Te  Te89  1  0.46292007  0.77392067  0.73166170  1
  Te  Te90  1  0.73374487  0.07349357  0.10105053  1
  Te  Te91  1  0.75657289  0.08330708  0.43678763  1
  Te  Te92  1  0.74018424  0.07029054  0.76100740  1
  Te  Te93  1  0.74992893  0.41045681  0.11474285  1
  Te  Te94  1  0.73903290  0.43713251  0.41844651  1
  Te  Te95  1  0.73586525  0.44620588  0.76474584  1
  Te  Te96  1  0.74659205  0.73454091  0.13111851  1
  Te  Te97  1  0.73793053  0.74907780  0.40640110  1
  Te  Te98  1  0.75842198  0.76658415  0.75456825  1
  Te  Te99  1  0.07421192  0.23898938  0.24887365  1
  Te  Te100  1  0.09727659  0.23104089  0.57888805  1
  Te  Te101  1  0.07048502  0.23692707  0.89284133  1
  Te  Te102  1  0.08254167  0.59313628  0.25491602  1
  Te  Te103  1  0.09503310  0.57950765  0.58541055  1
  Te  Te104  1  0.08740828  0.58184039  0.92181105  1
  Te  Te105  1  0.05839848  0.90144009  0.22996596  1
  Te  Te106  1  0.07761691  0.91098183  0.57349421  1
  Te  Te107  1  0.08920442  0.93175783  0.90171034  1
  Te  Te108  1  0.42596027  0.25851647  0.21897398  1
  Te  Te109  1  0.41784200  0.25053488  0.57246455  1
  Te  Te110  1  0.41543381  0.27716083  0.95712571  1
  Te  Te111  1  0.43996887  0.61270391  0.22766494  1
  Te  Te112  1  0.44075357  0.59575935  0.58609050  1
  Te  Te113  1  0.42781542  0.60934540  0.89230370  1
  Te  Te114  1  0.42946951  0.89347582  0.25575997  1
  Te  Te115  1  0.40188918  0.91708186  0.61093484  1
  Te  Te116  1  0.43074267  0.89473530  0.92634692  1
  Te  Te117  1  0.74631449  0.26253604  0.24946308  1
  Te  Te118  1  0.76523348  0.24141248  0.61048383  1
  Te  Te119  1  0.74897872  0.26205191  0.91586932  1
  Te  Te120  1  0.73953140  0.61482351  0.25302209  1
  Te  Te121  1  0.70181757  0.58774715  0.56142192  1
  Te  Te122  1  0.73877675  0.57355973  0.98034293  1
  Te  Te123  1  0.73650921  0.89933596  0.24894289  1
  Te  Te124  1  0.73754994  0.91626456  0.59004001  1
  Te  Te125  1  0.75082670  0.90599709  0.91815116  1
  Te  Te126  1  0.25390286  0.25523062  0.06318075  1
  Te  Te127  1  0.25314870  0.26065806  0.42192984  1
  Te  Te128  1  0.25155784  0.24552758  0.73530940  1
  Te  Te129  1  0.24915754  0.56693105  0.07753096  1
  Te  Te130  1  0.28016790  0.58881094  0.40598320  1
  Te  Te131  1  0.30437484  0.59728295  0.76230071  1
  Te  Te132  1  0.26172010  0.89516987  0.09550735  1
  Te  Te133  1  0.24339265  0.90894976  0.43491985  1
  Te  Te134  1  0.25481532  0.90556954  0.77059492  1
  Te  Te135  1  0.56301132  0.23967480  0.04435186  1
  Te  Te136  1  0.61161465  0.24242529  0.42856312  1
  Te  Te137  1  0.56593911  0.26556166  0.76556675  1
  Te  Te138  1  0.59552876  0.60516249  0.04950254  1
  Te  Te139  1  0.62107144  0.59608020  0.42523430  1
  Te  Te140  1  0.58764979  0.60491741  0.78455236  1
  Te  Te141  1  0.60462141  0.89963127  0.07793898  1
  Te  Te142  1  0.57242228  0.92760883  0.41473356  1
  Te  Te143  1  0.54873578  0.89112275  0.77755720  1
  Te  Te144  1  0.90600303  0.26845670  0.09186692  1
  Te  Te145  1  0.91122921  0.26728720  0.41414580  1
  Te  Te146  1  0.91959023  0.23675500  0.75074728  1
  Te  Te147  1  0.86752551  0.58672057  0.07006324  1
  Te  Te148  1  0.92021741  0.58748334  0.41834144  1
  Te  Te149  1  0.91917670  0.60179330  0.74648224  1
  Te  Te150  1  0.89768184  0.88313344  0.05203394  1
  Te  Te151  1  0.88702154  0.88699265  0.39793209  1
  Te  Te152  1  0.93897674  0.94514777  0.72257209  1
  Te  Te153  1  0.24420051  0.05025936  0.24246105  1
  Te  Te154  1  0.26211504  0.06344342  0.63427704  1
  Te  Te155  1  0.25678936  0.08697908  0.89679379  1
  Te  Te156  1  0.24670253  0.42518448  0.24014652  1
  Te  Te157  1  0.23571747  0.42244352  0.57287121  1
  Te  Te158  1  0.29534624  0.42978090  0.87253139  1
  Te  Te159  1  0.26530532  0.74674436  0.26373201  1
  Te  Te160  1  0.26903001  0.73722767  0.60005932  1
  Te  Te161  1  0.24400452  0.74272029  0.92824033  1
  Te  Te162  1  0.56798531  0.08703500  0.24822503  1
  Te  Te163  1  0.59568620  0.08975033  0.59138041  1
  Te  Te164  1  0.54773429  0.08017544  0.90238105  1
  Te  Te165  1  0.56357320  0.42578480  0.22676089  1
  Te  Te166  1  0.58521021  0.42130735  0.58938596  1
  Te  Te167  1  0.59502218  0.42465545  0.89899238  1
  Te  Te168  1  0.61706661  0.72432996  0.21844510  1
  Te  Te169  1  0.55278437  0.76239484  0.60072507  1
  Te  Te170  1  0.63094280  0.74271350  0.89090078  1
  Te  Te171  1  0.91585725  0.07413327  0.24620455  1
  Te  Te172  1  0.92427935  0.07002815  0.60962098  1
  Te  Te173  1  0.90838443  0.09527470  0.92319126  1
  Te  Te174  1  0.93329482  0.42277527  0.25128477  1
  Te  Te175  1  0.90260943  0.42690292  0.60473991  1
  Te  Te176  1  0.89749660  0.43121667  0.92449274  1
  Te  Te177  1  0.88494327  0.76399552  0.18333315  1
  Te  Te178  1  0.88807846  0.76317179  0.60352950  1
  Te  Te179  1  0.90670911  0.75606542  0.89684950  1
