# generated using pymatgen
data_In2Te3
_symmetry_space_group_name_H-M   'P 1'
_cell_length_a   18.89112046
_cell_length_b   18.88973075
_cell_length_c   18.91717499
_cell_angle_alpha   90.09159792
_cell_angle_beta   89.95199983
_cell_angle_gamma   90.09317535
_symmetry_Int_Tables_number   1
_chemical_formula_structural   In2Te3
_chemical_formula_sum   'In72 Te108'
_cell_volume   6750.53954104
_cell_formula_units_Z   36
loop_
 _symmetry_equiv_pos_site_id
 _symmetry_equiv_pos_as_xyz
  1  'x, y, z'
loop_
 _atom_site_type_symbol
 _atom_site_label
 _atom_site_symmetry_multiplicity
 _atom_site_fract_x
 _atom_site_fract_y
 _atom_site_fract_z
 _atom_site_occupancy
  In  In0  1  0.33299786  0.17507277  0.17135920  1
  In  In1  1  0.84767383  0.01279021  0.17823341  1
  In  In2  1  0.33661574  -0.02026402  0.67786867  1
  In  In3  1  0.17924833  0.82377207  0.67196466  1
  In  In4  1  0.82301486  -0.03219841  0.85577302  1
  In  In5  1  0.83990884  0.81258297  0.34343105  1
  In  In6  1  0.47198673  0.36624764  0.83247030  1
  In  In7  1  0.33701179  -0.03592653  0.02361535  1
  In  In8  1  0.51607523  0.17581826  -0.02016892  1
  In  In9  1  0.50486476  0.49898393  0.34145860  1
  In  In10  1  0.02286950  0.16186788  0.84175365  1
  In  In11  1  0.66044843  0.53306429  0.83916006  1
  In  In12  1  0.48582031  0.21028895  0.63707111  1
  In  In13  1  0.67258435  -0.02525553  0.66332769  1
  In  In14  1  0.63500111  0.15484255  0.83350914  1
  In  In15  1  0.18012721  0.68101441  0.85659954  1
  In  In16  1  0.33574475  0.50460577  0.80933335  1
  In  In17  1  0.17009301  0.17529290  0.33793879  1
  In  In18  1  0.01506908  -0.02671301  0.01322616  1
  In  In19  1  0.64978326  0.18300602  0.47889084  1
  In  In20  1  -0.00261777  0.66203788  0.65471786  1
  In  In21  1  0.17073316  -0.01095842  0.16196309  1
  In  In22  1  0.32966261  0.68321629  0.32024356  1
  In  In23  1  0.16300562  0.16540487  0.66164786  1
  In  In24  1  0.87597328  0.56274856  0.01796620  1
  In  In25  1  0.50856665  0.83230809  0.32030330  1
  In  In26  1  0.48889688  0.81453284  0.67488180  1
  In  In27  1  0.83910799  0.18083250  0.32593008  1
  In  In28  1  0.00277028  0.50496283  0.80539428  1
  In  In29  1  0.16784987  0.82610843  0.32325594  1
  In  In30  1  0.48369136  0.64615001  0.51196398  1
  In  In31  1  0.02445636  0.32892714  0.63800687  1
  In  In32  1  -0.00716015  0.37358484  0.02062958  1
  In  In33  1  0.14966252  0.51879307  0.01337451  1
  In  In34  1  0.00406149  0.50264528  0.49711910  1
  In  In35  1  0.84036547  0.15794245  0.02146253  1
  In  In36  1  0.01270688  0.33085861  0.34115019  1
  In  In37  1  0.65314008  -0.00405344  0.33615390  1
  In  In38  1  0.69188712  0.39443500  0.32307559  1
  In  In39  1  -0.01338642  0.81018730  0.17018433  1
  In  In40  1  0.16243588  0.31812803  0.82349830  1
  In  In41  1  0.31965457  0.32957847  -0.00208829  1
  In  In42  1  0.51444716  0.67208569  0.15163934  1
  In  In43  1  0.83748650  0.52293158  0.65768469  1
  In  In44  1  0.51438803  0.01550125  0.49041498  1
  In  In45  1  0.83168471  0.31277028  0.81236988  1
  In  In46  1  0.45702981  0.36075869  0.51186498  1
  In  In47  1  0.18809225  0.15298346  0.01171846  1
  In  In48  1  0.17057569  0.69039407  0.50264412  1
  In  In49  1  0.01136894  0.83647542  0.48147435  1
  In  In50  1  0.49184893  0.00248855  0.18648352  1
  In  In51  1  0.65074047  0.36576493  0.64616467  1
  In  In52  1  0.84182674  0.64679586  0.49046095  1
  In  In53  1  0.68692239  0.79917058  0.82688051  1
  In  In54  1  0.49192670  0.32979137  0.17791495  1
  In  In55  1  0.68635787  0.34014631  0.02332042  1
  In  In56  1  0.48914339  0.67249663  0.81456564  1
  In  In57  1  0.48200353  0.18212999  0.36008372  1
  In  In58  1  0.82371611  0.14261249  0.64083574  1
  In  In59  1  -0.04171217  0.80167349  0.86298771  1
  In  In60  1  0.48466134  0.00449287  0.84962859  1
  In  In61  1  0.69206292  0.81339164  0.14497895  1
  In  In62  1  0.30531787  0.50711693  0.16112531  1
  In  In63  1  0.17169368  0.00294415  0.47318701  1
  In  In64  1  0.84382091  0.36424461  0.18633938  1
  In  In65  1  0.81939803  0.34447985  0.45745251  1
  In  In66  1  -0.01127164  -0.01378646  0.69194252  1
  In  In67  1  0.84755610  -0.00701077  0.51969588  1
  In  In68  1  0.14861067  0.52252374  0.30637813  1
  In  In69  1  0.51083843  0.52255712  -0.00494493  1
  In  In70  1  0.50286128  0.82704545  0.00823429  1
  In  In71  1  0.29902948  0.14603327  0.81647935  1
  Te  Te72  1  0.07651106  0.08784338  0.09095982  1
  Te  Te73  1  0.07345964  0.08240666  0.40230144  1
  Te  Te74  1  0.10231877  0.06287147  0.76098169  1
  Te  Te75  1  0.08050083  0.43927712  0.11906452  1
  Te  Te76  1  0.10683326  0.42272238  0.41955557  1
  Te  Te77  1  0.10480205  0.42216819  0.72742434  1
  Te  Te78  1  0.04998814  0.70654345  0.08058938  1
  Te  Te79  1  0.06863287  0.72932678  0.39223998  1
  Te  Te80  1  0.07044366  0.75229748  0.75373761  1
  Te  Te81  1  0.41466134  0.09433136  0.07084398  1
  Te  Te82  1  0.40638601  0.06485876  0.40583429  1
  Te  Te83  1  0.42927271  0.09601677  0.74207658  1
  Te  Te84  1  0.42263519  0.41434858  0.06987524  1
  Te  Te85  1  0.38412266  0.44214043  0.40813414  1
  Te  Te86  1  0.42329805  0.43317413  0.70729518  1
  Te  Te87  1  0.41069548  0.76386093  0.10373674  1
  Te  Te88  1  0.42002789  0.75447163  0.41756490  1
  Te  Te89  1  0.37846071  0.73548997  0.73601349  1
  Te  Te90  1  0.74414027  0.07982801  0.09764592  1
  Te  Te91  1  0.75143194  0.08278809  0.42412803  1
  Te  Te92  1  0.75631513  0.07764341  0.75900074  1
  Te  Te93  1  0.78392207  0.44511133  0.07174708  1
  Te  Te94  1  0.73992063  0.46974688  0.44694725  1
  Te  Te95  1  0.75070016  0.42768025  0.75253702  1
  Te  Te96  1  0.78812772  0.70895748  0.09401139  1
  Te  Te97  1  0.74414658  0.72701097  0.41494157  1
  Te  Te98  1  0.75427383  0.70808892  0.73396542  1
  Te  Te99  1  0.08518738  0.24974459  0.24248992  1
  Te  Te100  1  0.12638001  0.26163697  0.55263350  1
  Te  Te101  1  0.08387450  0.25919578  0.94139942  1
  Te  Te102  1  0.10668435  0.63039743  0.20845502  1
  Te  Te103  1  0.10285915  0.57891156  0.58535417  1
  Te  Te104  1  0.06399723  0.59381584  0.91311736  1
  Te  Te105  1  0.06991336  0.91428048  0.24746175  1
  Te  Te106  1  0.08427151  0.91445168  0.58950202  1
  Te  Te107  1  0.06659058  0.89230701  0.90357480  1
  Te  Te108  1  0.39113234  0.27050928  0.27408978  1
  Te  Te109  1  0.37885920  0.22879843  0.53383336  1
  Te  Te110  1  0.39832938  0.23990914  0.90148957  1
  Te  Te111  1  0.41618368  0.58194748  0.23693445  1
  Te  Te112  1  0.38635301  0.56787603  0.59978949  1
  Te  Te113  1  0.40419771  0.59281238  0.91588886  1
  Te  Te114  1  0.40211016  0.90497112  0.24768769  1
  Te  Te115  1  0.43242340  0.91749914  0.57965429  1
  Te  Te116  1  0.40567276  0.89045339  0.90796093  1
  Te  Te117  1  0.74378054  0.26717018  0.25072012  1
  Te  Te118  1  0.74655607  0.25811062  0.58073217  1
  Te  Te119  1  0.74877458  0.24017561  0.91764625  1
  Te  Te120  1  0.78022650  0.51302450  0.28967176  1
  Te  Te121  1  0.73621351  0.61977770  0.60481088  1
  Te  Te122  1  0.76199786  0.60130509  0.92239393  1
  Te  Te123  1  0.74989432  0.91236917  0.25504979  1
  Te  Te124  1  0.75805953  0.89243200  0.57858246  1
  Te  Te125  1  0.74479508  0.87785948  0.93973014  1
  Te  Te126  1  0.23135289  0.26718068  0.10359235  1
  Te  Te127  1  0.25106901  0.24014560  0.44355833  1
  Te  Te128  1  0.26680480  0.26400923  0.72764255  1
  Te  Te129  1  0.26811145  0.59811260  0.05177213  1
  Te  Te130  1  0.24131586  0.59569682  0.40643574  1
  Te  Te131  1  0.23358437  0.59272095  0.75143034  1
  Te  Te132  1  0.21664511  0.88210765  0.06414427  1
  Te  Te133  1  0.24884818  0.88636089  0.42995221  1
  Te  Te134  1  0.25227205  0.90610992  0.77085636  1
  Te  Te135  1  0.58942669  0.24553836  0.09368552  1
  Te  Te136  1  0.57816050  0.29128766  0.40714360  1
  Te  Te137  1  0.58058643  0.27074479  0.74666301  1
  Te  Te138  1  0.61019529  0.58228290  0.08362750  1
  Te  Te139  1  0.57975831  0.60851068  0.40441608  1
  Te  Te140  1  0.56148654  0.56787284  0.73901942  1
  Te  Te141  1  0.58399593  0.91496473  0.10350949  1
  Te  Te142  1  0.59421456  0.89852892  0.43436715  1
  Te  Te143  1  0.58265916  0.91228203  0.76806246  1
  Te  Te144  1  0.91988328  0.26279702  0.09667618  1
  Te  Te145  1  0.92758327  0.24272303  0.43392239  1
  Te  Te146  1  0.94239587  0.23904139  0.73768165  1
  Te  Te147  1  0.97273046  0.57810542  0.13088482  1
  Te  Te148  1  0.94779591  0.59647524  0.39813804  1
  Te  Te149  1  0.89773261  0.61214838  0.76523389  1
  Te  Te150  1  0.90212231  0.90542008  0.08439209  1
  Te  Te151  1  0.92131932  0.92940760  0.40287084  1
  Te  Te152  1  0.89129957  0.88509781  0.74836828  1
  Te  Te153  1  0.25857421  0.07199615  0.25248466  1
  Te  Te154  1  0.25191070  0.06747291  0.58671560  1
  Te  Te155  1  0.25171741  0.05008248  0.92345646  1
  Te  Te156  1  0.24194136  0.41763706  0.25748989  1
  Te  Te157  1  0.32925745  0.43299753  0.56628854  1
  Te  Te158  1  0.23863928  0.42208027  0.90941189  1
  Te  Te159  1  0.22919445  0.73449558  0.22085674  1
  Te  Te160  1  0.27661094  0.74272217  0.59375516  1
  Te  Te161  1  0.23943006  0.76946473  0.95720768  1
  Te  Te162  1  0.57594799  0.10291311  0.26296142  1
  Te  Te163  1  0.59675081  0.09450589  0.59742634  1
  Te  Te164  1  0.59757385  0.05195466  0.94044595  1
  Te  Te165  1  0.58349559  0.44059692  0.22213248  1
  Te  Te166  1  0.57941966  0.44248308  0.54524736  1
  Te  Te167  1  0.59473550  0.40641964  0.92036341  1
  Te  Te168  1  0.60944453  0.74090289  0.25000297  1
  Te  Te169  1  0.57676486  0.72510910  0.59918876  1
  Te  Te170  1  0.58204905  0.73254220  0.92110065  1
  Te  Te171  1  0.93809387  0.10067959  0.25382077  1
  Te  Te172  1  0.95195350  0.08831539  0.58377012  1
  Te  Te173  1  0.92123144  0.07616345  0.91535340  1
  Te  Te174  1  0.92003461  0.44240075  0.29098020  1
  Te  Te175  1  0.90763712  0.41004077  0.58303105  1
  Te  Te176  1  0.91807993  0.41152367  0.89266808  1
  Te  Te177  1  0.87897546  0.72188504  0.23064043  1
  Te  Te178  1  0.91761548  0.75721453  0.56982987  1
  Te  Te179  1  0.87006263  0.72871348  0.96052702  1
