# generated using pymatgen
data_In2Te3
_symmetry_space_group_name_H-M   'P 1'
_cell_length_a   18.98185472
_cell_length_b   18.95558861
_cell_length_c   18.96906039
_cell_angle_alpha   89.97896446
_cell_angle_beta   90.01815861
_cell_angle_gamma   90.19024728
_symmetry_Int_Tables_number   1
_chemical_formula_structural   In2Te3
_chemical_formula_sum   'In72 Te108'
_cell_volume   6825.26147814
_cell_formula_units_Z   36
loop_
 _symmetry_equiv_pos_site_id
 _symmetry_equiv_pos_as_xyz
  1  'x, y, z'
loop_
 _atom_site_type_symbol
 _atom_site_label
 _atom_site_symmetry_multiplicity
 _atom_site_fract_x
 _atom_site_fract_y
 _atom_site_fract_z
 _atom_site_occupancy
  In  In0  1  0.35152167  -0.00253356  0.65852291  1
  In  In1  1  0.00689000  0.33741145  0.68113569  1
  In  In2  1  0.31455956  0.18610473  0.84882213  1
  In  In3  1  0.83392006  0.80944982  0.66695749  1
  In  In4  1  0.33670268  0.33071998  0.31435957  1
  In  In5  1  0.30008835  0.66168881  0.65430466  1
  In  In6  1  0.35387071  0.33202489  0.01082713  1
  In  In7  1  0.64401440  0.63818643  0.03752503  1
  In  In8  1  0.51673207  0.03464054  0.15775370  1
  In  In9  1  -0.01591927  0.67701146  -0.00860121  1
  In  In10  1  0.32571498  0.52088687  0.47001179  1
  In  In11  1  0.34194758  0.82826514  0.17392503  1
  In  In12  1  0.51771501  0.34240605  0.83126999  1
  In  In13  1  0.63723878  0.34194796  0.02710443  1
  In  In14  1  0.82223112  0.66243125  0.50731621  1
  In  In15  1  0.83445271  0.34493671  0.82961361  1
  In  In16  1  0.17101093  0.68427339  0.20527085  1
  In  In17  1  0.81816198  0.47327523  0.01297806  1
  In  In18  1  0.50945262  0.83275650  0.34122821  1
  In  In19  1  0.49340205  0.18277771  0.31544863  1
  In  In20  1  0.82393323  -0.02528363  0.14990007  1
  In  In21  1  0.00851098  0.49036017  0.16860646  1
  In  In22  1  0.16936322  0.83103379  0.64164183  1
  In  In23  1  0.69253392  -0.01963577  -0.02769041  1
  In  In24  1  -0.01230224  0.84832970  0.17910886  1
  In  In25  1  0.32571098  0.15958446  0.50898415  1
  In  In26  1  0.49246538  0.02169314  0.83680753  1
  In  In27  1  0.18879861  0.49482797  -0.00476969  1
  In  In28  1  0.84669455  0.33299108  0.47010807  1
  In  In29  1  0.34978481  0.65224781  -0.01364780  1
  In  In30  1  0.01144663  0.17169318  0.16278666  1
  In  In31  1  0.50613115  0.49148262  0.67470517  1
  In  In32  1  -0.00447282  -0.00109574  0.01557897  1
  In  In33  1  0.17371385  0.68841564  0.84641352  1
  In  In34  1  0.66568216  0.18078892  0.83781150  1
  In  In35  1  0.66243232  0.35230101  0.32381825  1
  In  In36  1  0.17061115  0.00708271  0.83682488  1
  In  In37  1  0.15224367  0.02134949  0.18302316  1
  In  In38  1  0.01355212  0.29716382  -0.03689826  1
  In  In39  1  0.32914923  0.30578017  0.67405274  1
  In  In40  1  0.20131258  -0.01901038  0.47972883  1
  In  In41  1  0.84193597  -0.00292375  0.51744681  1
  In  In42  1  0.18330036  0.32212671  0.15785446  1
  In  In43  1  0.66776956  0.64551189  0.32750031  1
  In  In44  1  -0.02350286  0.64625478  0.66488082  1
  In  In45  1  0.14657418  0.35821075  0.51231039  1
  In  In46  1  0.17089486  0.48306598  0.68833661  1
  In  In47  1  0.49326522  0.50706543  0.32621105  1
  In  In48  1  0.65338703  0.15179671  0.48993537  1
  In  In49  1  0.84468524  0.15933783  -0.00381976  1
  In  In50  1  0.82035679  0.19848067  0.34587353  1
  In  In51  1  0.66113673  -0.00437163  0.68011290  1
  In  In52  1  -0.00797979  0.50134791  0.50721284  1
  In  In53  1  0.51591897  0.67858523  0.50246042  1
  In  In54  1  0.83002296  0.81602240  0.31822356  1
  In  In55  1  0.13492245  0.69423619  0.46291924  1
  In  In56  1  0.34435269  0.50487901  0.16915723  1
  In  In57  1  0.83579377  0.14572138  0.66458149  1
  In  In58  1  0.49537963  0.83869427  0.65232977  1
  In  In59  1  0.36533354  0.84973469  0.84232465  1
  In  In60  1  0.49001310  0.83275356  0.00570448  1
  In  In61  1  0.83482080  0.49701847  0.31709460  1
  In  In62  1  0.82411133  0.51914224  0.68280796  1
  In  In63  1  -0.00307002  0.00466590  0.33732581  1
  In  In64  1  -0.03158047  0.82070434  0.82164343  1
  In  In65  1  0.67207493  0.34059409  0.65192984  1
  In  In66  1  0.66388145  0.81240549  0.17232035  1
  In  In67  1  0.03602235  0.00127779  0.66752696  1
  In  In68  1  0.50992462  0.65398576  0.83350379  1
  In  In69  1  0.49509782  0.00179987  0.47558544  1
  In  In70  1  0.17839657  0.16559167  0.32375188  1
  In  In71  1  0.15574018  0.85768337  0.02634654  1
  Te  Te72  1  0.09889343  0.09890383  0.06307864  1
  Te  Te73  1  0.09953676  0.07893364  0.41931143  1
  Te  Te74  1  0.07041100  0.09726806  0.77667988  1
  Te  Te75  1  0.09095193  0.39730897  0.06403008  1
  Te  Te76  1  0.06327281  0.41941607  0.40955368  1
  Te  Te77  1  0.06010560  0.43943160  0.77223607  1
  Te  Te78  1  0.08016986  0.74480203  0.09293283  1
  Te  Te79  1  0.06723712  0.78029478  0.36675712  1
  Te  Te80  1  0.08324324  0.74828371  0.73812956  1
  Te  Te81  1  0.43513359  0.14369034  0.10062513  1
  Te  Te82  1  0.40029436  0.08951503  0.39805627  1
  Te  Te83  1  0.40452292  0.10568345  0.74845141  1
  Te  Te84  1  0.43482562  0.44847691  0.06479860  1
  Te  Te85  1  0.41576052  0.41086644  0.41657998  1
  Te  Te86  1  0.40536832  0.40987517  0.75528362  1
  Te  Te87  1  0.42503167  0.72790170  0.09378704  1
  Te  Te88  1  0.42133173  0.73072928  0.40346192  1
  Te  Te89  1  0.40344691  0.74442043  0.73996056  1
  Te  Te90  1  0.74482186  0.08224405  0.07937027  1
  Te  Te91  1  0.76063112  0.07715728  0.41505091  1
  Te  Te92  1  0.75272447  0.07605556  0.77089774  1
  Te  Te93  1  0.74134926  0.39916447  0.11560159  1
  Te  Te94  1  0.74452855  0.43194655  0.42502362  1
  Te  Te95  1  0.73006807  0.42772464  0.76100652  1
  Te  Te96  1  0.74951376  0.72663343  0.09187189  1
  Te  Te97  1  0.73671415  0.74799984  0.41656061  1
  Te  Te98  1  0.75302944  0.76908585  0.78196100  1
  Te  Te99  1  0.08406075  0.26357944  0.25743850  1
  Te  Te100  1  0.08982865  0.25323850  0.59588654  1
  Te  Te101  1  0.11576152  0.23387106  0.88007270  1
  Te  Te102  1  0.07637322  0.58601880  0.25877340  1
  Te  Te103  1  0.09323964  0.57897580  0.59306956  1
  Te  Te104  1  0.08936938  0.59121885  0.92469000  1
  Te  Te105  1  0.10222769  0.90151250  0.27402729  1
  Te  Te106  1  0.08226575  0.91298799  0.55213244  1
  Te  Te107  1  0.07558737  0.89819787  0.90563519  1
  Te  Te108  1  0.45090208  0.29610782  0.22375125  1
  Te  Te109  1  0.42085573  0.24494109  0.57895503  1
  Te  Te110  1  0.43812888  0.24616854  0.91656130  1
  Te  Te111  1  0.39047522  0.59812821  0.27398283  1
  Te  Te112  1  0.41085642  0.58462895  0.58533852  1
  Te  Te113  1  0.42670372  0.55792889  0.90744246  1
  Te  Te114  1  0.44384580  0.92128749  0.23589359  1
  Te  Te115  1  0.40315952  0.90493010  0.55213585  1
  Te  Te116  1  0.41244024  0.94922728  0.94692060  1
  Te  Te117  1  0.73742769  0.25546394  0.24113221  1
  Te  Te118  1  0.75854155  0.23866314  0.57243125  1
  Te  Te119  1  0.74770855  0.26788239  0.93106118  1
  Te  Te120  1  0.75864585  0.58729395  0.22885603  1
  Te  Te121  1  0.73056312  0.60202956  0.60508391  1
  Te  Te122  1  0.71904368  0.55482173  0.93897754  1
  Te  Te123  1  0.73494023  0.91759296  0.25682291  1
  Te  Te124  1  0.74302067  0.90773110  0.58896017  1
  Te  Te125  1  0.75546933  0.88787555  0.88092174  1
  Te  Te126  1  0.28420903  0.23206121  0.09995275  1
  Te  Te127  1  0.24624203  0.26456316  0.42262407  1
  Te  Te128  1  0.21500685  0.25861350  0.76111374  1
  Te  Te129  1  0.24165070  0.60224814  0.08991334  1
  Te  Te130  1  0.20779700  0.57991138  0.40701947  1
  Te  Te131  1  0.25398988  0.58197890  0.77432205  1
  Te  Te132  1  0.25632227  0.93358858  0.10575673  1
  Te  Te133  1  0.24778925  0.90875404  0.36261191  1
  Te  Te134  1  0.25433146  0.90482602  0.74481728  1
  Te  Te135  1  0.54691536  0.25188866  0.10598916  1
  Te  Te136  1  0.58048271  0.25981914  0.41712154  1
  Te  Te137  1  0.58256026  0.24520851  0.73118579  1
  Te  Te138  1  0.55743933  0.53733194  0.10498027  1
  Te  Te139  1  0.58812177  0.56702218  0.43021430  1
  Te  Te140  1  0.59794970  0.59055183  0.73508697  1
  Te  Te141  1  0.59401207  0.91575877  0.08049805  1
  Te  Te142  1  0.59671889  0.90731946  0.43280666  1
  Te  Te143  1  0.56819531  0.91162325  0.76681428  1
  Te  Te144  1  0.92094484  0.25929934  0.08047492  1
  Te  Te145  1  0.94089716  0.23432666  0.41909051  1
  Te  Te146  1  0.91305664  0.24044710  0.75585563  1
  Te  Te147  1  0.91753614  0.57233885  0.07782185  1
  Te  Te148  1  0.91472970  0.59074057  0.41372648  1
  Te  Te149  1  0.90729860  0.59068532  0.78147377  1
  Te  Te150  1  0.90352238  0.88571240  0.05801253  1
  Te  Te151  1  0.90875297  0.90904879  0.41334842  1
  Te  Te152  1  0.91862583  0.92586652  0.72655178  1
  Te  Te153  1  0.26950059  0.09261647  0.23686868  1
  Te  Te154  1  0.23696560  0.07536036  0.59924845  1
  Te  Te155  1  0.26230528  0.07350051  0.92818788  1
  Te  Te156  1  0.24037623  0.42825818  0.24991650  1
  Te  Te157  1  0.26763502  0.42442191  0.58508928  1
  Te  Te158  1  0.25916790  0.39505188  0.91704458  1
  Te  Te159  1  0.26206938  0.77018180  0.28777564  1
  Te  Te160  1  0.25462087  0.75440058  0.54430769  1
  Te  Te161  1  0.26206579  0.77787879  0.93499700  1
  Te  Te162  1  0.59244743  0.08501157  0.27197350  1
  Te  Te163  1  0.56887815  0.07537960  0.58999554  1
  Te  Te164  1  0.59015742  0.08830684  0.93116831  1
  Te  Te165  1  0.59467454  0.45153406  0.22979924  1
  Te  Te166  1  0.57833531  0.41693196  0.57133907  1
  Te  Te167  1  0.59664120  0.43427441  0.91776251  1
  Te  Te168  1  0.56718790  0.72539052  0.24773661  1
  Te  Te169  1  0.59962897  0.75308378  0.59748888  1
  Te  Te170  1  0.58296736  0.74164070  0.93176847  1
  Te  Te171  1  0.91790259  0.07129258  0.22735110  1
  Te  Te172  1  0.94504376  0.09005082  0.57718353  1
  Te  Te173  1  0.92270850  0.07059597  0.91175314  1
  Te  Te174  1  0.92903791  0.40282448  0.25644505  1
  Te  Te175  1  0.89518870  0.41482462  0.59591069  1
  Te  Te176  1  0.93041610  0.41646840  0.92046893  1
  Te  Te177  1  0.91932625  0.73359501  0.23777980  1
  Te  Te178  1  0.93190454  0.75093469  0.56645793  1
  Te  Te179  1  0.88007151  0.72637818  0.89625796  1
