# generated using pymatgen
data_In2Te3
_symmetry_space_group_name_H-M   'P 1'
_cell_length_a   19.01635001
_cell_length_b   19.01441679
_cell_length_c   19.01864807
_cell_angle_alpha   90.01226081
_cell_angle_beta   89.85137137
_cell_angle_gamma   90.13219632
_symmetry_Int_Tables_number   1
_chemical_formula_structural   In2Te3
_chemical_formula_sum   'In72 Te108'
_cell_volume   6876.81256301
_cell_formula_units_Z   36
loop_
 _symmetry_equiv_pos_site_id
 _symmetry_equiv_pos_as_xyz
  1  'x, y, z'
loop_
 _atom_site_type_symbol
 _atom_site_label
 _atom_site_symmetry_multiplicity
 _atom_site_fract_x
 _atom_site_fract_y
 _atom_site_fract_z
 _atom_site_occupancy
  In  In0  1  0.80759368  0.47452757  0.01892429  1
  In  In1  1  0.16734891  0.32728777  0.84945480  1
  In  In2  1  0.00849827  0.16357849  0.48946628  1
  In  In3  1  0.48169587  0.49186818  0.02653969  1
  In  In4  1  0.64520388  0.50506813  0.81960093  1
  In  In5  1  -0.01282161  0.17681565  0.15531310  1
  In  In6  1  0.82638768  0.79078867  0.33645401  1
  In  In7  1  0.79557952  0.32537293  0.17293287  1
  In  In8  1  0.34515267  0.65850610  0.33407046  1
  In  In9  1  0.82737181  0.68743374  0.83798122  1
  In  In10  1  0.16462433  0.85118854  0.00098899  1
  In  In11  1  0.50690630  0.28241145  0.88982146  1
  In  In12  1  0.50200175  0.33463880  0.47402473  1
  In  In13  1  0.69899048  0.82886185  0.50946531  1
  In  In14  1  0.00361773  0.00049581  0.68107892  1
  In  In15  1  0.00621924  0.68343480  -0.01919531  1
  In  In16  1  0.85322308  0.85098127  0.66526560  1
  In  In17  1  0.34761012  0.48152500  0.49266209  1
  In  In18  1  0.15374612  0.66529099  0.48462927  1
  In  In19  1  0.58521856  0.17794379  0.15666086  1
  In  In20  1  0.64750230  0.64754543  0.00672691  1
  In  In21  1  0.33852694  0.48848453  0.17723829  1
  In  In22  1  0.82827930  0.63665987  0.48023459  1
  In  In23  1  0.18187574  0.01235763  0.51019210  1
  In  In24  1  0.77873543  0.15465305  -0.01230355  1
  In  In25  1  0.52966672  0.86915677  -0.01526469  1
  In  In26  1  -0.01786053  0.47461645  0.83929118  1
  In  In27  1  0.35613410  0.00927095  0.32208580  1
  In  In28  1  0.69053382  0.68430219  0.67108681  1
  In  In29  1  -0.00950105  0.17910427  0.84474955  1
  In  In30  1  0.48983001  0.70866567  0.84190161  1
  In  In31  1  0.79204902  0.16264032  0.70004648  1
  In  In32  1  0.84839254  -0.00524093  0.51142305  1
  In  In33  1  0.00478230  0.67749844  0.34341370  1
  In  In34  1  0.16473137  0.82031373  0.67219341  1
  In  In35  1  0.32261705  0.86818787  0.83282622  1
  In  In36  1  0.50042415  0.85424561  0.70662671  1
  In  In37  1  0.19394902  0.15911833  -0.00285227  1
  In  In38  1  0.00903592  -0.00328107  -0.00715091  1
  In  In39  1  0.81115442  0.31813082  0.83651144  1
  In  In40  1  0.34788777  0.85047673  0.50964169  1
  In  In41  1  0.83193462  0.17826148  0.31654487  1
  In  In42  1  0.00356647  0.80262135  0.49839841  1
  In  In43  1  0.34017721  0.82608789  0.12674518  1
  In  In44  1  0.17702640  0.47155357  -0.00133367  1
  In  In45  1  0.00644432  0.51865665  0.15768184  1
  In  In46  1  0.18071570  0.31727109  0.47736882  1
  In  In47  1  0.67779469  0.00457377  0.31550709  1
  In  In48  1  -0.01060810  0.34348684  0.32849323  1
  In  In49  1  0.17018101  -0.03035449  0.18023283  1
  In  In50  1  0.80856374  0.87177135  -0.00185206  1
  In  In51  1  0.18091493  0.67783552  0.17226995  1
  In  In52  1  0.34792421  0.68581085  0.00373913  1
  In  In53  1  0.00270810  0.50328993  0.50797356  1
  In  In54  1  0.80331065  0.62738279  0.17541221  1
  In  In55  1  0.66164325  0.18044915  0.50868516  1
  In  In56  1  0.51448340  0.66116577  0.51030767  1
  In  In57  1  0.33439607  0.20224248  0.50257579  1
  In  In58  1  0.34686281  0.35101722  0.65820730  1
  In  In59  1  0.66693806  0.83899739  0.15480533  1
  In  In60  1  0.18601877  0.15905223  0.34376520  1
  In  In61  1  0.51659547  0.83579497  0.30431270  1
  In  In62  1  0.31525909  0.49303391  0.83737928  1
  In  In63  1  0.84237346  0.50996644  0.66982780  1
  In  In64  1  0.51514972  0.00414842  0.50561937  1
  In  In65  1  0.50725267  0.49946862  0.64014973  1
  In  In66  1  0.65434611  0.47769685  0.44065112  1
  In  In67  1  0.15819442  0.66364582  0.81117684  1
  In  In68  1  0.54500634  0.10617676  0.75995522  1
  In  In69  1  0.83436855  0.02061067  0.14501446  1
  In  In70  1  0.17574856  0.32797642  0.15683907  1
  In  In71  1  0.17242211  0.17208094  0.67185626  1
  Te  Te72  1  0.08712121  0.08017323  0.09394463  1
  Te  Te73  1  0.08405590  0.06405417  0.40545433  1
  Te  Te74  1  0.08760368  0.09196896  0.76781894  1
  Te  Te75  1  0.06871175  0.40421746  0.07937175  1
  Te  Te76  1  0.08896428  0.41804052  0.41275023  1
  Te  Te77  1  0.08890797  0.41400083  0.76155857  1
  Te  Te78  1  0.08311006  0.75773907  0.08825179  1
  Te  Te79  1  0.10774026  0.78463970  0.38320331  1
  Te  Te80  1  0.06166615  0.75507518  0.75209534  1
  Te  Te81  1  0.46296679  0.12316145  0.07657601  1
  Te  Te82  1  0.41708605  0.09204939  0.43251119  1
  Te  Te83  1  0.39827372  0.07857694  0.79043903  1
  Te  Te84  1  0.43189587  0.38937176  0.12030490  1
  Te  Te85  1  0.43477136  0.43245287  0.38479035  1
  Te  Te86  1  0.43096584  0.43313071  0.75183412  1
  Te  Te87  1  0.46113317  0.75599251  0.07051413  1
  Te  Te88  1  0.43384160  0.76345723  0.41832361  1
  Te  Te89  1  0.38925408  0.75752784  0.74321418  1
  Te  Te90  1  0.70761541  0.08081824  0.09843635  1
  Te  Te91  1  0.76258814  0.07921805  0.41937007  1
  Te  Te92  1  0.74145044  0.06695385  0.80094546  1
  Te  Te93  1  0.70132491  0.40743484  0.09327530  1
  Te  Te94  1  0.76788847  0.40511316  0.37991352  1
  Te  Te95  1  0.74470558  0.42068257  0.74522892  1
  Te  Te96  1  0.75657492  0.74030618  0.07375040  1
  Te  Te97  1  0.71805675  0.71612248  0.41054644  1
  Te  Te98  1  0.74625188  0.78950138  0.76149031  1
  Te  Te99  1  0.07914524  0.23860321  0.26193963  1
  Te  Te100  1  0.08634999  0.25553627  0.58053063  1
  Te  Te101  1  0.08013203  0.24785881  0.94409033  1
  Te  Te102  1  0.09562211  0.58692535  0.25787214  1
  Te  Te103  1  0.07340240  0.60301848  0.58819176  1
  Te  Te104  1  0.08626681  0.56839794  0.92029243  1
  Te  Te105  1  0.09162977  0.87955956  0.25944073  1
  Te  Te106  1  0.07368125  0.92120225  0.57038271  1
  Te  Te107  1  0.09345882  0.92511450  0.89838764  1
  Te  Te108  1  0.44828595  0.17530669  0.22163307  1
  Te  Te109  1  0.44207742  0.25555838  0.59292777  1
  Te  Te110  1  0.38850408  0.18419318  0.89510156  1
  Te  Te111  1  0.41782501  0.60305744  0.22139267  1
  Te  Te112  1  0.40229961  0.59147315  0.58413662  1
  Te  Te113  1  0.42267605  0.58994924  0.91102795  1
  Te  Te114  1  0.42250572  0.91767216  0.22173184  1
  Te  Te115  1  0.42174328  0.93829425  0.60677310  1
  Te  Te116  1  0.41457219  0.93657094  0.92364052  1
  Te  Te117  1  0.71058474  0.22504573  0.24590692  1
  Te  Te118  1  0.75537799  0.25400411  0.59347933  1
  Te  Te119  1  0.70142233  0.25709222  0.91459686  1
  Te  Te120  1  0.74691198  0.53831350  0.27907180  1
  Te  Te121  1  0.73077654  0.57338772  0.57855282  1
  Te  Te122  1  0.75102021  0.57489118  0.90990809  1
  Te  Te123  1  0.77444291  0.90868815  0.24810911  1
  Te  Te124  1  0.74113868  0.93834733  0.60240649  1
  Te  Te125  1  0.72556820  0.97162911  0.92578522  1
  Te  Te126  1  0.27150361  0.24195317  0.08932665  1
  Te  Te127  1  0.28485692  0.26955181  0.37677344  1
  Te  Te128  1  0.26358797  0.26340061  0.74954319  1
  Te  Te129  1  0.24906111  0.58473349  0.06947081  1
  Te  Te130  1  0.25100753  0.57405283  0.41479689  1
  Te  Te131  1  0.24807763  0.57499528  0.73882918  1
  Te  Te132  1  0.26626052  0.94269207  0.06462129  1
  Te  Te133  1  0.26327710  0.92900651  0.41311145  1
  Te  Te134  1  0.23351456  0.93074896  0.73657548  1
  Te  Te135  1  0.52483232  0.25799382  0.03848307  1
  Te  Te136  1  0.58366640  0.23831576  0.40050825  1
  Te  Te137  1  0.58854003  0.24965217  0.77247358  1
  Te  Te138  1  0.59430349  0.55235419  0.10357756  1
  Te  Te139  1  0.54077533  0.56642281  0.40080554  1
  Te  Te140  1  0.57454822  0.61489467  0.74234139  1
  Te  Te141  1  0.59174550  0.94826866  0.09306032  1
  Te  Te142  1  0.60210206  0.91022413  0.41868789  1
  Te  Te143  1  0.57309848  0.95346790  0.78717782  1
  Te  Te144  1  0.87555961  0.23770335  0.07773759  1
  Te  Te145  1  0.90901480  0.25512316  0.42217372  1
  Te  Te146  1  0.91117344  0.25387757  0.74276724  1
  Te  Te147  1  0.91282397  0.58584989  0.05739583  1
  Te  Te148  1  0.92195639  0.56056231  0.39226713  1
  Te  Te149  1  0.92248980  0.59483600  0.76541033  1
  Te  Te150  1  0.92397339  0.91305069  0.08831876  1
  Te  Te151  1  0.90802286  0.89095433  0.41875710  1
  Te  Te152  1  0.90447697  0.93934972  0.76866610  1
  Te  Te153  1  0.25814067  0.08441006  0.23518910  1
  Te  Te154  1  0.27605655  0.09472288  0.59404266  1
  Te  Te155  1  0.26228331  0.09301995  0.88445638  1
  Te  Te156  1  0.22984565  0.42478811  0.25063071  1
  Te  Te157  1  0.23942485  0.41722163  0.57722528  1
  Te  Te158  1  0.28335667  0.38522670  0.93785851  1
  Te  Te159  1  0.27490545  0.76571560  0.24936658  1
  Te  Te160  1  0.24858348  0.75185468  0.56702774  1
  Te  Te161  1  0.24406937  0.74782886  0.91402177  1
  Te  Te162  1  0.55543971  0.07149907  0.26776145  1
  Te  Te163  1  0.58898181  0.08897417  0.60324263  1
  Te  Te164  1  0.60920431  0.07120129  0.89469504  1
  Te  Te165  1  0.64398007  0.42173861  0.29763285  1
  Te  Te166  1  0.59728563  0.40734574  0.56834277  1
  Te  Te167  1  0.56851371  0.42591130  0.91928735  1
  Te  Te168  1  0.60501696  0.73873581  0.24209519  1
  Te  Te169  1  0.57970546  0.77264201  0.59634571  1
  Te  Te170  1  0.61106409  0.76142094  0.91283004  1
  Te  Te171  1  0.92484644  0.07695216  0.25295064  1
  Te  Te172  1  0.91973800  0.09809203  0.59661768  1
  Te  Te173  1  0.90700592  0.08844501  0.93069661  1
  Te  Te174  1  0.91438845  0.41347892  0.21876356  1
  Te  Te175  1  0.91327067  0.41641828  0.58438018  1
  Te  Te176  1  0.90189245  0.38998798  0.93517955  1
  Te  Te177  1  0.90961481  0.72178130  0.23189376  1
  Te  Te178  1  0.89575344  0.73223065  0.57745643  1
  Te  Te179  1  0.91080702  0.78281676  0.92006198  1
