# generated using pymatgen
data_In2Te3
_symmetry_space_group_name_H-M   'P 1'
_cell_length_a   18.92152712
_cell_length_b   18.91890905
_cell_length_c   18.92598808
_cell_angle_alpha   90.10629680
_cell_angle_beta   90.08558318
_cell_angle_gamma   90.01512352
_symmetry_Int_Tables_number   1
_chemical_formula_structural   In2Te3
_chemical_formula_sum   'In72 Te108'
_cell_volume   6775.00451078
_cell_formula_units_Z   36
loop_
 _symmetry_equiv_pos_site_id
 _symmetry_equiv_pos_as_xyz
  1  'x, y, z'
loop_
 _atom_site_type_symbol
 _atom_site_label
 _atom_site_symmetry_multiplicity
 _atom_site_fract_x
 _atom_site_fract_y
 _atom_site_fract_z
 _atom_site_occupancy
  In  In0  1  0.81503681  -0.04894314  0.86016813  1
  In  In1  1  0.35204432  0.84626122  0.84561628  1
  In  In2  1  0.68255915  0.17364928  0.48077069  1
  In  In3  1  0.81334792  0.83779540  0.04752084  1
  In  In4  1  0.17875261  -0.01657007  0.48382720  1
  In  In5  1  0.83305195  0.13334795  0.03278160  1
  In  In6  1  0.01651067  0.32491458  0.36177161  1
  In  In7  1  0.65392249  0.15145849  0.17371579  1
  In  In8  1  0.31887365  0.49113767  0.16216429  1
  In  In9  1  0.29992363  0.65887986  0.67235352  1
  In  In10  1  -0.02371117  0.65378234  0.03005431  1
  In  In11  1  0.35287204  0.67371253  0.32309831  1
  In  In12  1  0.67572315  0.15998987  0.87700460  1
  In  In13  1  0.16862625  0.48559277  -0.02499108  1
  In  In14  1  0.18757639  0.65604906  0.81864237  1
  In  In15  1  0.65512006  -0.01562940  0.65416677  1
  In  In16  1  0.34163389  0.16528574  0.81808888  1
  In  In17  1  0.16922037  0.65173486  0.50141777  1
  In  In18  1  0.85185421  0.12916966  0.30582829  1
  In  In19  1  0.35285260  0.85857785  0.46798553  1
  In  In20  1  0.53054918  0.65017904  0.49459613  1
  In  In21  1  0.81019536  0.85761398  0.31107730  1
  In  In22  1  0.02330154  0.50473092  0.17462699  1
  In  In23  1  0.83261249  0.34640242  0.17435206  1
  In  In24  1  0.18511418  0.16040529  0.33343272  1
  In  In25  1  0.18314011  0.32548459  0.83846656  1
  In  In26  1  0.15248873  0.82158726  0.65709990  1
  In  In27  1  0.33091497  0.48213857  0.50380870  1
  In  In28  1  0.63498920  0.33748896  0.67911189  1
  In  In29  1  0.48691300  0.16646989  0.34217751  1
  In  In30  1  0.01138026  0.33294353  0.63564953  1
  In  In31  1  0.15972429  0.01132441  0.17050968  1
  In  In32  1  -0.02323090  0.69110678  0.33660844  1
  In  In33  1  -0.00200489  0.51527364  0.81308405  1
  In  In34  1  0.64634532  0.71913009  0.03029546  1
  In  In35  1  -0.03431683  0.33212839  0.00661558  1
  In  In36  1  0.51877842  0.35670070  0.19094088  1
  In  In37  1  0.83131151  0.34070670  0.52019940  1
  In  In38  1  0.00726036  -0.00442447  0.68812553  1
  In  In39  1  0.48368063  0.35127332  0.83001616  1
  In  In40  1  0.32382678  0.34463273  0.34229518  1
  In  In41  1  0.49383613  0.17824302  0.65267259  1
  In  In42  1  0.83987253  0.50284907  0.66093778  1
  In  In43  1  0.83074915  0.66889786  0.48362633  1
  In  In44  1  0.51581205  0.50576006  0.66373607  1
  In  In45  1  0.48834325  0.15020014  0.02576771  1
  In  In46  1  0.83500206  0.01044907  0.47204121  1
  In  In47  1  0.34638087  -0.00970476  -0.00822028  1
  In  In48  1  0.83329967  0.15036117  0.69558227  1
  In  In49  1  0.49445077  0.81302267  0.67142572  1
  In  In50  1  0.49937490  0.71037110  0.16940777  1
  In  In51  1  0.19842421  0.15833075  0.00761831  1
  In  In52  1  0.49255803  0.32414785  0.48599437  1
  In  In53  1  0.65784464  0.52369438  0.84481669  1
  In  In54  1  0.69356700  0.52407454  0.43498701  1
  In  In55  1  0.17595596  0.30091447  0.17574173  1
  In  In56  1  0.16215244  0.68172956  0.16478578  1
  In  In57  1  0.51744551  0.50292551  0.00373828  1
  In  In58  1  0.14663147  0.84009216  -0.01271105  1
  In  In59  1  0.31758811  -0.01875386  0.64867298  1
  In  In60  1  0.79104109  0.51437010  0.00875737  1
  In  In61  1  -0.01804397  0.66553756  0.64362486  1
  In  In62  1  0.82096976  0.32243576  0.85228963  1
  In  In63  1  0.37893814  0.66268134  -0.00655870  1
  In  In64  1  0.70843122  0.70183886  0.68022178  1
  In  In65  1  0.16658274  0.83918962  0.33948933  1
  In  In66  1  0.50821829  0.00350074  0.85450009  1
  In  In67  1  0.01619871  0.16711852  0.49213522  1
  In  In68  1  0.63723750  0.86385324  0.45054535  1
  In  In69  1  -0.01427361  -0.00251547  0.00067708  1
  In  In70  1  0.02205140  0.15843494  0.82540791  1
  In  In71  1  -0.02696308  0.83774710  0.84476985  1
  Te  Te72  1  0.07719190  0.09657649  0.07375121  1
  Te  Te73  1  0.08265695  0.06845980  0.40061378  1
  Te  Te74  1  0.10744392  0.09469670  0.72618508  1
  Te  Te75  1  0.08585492  0.40472936  0.07724200  1
  Te  Te76  1  0.11612364  0.40946527  0.42675803  1
  Te  Te77  1  0.08085629  0.40726843  0.75187841  1
  Te  Te78  1  0.06115588  0.76672705  0.08976534  1
  Te  Te79  1  0.08162944  0.75391869  0.43112745  1
  Te  Te80  1  0.07238679  0.75071769  0.76525257  1
  Te  Te81  1  0.40100136  0.06373746  0.10831805  1
  Te  Te82  1  0.44041603  0.07091148  0.44334293  1
  Te  Te83  1  0.42627162  0.06055217  0.73851107  1
  Te  Te84  1  0.42384693  0.41309199  0.08513311  1
  Te  Te85  1  0.43309444  0.43562041  0.40008928  1
  Te  Te86  1  0.41801105  0.40628751  0.71179723  1
  Te  Te87  1  0.38551552  0.76699805  0.09459679  1
  Te  Te88  1  0.44548119  0.75096251  0.41402453  1
  Te  Te89  1  0.40393234  0.73129447  0.76040322  1
  Te  Te90  1  0.74737045  0.04697741  0.11751912  1
  Te  Te91  1  0.72972230  0.06973020  0.38077767  1
  Te  Te92  1  0.73081961  0.06294075  0.76630609  1
  Te  Te93  1  0.72392438  0.41814409  0.09960559  1
  Te  Te94  1  0.76941186  0.40199760  0.40240885  1
  Te  Te95  1  0.74597422  0.42140446  0.75286714  1
  Te  Te96  1  0.76212131  0.72123857  0.12570156  1
  Te  Te97  1  0.73811588  0.75763825  0.40209743  1
  Te  Te98  1  0.75646308  0.80874084  0.76629520  1
  Te  Te99  1  0.07126368  0.22886291  0.25644722  1
  Te  Te100  1  0.11339552  0.25538999  0.56251031  1
  Te  Te101  1  0.07502603  0.25485725  0.92977271  1
  Te  Te102  1  0.08815680  0.60266536  0.26915366  1
  Te  Te103  1  0.09713728  0.58251325  0.60882043  1
  Te  Te104  1  0.07475706  0.59848383  0.92457873  1
  Te  Te105  1  0.07861238  0.91031384  0.24361923  1
  Te  Te106  1  0.07120644  0.91778108  0.57458692  1
  Te  Te107  1  0.07682913  0.93815586  0.89406370  1
  Te  Te108  1  0.41411227  0.26507979  0.24999628  1
  Te  Te109  1  0.39784196  0.26014736  0.57844549  1
  Te  Te110  1  0.42640337  0.24111535  0.91741584  1
  Te  Te111  1  0.42198450  0.58266660  0.22524127  1
  Te  Te112  1  0.41489048  0.59700828  0.57894051  1
  Te  Te113  1  0.42759708  0.56186818  0.90141587  1
  Te  Te114  1  0.48279091  0.88913537  0.25841179  1
  Te  Te115  1  0.43852908  0.91962538  0.57965905  1
  Te  Te116  1  0.46196827  0.88523291  0.94807954  1
  Te  Te117  1  0.75820889  0.23619442  0.24882623  1
  Te  Te118  1  0.74276231  0.24537493  0.61209496  1
  Te  Te119  1  0.75437602  0.25159239  0.96795310  1
  Te  Te120  1  0.73355233  0.54710517  0.28917783  1
  Te  Te121  1  0.73859913  0.57843571  0.57977017  1
  Te  Te122  1  0.73380909  0.62393486  0.92566797  1
  Te  Te123  1  0.70639432  0.92109234  0.22111410  1
  Te  Te124  1  0.74368083  0.91784186  0.55126436  1
  Te  Te125  1  0.71615884  0.89048348  0.94804179  1
  Te  Te126  1  0.27364760  0.26440401  0.07329272  1
  Te  Te127  1  0.27236905  0.23487857  0.42563427  1
  Te  Te128  1  0.25213399  0.24657822  0.73635893  1
  Te  Te129  1  0.23927864  0.58717507  0.07285886  1
  Te  Te130  1  0.26441385  0.58301126  0.40652509  1
  Te  Te131  1  0.24948600  0.54363294  0.74805188  1
  Te  Te132  1  0.24059746  0.91850222  0.07618066  1
  Te  Te133  1  0.27630417  0.94245910  0.37025719  1
  Te  Te134  1  0.24335390  0.90053035  0.75316413  1
  Te  Te135  1  0.57708834  0.25437134  0.09172700  1
  Te  Te136  1  0.59812805  0.26402090  0.39518470  1
  Te  Te137  1  0.58493923  0.22533545  0.77343457  1
  Te  Te138  1  0.58356513  0.59809077  0.09993304  1
  Te  Te139  1  0.58619926  0.60022772  0.36533062  1
  Te  Te140  1  0.59449751  0.61144564  0.73989455  1
  Te  Te141  1  0.58185398  0.88602504  0.13429833  1
  Te  Te142  1  0.53269100  0.96142703  0.39195962  1
  Te  Te143  1  0.57894401  0.90511680  0.75911109  1
  Te  Te144  1  0.91893487  0.23246870  0.10957416  1
  Te  Te145  1  0.89804449  0.23352067  0.42198394  1
  Te  Te146  1  0.92035492  0.26658449  0.74896778  1
  Te  Te147  1  0.89485684  0.56097736  0.11568517  1
  Te  Te148  1  0.92702511  0.57958685  0.41825583  1
  Te  Te149  1  0.89239601  0.60875828  0.75820415  1
  Te  Te150  1  0.91245339  0.93238949  0.11329479  1
  Te  Te151  1  0.92168592  0.92505307  0.38684669  1
  Te  Te152  1  0.89049119  0.90854270  0.73184695  1
  Te  Te153  1  0.26753353  0.09766114  0.22650902  1
  Te  Te154  1  0.25961154  0.08005372  0.55842590  1
  Te  Te155  1  0.25504754  0.06959820  0.89966981  1
  Te  Te156  1  0.22220843  0.42129811  0.25634143  1
  Te  Te157  1  0.21394237  0.40592225  0.54603956  1
  Te  Te158  1  0.27751421  0.41010101  0.91415717  1
  Te  Te159  1  0.26105184  0.76578213  0.24444674  1
  Te  Te160  1  0.26231071  0.76764385  0.56390901  1
  Te  Te161  1  0.25358129  0.74836676  0.92221641  1
  Te  Te162  1  0.54302242  0.07607914  0.23732765  1
  Te  Te163  1  0.58802063  0.09208356  0.56902027  1
  Te  Te164  1  0.59776929  0.06308402  0.96315029  1
  Te  Te165  1  0.63381631  0.43873828  0.23962011  1
  Te  Te166  1  0.59051139  0.42040360  0.56200120  1
  Te  Te167  1  0.59744201  0.40372545  0.91445330  1
  Te  Te168  1  0.60012807  0.78876891  0.25314858  1
  Te  Te169  1  0.60291758  0.75886846  0.57616095  1
  Te  Te170  1  0.55005464  0.75964113  0.92864871  1
  Te  Te171  1  0.93017187  0.01943795  0.24366965  1
  Te  Te172  1  0.91643309  0.08754711  0.58641532  1
  Te  Te173  1  0.90653554  0.08973431  0.90044469  1
  Te  Te174  1  0.93940479  0.41208447  0.26183358  1
  Te  Te175  1  0.93735382  0.44249962  0.56058481  1
  Te  Te176  1  0.90617217  0.44190076  0.91909292  1
  Te  Te177  1  0.88465093  0.74917754  0.23579566  1
  Te  Te178  1  0.90532467  0.76333370  0.56985616  1
  Te  Te179  1  0.89978976  0.75560835  0.94687683  1
