# generated using pymatgen
data_In2Te3
_symmetry_space_group_name_H-M   'P 1'
_cell_length_a   18.89963606
_cell_length_b   18.87500790
_cell_length_c   18.89164279
_cell_angle_alpha   89.97374097
_cell_angle_beta   89.92874140
_cell_angle_gamma   90.11803706
_symmetry_Int_Tables_number   1
_chemical_formula_structural   In2Te3
_chemical_formula_sum   'In72 Te108'
_cell_volume   6739.21023680
_cell_formula_units_Z   36
loop_
 _symmetry_equiv_pos_site_id
 _symmetry_equiv_pos_as_xyz
  1  'x, y, z'
loop_
 _atom_site_type_symbol
 _atom_site_label
 _atom_site_symmetry_multiplicity
 _atom_site_fract_x
 _atom_site_fract_y
 _atom_site_fract_z
 _atom_site_occupancy
  In  In0  1  0.00297445  0.49510561  0.16253425  1
  In  In1  1  0.48748933  0.02912717  0.47791322  1
  In  In2  1  0.16234085  0.19814375  0.67241397  1
  In  In3  1  0.31735307  0.34415317  -0.00970032  1
  In  In4  1  0.67238819  0.34536661  0.67331025  1
  In  In5  1  0.50627351  -0.02339797  0.16699698  1
  In  In6  1  0.50731073  0.35674271  0.81181505  1
  In  In7  1  0.17787895  0.82917362  0.32854350  1
  In  In8  1  0.50541318  0.17635230  -0.00062657  1
  In  In9  1  0.31833642  0.02239541  0.65021601  1
  In  In10  1  0.81941911  0.83154446  -0.00005049  1
  In  In11  1  0.67195884  0.00763950  0.64991281  1
  In  In12  1  0.68425451  0.00694897  -0.01026636  1
  In  In13  1  0.15865371  0.47028749  0.67173187  1
  In  In14  1  0.33486560  0.15279730  0.19964578  1
  In  In15  1  0.36020651  0.20468374  0.74127694  1
  In  In16  1  0.15836477  0.34307502  0.18756533  1
  In  In17  1  0.48093745  0.33403640  0.51459063  1
  In  In18  1  0.33481727  0.00965285  0.35832654  1
  In  In19  1  0.85972038  0.23056661  -0.03961154  1
  In  In20  1  -0.01101514  0.18645972  0.80900575  1
  In  In21  1  0.66337767  0.19612340  0.50772131  1
  In  In22  1  0.49758411  0.31312085  0.17566424  1
  In  In23  1  0.15439827  0.64253511  0.84411161  1
  In  In24  1  -0.01469095  0.84474977  0.50540883  1
  In  In25  1  -0.00846683  0.67371133  0.35083784  1
  In  In26  1  0.85338624  0.47785060  -0.02283930  1
  In  In27  1  0.20961849  0.63936446  0.48149119  1
  In  In28  1  0.17974825  -0.00321560  0.18125150  1
  In  In29  1  0.66075563  0.81560272  0.48933733  1
  In  In30  1  0.66878480  0.67248871  -0.00565998  1
  In  In31  1  0.51117568  0.49351513  -0.02519173  1
  In  In32  1  0.67050223  0.82256068  0.82589266  1
  In  In33  1  0.17918962  0.31922145  0.49020746  1
  In  In34  1  0.69091003  0.17412023  0.82276750  1
  In  In35  1  0.49174597  0.48240438  0.34707742  1
  In  In36  1  0.82661503  0.51043468  0.35126376  1
  In  In37  1  0.15912000  0.18263573  -0.00096570  1
  In  In38  1  0.83678751  0.66329633  0.81463569  1
  In  In39  1  0.31952468  0.49137491  0.17746851  1
  In  In40  1  0.84291039  0.15267158  0.34585168  1
  In  In41  1  0.33250869  0.82347637  0.49055513  1
  In  In42  1  0.82687420  0.64106363  0.53087176  1
  In  In43  1  0.49610988  0.82459090  0.35559511  1
  In  In44  1  0.84347716  0.36841304  0.54432184  1
  In  In45  1  -0.04925971  0.85963050  0.77242363  1
  In  In46  1  0.48255813  0.62672329  0.53786163  1
  In  In47  1  0.49853868  0.66426161  0.15075390  1
  In  In48  1  -0.00471359  0.81661534  0.17679684  1
  In  In49  1  0.00362056  0.15867952  0.48567151  1
  In  In50  1  0.31547725  -0.02622040  -0.01014728  1
  In  In51  1  0.65547175  0.16323831  0.15595893  1
  In  In52  1  0.67984416  0.34184570  0.33960615  1
  In  In53  1  0.66689515  0.65698888  0.33847679  1
  In  In54  1  0.14894012  0.82317131  0.64416209  1
  In  In55  1  0.84262172  0.33324167  0.14176025  1
  In  In56  1  0.83450238  -0.00005428  0.50389192  1
  In  In57  1  0.51951300  0.62570042  0.79727758  1
  In  In58  1  0.19237625  0.01749907  0.82498866  1
  In  In59  1  0.83208749  0.01056617  0.18488955  1
  In  In60  1  -0.00410420  0.64942611  -0.01830569  1
  In  In61  1  -0.00474718  0.02265911  -0.01013142  1
  In  In62  1  0.68390432  0.85620875  0.17102546  1
  In  In63  1  0.35053816  0.82643518  0.83203880  1
  In  In64  1  0.01281257  0.33348272  0.35030774  1
  In  In65  1  0.33082610  0.48532932  0.82442091  1
  In  In66  1  0.32773878  0.65701988  0.03304007  1
  In  In67  1  0.47072299  0.15197057  0.32562464  1
  In  In68  1  0.01557572  0.65493881  0.66765883  1
  In  In69  1  0.50830806  0.82981297  0.66516840  1
  In  In70  1  0.17945089  0.65174432  0.18961885  1
  In  In71  1  0.16275737  0.84525119  0.00616532  1
  Te  Te72  1  0.09036704  0.08292311  0.09194278  1
  Te  Te73  1  0.10719302  0.10346248  0.40051658  1
  Te  Te74  1  0.08485253  0.08410713  0.74504068  1
  Te  Te75  1  0.06980078  0.39246863  0.07919775  1
  Te  Te76  1  0.08690816  0.42347726  0.43801333  1
  Te  Te77  1  0.04108227  0.38383056  0.71494559  1
  Te  Te78  1  0.08793586  0.73492833  0.08538246  1
  Te  Te79  1  0.09934594  0.74550852  0.43173110  1
  Te  Te80  1  0.08141017  0.75643045  0.76670249  1
  Te  Te81  1  0.42473686  0.08523838  0.09436422  1
  Te  Te82  1  0.37290325  0.13383544  0.44858451  1
  Te  Te83  1  0.40720148  0.06682510  0.75722458  1
  Te  Te84  1  0.42140425  0.41894170  0.08333474  1
  Te  Te85  1  0.38892828  0.43588233  0.44715689  1
  Te  Te86  1  0.42065428  0.43476497  0.71444814  1
  Te  Te87  1  0.42239764  0.76129831  0.07240496  1
  Te  Te88  1  0.41842346  0.71644395  0.42636069  1
  Te  Te89  1  0.42114205  0.72860656  0.73838560  1
  Te  Te90  1  0.76731195  0.10035224  0.07496083  1
  Te  Te91  1  0.73238848  0.08765539  0.42668468  1
  Te  Te92  1  0.76968640  0.08197512  0.73551950  1
  Te  Te93  1  0.75594020  0.43098079  0.07713180  1
  Te  Te94  1  0.74030532  0.42889604  0.44811518  1
  Te  Te95  1  0.74869239  0.45722814  0.74050190  1
  Te  Te96  1  0.75439219  0.73982713  0.10089996  1
  Te  Te97  1  0.76920211  0.73339909  0.42198788  1
  Te  Te98  1  0.74632220  0.74172972  0.72996832  1
  Te  Te99  1  0.08402797  0.23904302  0.26271462  1
  Te  Te100  1  0.05958357  0.26382555  0.58024473  1
  Te  Te101  1  0.07922306  0.25897957  0.90380820  1
  Te  Te102  1  0.07666577  0.57498079  0.26955569  1
  Te  Te103  1  0.10522674  0.57536658  0.57416016  1
  Te  Te104  1  0.06155969  0.54434589  0.90282097  1
  Te  Te105  1  0.07453384  0.91654590  0.25911622  1
  Te  Te106  1  0.07621952  0.93265558  0.58119678  1
  Te  Te107  1  0.08802917  0.93352995  0.90796069  1
  Te  Te108  1  0.38738442  0.27966483  0.27633411  1
  Te  Te109  1  0.40469597  0.23986173  0.60280963  1
  Te  Te110  1  0.42282753  0.26802639  0.91046729  1
  Te  Te111  1  0.42098901  0.57917054  0.24991214  1
  Te  Te112  1  0.38500701  0.55070615  0.61652545  1
  Te  Te113  1  0.40796054  0.58752116  0.91335276  1
  Te  Te114  1  0.40906349  0.91275657  0.26687381  1
  Te  Te115  1  0.42483340  0.91726868  0.56991145  1
  Te  Te116  1  0.42770800  0.92161539  0.91272318  1
  Te  Te117  1  0.75136508  0.24362703  0.24677100  1
  Te  Te118  1  0.76887077  0.24788060  0.60290624  1
  Te  Te119  1  0.73319567  0.28759586  0.90793494  1
  Te  Te120  1  0.74055451  0.56851876  0.24804873  1
  Te  Te121  1  0.74118682  0.56024551  0.62272254  1
  Te  Te122  1  0.75437341  0.58020600  0.91160287  1
  Te  Te123  1  0.76262172  0.91928459  0.27653448  1
  Te  Te124  1  0.75039925  0.89632697  0.58172070  1
  Te  Te125  1  0.76552086  0.92318819  0.89214539  1
  Te  Te126  1  0.26289659  0.25122358  0.10035809  1
  Te  Te127  1  0.28401399  0.25572970  0.40533952  1
  Te  Te128  1  0.23563794  0.27312931  0.77858243  1
  Te  Te129  1  0.22391984  0.55609457  0.07688355  1
  Te  Te130  1  0.27654635  0.53623926  0.39964606  1
  Te  Te131  1  0.24548475  0.58270348  0.74081746  1
  Te  Te132  1  0.26495248  0.89411249  0.10878243  1
  Te  Te133  1  0.23448961  0.92391148  0.43531875  1
  Te  Te134  1  0.25342460  0.90246267  0.73896091  1
  Te  Te135  1  0.59905025  0.27426976  0.06884823  1
  Te  Te136  1  0.56750093  0.25489855  0.40150344  1
  Te  Te137  1  0.58068958  0.24273066  0.74130172  1
  Te  Te138  1  0.59227206  0.57059020  0.07873859  1
  Te  Te139  1  0.58194317  0.57209067  0.43126217  1
  Te  Te140  1  0.61390008  0.53961317  0.71880274  1
  Te  Te141  1  0.59313571  0.90786464  0.06069144  1
  Te  Te142  1  0.58705891  0.92816161  0.41782019  1
  Te  Te143  1  0.58710725  0.92650068  0.75003526  1
  Te  Te144  1  0.95046803  0.25918728  0.07467136  1
  Te  Te145  1  0.89227743  0.26897076  0.43078471  1
  Te  Te146  1  0.90785859  0.30272710  0.75535541  1
  Te  Te147  1  0.90732194  0.58157888  0.08281508  1
  Te  Te148  1  0.93063700  0.56997737  0.44518686  1
  Te  Te149  1  0.93331354  0.56504294  0.75488948  1
  Te  Te150  1  0.91934108  0.91737165  0.07872510  1
  Te  Te151  1  0.91634206  0.92654477  0.40561741  1
  Te  Te152  1  0.89784051  0.97332244  0.69784586  1
  Te  Te153  1  0.22018610  0.09689039  0.29049696  1
  Te  Te154  1  0.21657836  0.09698264  0.57732000  1
  Te  Te155  1  0.26780082  0.10267223  0.92566674  1
  Te  Te156  1  0.22835195  0.43563851  0.28300220  1
  Te  Te157  1  0.25840753  0.39695285  0.58999147  1
  Te  Te158  1  0.22491265  0.41137371  0.89710234  1
  Te  Te159  1  0.27195902  0.73629211  0.26479694  1
  Te  Te160  1  0.26093305  0.73526798  0.59075985  1
  Te  Te161  1  0.24627960  0.74672606  0.92280564  1
  Te  Te162  1  0.58442928  0.07341953  0.25524747  1
  Te  Te163  1  0.56955556  0.10153533  0.58383071  1
  Te  Te164  1  0.58981816  0.09084113  0.90717318  1
  Te  Te165  1  0.58614375  0.41694069  0.24548867  1
  Te  Te166  1  0.58064223  0.42063138  0.58170747  1
  Te  Te167  1  0.61135762  0.41724739  0.89855588  1
  Te  Te168  1  0.58304093  0.75854025  0.24915368  1
  Te  Te169  1  0.58966665  0.72662432  0.58921615  1
  Te  Te170  1  0.56978869  0.73241721  0.89654172  1
  Te  Te171  1  0.93414350  0.09532756  0.24709017  1
  Te  Te172  1  0.92190664  0.08718210  0.59086876  1
  Te  Te173  1  0.90207895  0.09459955  0.89786825  1
  Te  Te174  1  0.90904249  0.41449546  0.26127481  1
  Te  Te175  1  0.93059871  0.45338789  0.63041966  1
  Te  Te176  1  0.91534750  0.36614587  0.89783934  1
  Te  Te177  1  0.90111309  0.73552746  0.25356454  1
  Te  Te178  1  0.91590818  0.74707283  0.59944803  1
  Te  Te179  1  0.92188404  0.76266558  0.90991324  1
