# generated using pymatgen
data_In2Te3
_symmetry_space_group_name_H-M   'P 1'
_cell_length_a   18.96140149
_cell_length_b   18.94065602
_cell_length_c   18.92023604
_cell_angle_alpha   89.96520387
_cell_angle_beta   90.04817598
_cell_angle_gamma   89.90870183
_symmetry_Int_Tables_number   1
_chemical_formula_structural   In2Te3
_chemical_formula_sum   'In72 Te108'
_cell_volume   6795.02745405
_cell_formula_units_Z   36
loop_
 _symmetry_equiv_pos_site_id
 _symmetry_equiv_pos_as_xyz
  1  'x, y, z'
loop_
 _atom_site_type_symbol
 _atom_site_label
 _atom_site_symmetry_multiplicity
 _atom_site_fract_x
 _atom_site_fract_y
 _atom_site_fract_z
 _atom_site_occupancy
  In  In0  1  0.16962901  -0.02615887  0.47795506  1
  In  In1  1  0.67269707  0.65350682  0.33676537  1
  In  In2  1  0.66894632  0.01227491  0.65466021  1
  In  In3  1  0.34280914  0.33775809  0.35093395  1
  In  In4  1  0.19006520  0.80104714  0.31547139  1
  In  In5  1  0.32502518  0.67382290  0.66488312  1
  In  In6  1  0.19134760  0.52193020  0.36240290  1
  In  In7  1  0.48357486  0.50898192  0.66272452  1
  In  In8  1  0.51543292  0.66254745  0.86161800  1
  In  In9  1  0.82588744  0.32403506  0.80640599  1
  In  In10  1  0.00014697  0.50436989  0.16712719  1
  In  In11  1  -0.01780137  0.48690726  0.51334672  1
  In  In12  1  0.67384465  0.32345527  -0.01671870  1
  In  In13  1  0.82310031  0.49366854  0.38062658  1
  In  In14  1  0.52416048  0.83183437  0.67776989  1
  In  In15  1  0.49896415  0.67164071  0.18789868  1
  In  In16  1  0.15711629  0.66971995  0.81202438  1
  In  In17  1  0.16513337  0.14609596  0.01182400  1
  In  In18  1  -0.01507177  0.70156531  0.64860651  1
  In  In19  1  0.00528812  -0.02891510  0.66109820  1
  In  In20  1  0.49326266  0.50880051  0.01669702  1
  In  In21  1  0.35811260  0.67723928  0.01958664  1
  In  In22  1  0.83444693  0.33091669  0.15944430  1
  In  In23  1  0.82763313  -0.00245234  0.14307089  1
  In  In24  1  0.51663270  0.17324167  0.67645077  1
  In  In25  1  0.14833199  0.15783744  0.66022238  1
  In  In26  1  0.86291215  0.51428861  0.01164277  1
  In  In27  1  0.01170578  0.30914229  0.33070326  1
  In  In28  1  0.68589900  0.69519997  -0.00009115  1
  In  In29  1  0.50040361  0.52311542  0.34698429  1
  In  In30  1  0.34231307  0.18087045  0.48280644  1
  In  In31  1  0.12130852  0.81620216  -0.00162234  1
  In  In32  1  0.15863996  -0.00215320  0.15294935  1
  In  In33  1  0.51639456  0.34537871  0.50295098  1
  In  In34  1  0.51121379  0.84074318  -0.01241095  1
  In  In35  1  0.49989226  0.31290227  0.81931957  1
  In  In36  1  -0.00300162  0.15903986  0.49479504  1
  In  In37  1  0.31462622  -0.01755224  0.66659497  1
  In  In38  1  0.65350920  0.00498055  0.34001267  1
  In  In39  1  0.32131868  0.83925914  0.83993939  1
  In  In40  1  0.52194002  0.16914772  0.00027298  1
  In  In41  1  -0.01210842  0.32520182  -0.00050180  1
  In  In42  1  0.01294231  0.51607492  0.80850155  1
  In  In43  1  0.81258374  0.16951201  0.31698300  1
  In  In44  1  0.15763016  0.34472646  0.17741148  1
  In  In45  1  0.67664805  0.02216093  -0.01333766  1
  In  In46  1  0.51113416  0.16519715  0.33470351  1
  In  In47  1  0.00454836  0.64816919  0.33282707  1
  In  In48  1  0.16269830  0.14457474  0.27452705  1
  In  In49  1  0.83965320  0.68208164  0.81893101  1
  In  In50  1  0.68293119  0.84581157  0.16105277  1
  In  In51  1  0.33348646  0.14737414  0.84523766  1
  In  In52  1  0.16908323  0.35886848  0.83870356  1
  In  In53  1  0.32558756  0.37623094  0.00760612  1
  In  In54  1  0.37495781  0.80386568  0.32118956  1
  In  In55  1  0.32239422  0.15071625  0.17763249  1
  In  In56  1  0.68030733  0.48754827  0.82206396  1
  In  In57  1  -0.02020933  -0.01980699  0.32415134  1
  In  In58  1  0.31129312  0.35330253  0.67170594  1
  In  In59  1  0.19126088  0.33713348  0.50545368  1
  In  In60  1  0.16956750  0.66784239  0.51282710  1
  In  In61  1  0.66678858  0.49935405  0.19585844  1
  In  In62  1  0.31941266  -0.02044095  0.01854773  1
  In  In63  1  0.86820366  0.83221136  -0.00465907  1
  In  In64  1  0.83511786  -0.00795616  0.49766638  1
  In  In65  1  0.83613064  -0.00002399  0.81598406  1
  In  In66  1  0.48092757  -0.01403523  0.51464566  1
  In  In67  1  0.66754113  0.86037002  0.50378069  1
  In  In68  1  -0.02664385  0.16297598  0.83901338  1
  In  In69  1  0.85646322  0.81277829  0.34120302  1
  In  In70  1  0.78904630  0.31711227  0.53085751  1
  In  In71  1  0.70021879  0.65045845  0.63839676  1
  Te  Te72  1  0.05748147  0.06093859  0.06564560  1
  Te  Te73  1  0.08043639  0.07785490  0.39757630  1
  Te  Te74  1  0.06901090  0.07457671  0.75526945  1
  Te  Te75  1  0.08341558  0.42215976  0.06978551  1
  Te  Te76  1  0.08175904  0.41798889  0.41250417  1
  Te  Te77  1  0.08358867  0.41051525  0.73284754  1
  Te  Te78  1  0.04992381  0.73584683  0.09876906  1
  Te  Te79  1  0.08707260  0.74683411  0.41383739  1
  Te  Te80  1  0.04662253  0.76421839  0.77085179  1
  Te  Te81  1  0.41146558  0.08639971  0.07313005  1
  Te  Te82  1  0.41294871  0.07182465  0.40737613  1
  Te  Te83  1  0.41260620  0.07603042  0.73662721  1
  Te  Te84  1  0.41492469  0.42784525  0.10962804  1
  Te  Te85  1  0.41059859  0.43496493  0.44231018  1
  Te  Te86  1  0.40769634  0.42260713  0.76424264  1
  Te  Te87  1  0.43292783  0.78097564  0.10120053  1
  Te  Te88  1  0.41507894  0.70656232  0.42275044  1
  Te  Te89  1  0.42450966  0.74808699  0.77117342  1
  Te  Te90  1  0.72274105  0.09391335  0.10780514  1
  Te  Te91  1  0.74391405  0.09024834  0.42836881  1
  Te  Te92  1  0.76132543  0.10247741  0.73179898  1
  Te  Te93  1  0.74820340  0.43570619  0.07393711  1
  Te  Te94  1  0.72957550  0.38759261  0.41472191  1
  Te  Te95  1  0.77478614  0.43587624  0.72129917  1
  Te  Te96  1  0.78279503  0.75043552  0.09943860  1
  Te  Te97  1  0.74634594  0.75407673  0.42377240  1
  Te  Te98  1  0.73964755  0.75101154  0.73690667  1
  Te  Te99  1  0.05774759  0.23402884  0.20744544  1
  Te  Te100  1  0.07848437  0.26102319  0.57395339  1
  Te  Te101  1  0.09513879  0.24570870  0.91768215  1
  Te  Te102  1  0.10675168  0.57707772  0.24725979  1
  Te  Te103  1  0.06890571  0.58645018  0.59022467  1
  Te  Te104  1  0.09134272  0.58271813  0.91308896  1
  Te  Te105  1  0.09237047  0.90695676  0.25741397  1
  Te  Te106  1  0.11143765  0.89399680  0.58874408  1
  Te  Te107  1  0.12811334  0.92907250  0.90482697  1
  Te  Te108  1  0.41353158  0.24852441  0.25109631  1
  Te  Te109  1  0.40907988  0.25758396  0.59454832  1
  Te  Te110  1  0.39824087  0.26157379  0.92265750  1
  Te  Te111  1  0.39941466  0.58371048  0.25295931  1
  Te  Te112  1  0.42885359  0.61654919  0.57514409  1
  Te  Te113  1  0.40370849  0.57587612  0.91384268  1
  Te  Te114  1  0.37504656  0.91998669  0.23308850  1
  Te  Te115  1  0.40464540  0.88295411  0.59422741  1
  Te  Te116  1  0.41886536  0.93249237  0.91041583  1
  Te  Te117  1  0.73479188  0.27343911  0.24990929  1
  Te  Te118  1  0.73974619  0.21996879  0.62997763  1
  Te  Te119  1  0.76120828  0.23649819  0.90574479  1
  Te  Te120  1  0.77780039  0.57959562  0.25637562  1
  Te  Te121  1  0.74340868  0.56181360  0.52664786  1
  Te  Te122  1  0.75575830  0.58676769  0.91784069  1
  Te  Te123  1  0.76662315  0.92025799  0.27126809  1
  Te  Te124  1  0.77288505  0.90313355  0.60616128  1
  Te  Te125  1  0.76289758  0.91451534  0.92209896  1
  Te  Te126  1  0.24656588  0.25191883  0.08740764  1
  Te  Te127  1  0.22911525  0.23602521  0.38851287  1
  Te  Te128  1  0.24757800  0.23382170  0.74937059  1
  Te  Te129  1  0.26463222  0.61401348  0.11108381  1
  Te  Te130  1  0.28409257  0.62156516  0.42523237  1
  Te  Te131  1  0.24287508  0.57724637  0.73711980  1
  Te  Te132  1  0.23151022  0.88091462  0.08884807  1
  Te  Te133  1  0.27088192  0.87976643  0.41999073  1
  Te  Te134  1  0.22009595  0.91595926  0.76131985  1
  Te  Te135  1  0.57714573  0.27602785  0.08151216  1
  Te  Te136  1  0.59168004  0.24442479  0.42908237  1
  Te  Te137  1  0.61301331  0.27707167  0.72662919  1
  Te  Te138  1  0.59544903  0.60513030  0.08339175  1
  Te  Te139  1  0.61212833  0.56437110  0.44192530  1
  Te  Te140  1  0.59066618  0.59115692  0.74997949  1
  Te  Te141  1  0.58908154  0.93123176  0.08043431  1
  Te  Te142  1  0.55824137  0.90778546  0.40861707  1
  Te  Te143  1  0.58422825  0.94236547  0.75135212  1
  Te  Te144  1  0.88599141  0.23778596  0.05778529  1
  Te  Te145  1  0.90378012  0.25388962  0.42117261  1
  Te  Te146  1  0.94109678  0.26343076  0.73844076  1
  Te  Te147  1  0.95027354  0.61616432  0.07850602  1
  Te  Te148  1  0.90908706  0.60121723  0.44383324  1
  Te  Te149  1  0.90941530  0.58927214  0.72284024  1
  Te  Te150  1  0.94067230  0.91901190  0.09101316  1
  Te  Te151  1  0.94178270  0.89157586  0.44847024  1
  Te  Te152  1  0.93196346  0.89648778  0.76602247  1
  Te  Te153  1  0.27215978  0.03255060  0.26362745  1
  Te  Te154  1  0.24588265  0.08553941  0.56402570  1
  Te  Te155  1  0.22982152  0.05147104  0.90769303  1
  Te  Te156  1  0.25493344  0.42400475  0.26104518  1
  Te  Te157  1  0.25045354  0.44863341  0.57784819  1
  Te  Te158  1  0.23363302  0.45692200  0.92707729  1
  Te  Te159  1  0.27854789  0.70664349  0.23288933  1
  Te  Te160  1  0.22228086  0.76720027  0.61002219  1
  Te  Te161  1  0.24771626  0.73995184  0.92729439  1
  Te  Te162  1  0.58799948  0.08545433  0.23624734  1
  Te  Te163  1  0.57674189  0.09191526  0.56275440  1
  Te  Te164  1  0.58924820  0.09734445  0.89391554  1
  Te  Te165  1  0.56368747  0.42156330  0.26028295  1
  Te  Te166  1  0.58619611  0.41408496  0.61333956  1
  Te  Te167  1  0.57096971  0.42332379  0.90706273  1
  Te  Te168  1  0.59918578  0.76137688  0.25732761  1
  Te  Te169  1  0.59468706  0.74752548  0.57485693  1
  Te  Te170  1  0.61168956  0.77575762  0.89537616  1
  Te  Te171  1  0.91469802  0.08736416  0.24116896  1
  Te  Te172  1  0.91707545  0.07813910  0.59257450  1
  Te  Te173  1  0.90251972  0.07107919  0.92738829  1
  Te  Te174  1  0.92200534  0.41376545  0.26099523  1
  Te  Te175  1  0.89188438  0.40362891  0.59604267  1
  Te  Te176  1  0.91867127  0.42245785  0.90460605  1
  Te  Te177  1  0.94620543  0.75013978  0.24019679  1
  Te  Te178  1  0.90346595  0.79448605  0.56914738  1
  Te  Te179  1  0.94567595  0.74257687  0.90370888  1
