# generated using pymatgen
data_In2Te3
_symmetry_space_group_name_H-M   'P 1'
_cell_length_a   18.79271662
_cell_length_b   18.80309461
_cell_length_c   18.79267173
_cell_angle_alpha   90.05224488
_cell_angle_beta   89.97573666
_cell_angle_gamma   89.98589458
_symmetry_Int_Tables_number   1
_chemical_formula_structural   In2Te3
_chemical_formula_sum   'In72 Te108'
_cell_volume   6640.59801298
_cell_formula_units_Z   36
loop_
 _symmetry_equiv_pos_site_id
 _symmetry_equiv_pos_as_xyz
  1  'x, y, z'
loop_
 _atom_site_type_symbol
 _atom_site_label
 _atom_site_symmetry_multiplicity
 _atom_site_fract_x
 _atom_site_fract_y
 _atom_site_fract_z
 _atom_site_occupancy
  In  In0  1  0.31856937  0.81861488  0.17564902  1
  In  In1  1  0.68625859  0.01413353  0.01990124  1
  In  In2  1  -0.00578977  0.34120991  0.34056999  1
  In  In3  1  0.70522950  0.31156109  -0.01576398  1
  In  In4  1  0.84044083  0.32416036  0.81822430  1
  In  In5  1  0.50331975  0.81193832  0.66824767  1
  In  In6  1  0.66966407  0.48394780  0.81860390  1
  In  In7  1  0.16869118  0.17162917  -0.01522295  1
  In  In8  1  0.67813100  0.82058396  0.83644760  1
  In  In9  1  0.31758041  0.17144014  0.82507040  1
  In  In10  1  0.32083247  0.16283639  0.18370118  1
  In  In11  1  -0.00008922  0.17938453  0.16092090  1
  In  In12  1  0.50868783  0.33027825  0.50654334  1
  In  In13  1  0.50591489  -0.00106340  0.50796199  1
  In  In14  1  0.31638330  0.01159630  0.65801441  1
  In  In15  1  0.67892238  0.32520048  0.64448429  1
  In  In16  1  -0.02723529  0.64704887  0.64346292  1
  In  In17  1  0.33715751  0.33565854  -0.00418118  1
  In  In18  1  0.49472739  0.17835618  0.35556958  1
  In  In19  1  0.17063772  -0.00157043  0.16808808  1
  In  In20  1  0.84737977  0.17211422  0.34828921  1
  In  In21  1  0.64791238  0.82022564  0.18770399  1
  In  In22  1  0.01020186  0.65894303  0.34753829  1
  In  In23  1  0.82536763  0.00742813  0.49397294  1
  In  In24  1  0.83649999  0.50788745  0.00587977  1
  In  In25  1  -0.01620369  0.66884546  0.01241239  1
  In  In26  1  0.67606220  0.02642327  0.66858724  1
  In  In27  1  0.16900913  0.65908739  0.82775685  1
  In  In28  1  0.00753244  0.83574237  0.83049181  1
  In  In29  1  0.16433010  0.65848690  0.17561425  1
  In  In30  1  0.82654171  -0.02984880  0.15290668  1
  In  In31  1  0.48596446  0.50513986  0.00981890  1
  In  In32  1  0.85894430  0.82740376  0.67232503  1
  In  In33  1  0.32056239  0.66827256  0.00623847  1
  In  In34  1  0.01049592  -0.00096470  0.33378450  1
  In  In35  1  0.50381749  -0.00833031  0.85296805  1
  In  In36  1  -0.01789649  0.48145030  0.50382200  1
  In  In37  1  -0.00116987  0.51216218  0.82836063  1
  In  In38  1  0.65116657  0.66795740  -0.01057568  1
  In  In39  1  0.01337709  0.01680556  0.66720792  1
  In  In40  1  0.81823131  0.82451144  0.32812244  1
  In  In41  1  0.67161269  0.50129964  0.20714840  1
  In  In42  1  0.29684055  0.33172410  0.33786901  1
  In  In43  1  0.17486283  0.48614282  0.67446425  1
  In  In44  1  0.17311405  0.67374772  0.48247584  1
  In  In45  1  0.48697278  0.67422148  0.19816152  1
  In  In46  1  0.51061398  0.51809204  0.34953054  1
  In  In47  1  0.33701314  0.48828433  0.84052185  1
  In  In48  1  0.13786997  0.01998769  0.83697910  1
  In  In49  1  0.67869000  0.16870119  0.18480143  1
  In  In50  1  0.35258632  0.83480146  0.83136581  1
  In  In51  1  0.83211419  0.17846066  0.64929264  1
  In  In52  1  0.14553247  0.32645542  0.82673360  1
  In  In53  1  0.51631449  0.18315610  0.66568065  1
  In  In54  1  0.83066391  0.63345647  0.15536671  1
  In  In55  1  0.13013632  0.30977992  0.51110761  1
  In  In56  1  0.00659743  0.84521900  0.16615011  1
  In  In57  1  0.49917680  0.14491025  0.01068596  1
  In  In58  1  0.48209481  0.51803462  0.66713310  1
  In  In59  1  0.86301033  0.33398279  0.17043032  1
  In  In60  1  0.51027998  0.36243989  0.16137641  1
  In  In61  1  0.17745265  0.83151868  0.64245205  1
  In  In62  1  0.33849281  -0.00479121  0.33380813  1
  In  In63  1  0.84084572  0.83085339  -0.00829238  1
  In  In64  1  0.50384446  -0.01223145  0.15879275  1
  In  In65  1  0.35898868  0.80683744  0.46525846  1
  In  In66  1  0.65516698  0.83119442  0.49050293  1
  In  In67  1  0.68021359  0.63261586  0.63320001  1
  In  In68  1  0.51479958  0.34472597  0.80852924  1
  In  In69  1  0.12801524  0.36191050  0.17231299  1
  In  In70  1  0.15373694  0.01328895  0.49835862  1
  In  In71  1  0.31523890  0.51214427  0.49237786  1
  Te  Te72  1  0.08205649  0.08256919  0.07630235  1
  Te  Te73  1  0.06403580  0.10439570  0.42192988  1
  Te  Te74  1  0.10307914  0.12047452  0.73111856  1
  Te  Te75  1  0.04235349  0.42076514  0.06984973  1
  Te  Te76  1  0.09495667  0.42683580  0.41819283  1
  Te  Te77  1  0.05557829  0.41190229  0.72858008  1
  Te  Te78  1  0.09088266  0.75565876  0.07645093  1
  Te  Te79  1  0.07730791  0.76762907  0.42148230  1
  Te  Te80  1  0.08285295  0.74401379  0.73051449  1
  Te  Te81  1  0.39305438  0.06773518  0.08823582  1
  Te  Te82  1  0.40283781  0.08842620  0.43718893  1
  Te  Te83  1  0.42787851  0.08034662  0.74978137  1
  Te  Te84  1  0.38839883  0.43385371  0.10227090  1
  Te  Te85  1  0.41232225  0.40995457  0.41422718  1
  Te  Te86  1  0.40101867  0.40180770  0.72856695  1
  Te  Te87  1  0.42414159  0.75106560  0.08405759  1
  Te  Te88  1  0.45135144  0.73913713  0.37264418  1
  Te  Te89  1  0.40874949  0.72969049  0.74518795  1
  Te  Te90  1  0.78898675  0.11544545  0.08551706  1
  Te  Te91  1  0.74152220  0.08226787  0.39911493  1
  Te  Te92  1  0.78122875  0.08360462  0.75288067  1
  Te  Te93  1  0.74164236  0.41936798  0.08962960  1
  Te  Te94  1  0.71450129  0.46319976  0.46296269  1
  Te  Te95  1  0.77377417  0.42673946  0.72573440  1
  Te  Te96  1  0.74951565  0.75172636  0.08603338  1
  Te  Te97  1  0.75516615  0.73833763  0.43069372  1
  Te  Te98  1  0.74516469  0.73998194  0.72706574  1
  Te  Te99  1  0.08828734  0.24690276  0.26400425  1
  Te  Te100  1  0.06015754  0.24179889  0.62416460  1
  Te  Te101  1  0.06031562  0.23832924  0.91027701  1
  Te  Te102  1  0.07952557  0.56620553  0.25606415  1
  Te  Te103  1  0.09616827  0.57880713  0.57794372  1
  Te  Te104  1  0.08588609  0.58463678  0.93035375  1
  Te  Te105  1  0.10601073  0.89972501  0.26729597  1
  Te  Te106  1  0.06662233  0.90869951  0.57319657  1
  Te  Te107  1  0.08017409  0.91952662  0.92773500  1
  Te  Te108  1  0.42253753  0.25896913  0.24352465  1
  Te  Te109  1  0.41322351  0.24666816  0.58389038  1
  Te  Te110  1  0.43243327  0.24929055  0.91185884  1
  Te  Te111  1  0.40399726  0.57027506  0.25979003  1
  Te  Te112  1  0.42115139  0.59370315  0.55603286  1
  Te  Te113  1  0.42134489  0.59573142  0.90888624  1
  Te  Te114  1  0.42538703  0.89899689  0.25448127  1
  Te  Te115  1  0.40813316  0.90925864  0.58859894  1
  Te  Te116  1  0.41579002  0.91297914  0.93960925  1
  Te  Te117  1  0.75932660  0.26895480  0.26444759  1
  Te  Te118  1  0.76500149  0.25935118  0.54136855  1
  Te  Te119  1  0.78256870  0.21048278  0.90194771  1
  Te  Te120  1  0.75226051  0.60265242  0.27736397  1
  Te  Te121  1  0.79282939  0.55125543  0.56363376  1
  Te  Te122  1  0.74774318  0.58388436  0.90664389  1
  Te  Te123  1  0.72699876  0.92958175  0.26036423  1
  Te  Te124  1  0.74940028  0.91355531  0.59204593  1
  Te  Te125  1  0.75659332  0.92789918  0.90964620  1
  Te  Te126  1  0.24226306  0.25756278  0.09113705  1
  Te  Te127  1  0.23564201  0.23767839  0.43217399  1
  Te  Te128  1  0.25699360  0.27560382  0.74258655  1
  Te  Te129  1  0.23774047  0.57163194  0.07871744  1
  Te  Te130  1  0.26202566  0.60262936  0.38402888  1
  Te  Te131  1  0.26966950  0.58504809  0.74011849  1
  Te  Te132  1  0.25145198  0.91072089  0.08221441  1
  Te  Te133  1  0.25522286  0.91281396  0.43127982  1
  Te  Te134  1  0.23480649  0.92182633  0.75278859  1
  Te  Te135  1  0.58658155  0.24918885  0.08383623  1
  Te  Te136  1  0.60352547  0.25088500  0.42324993  1
  Te  Te137  1  0.61930801  0.24522987  0.76148942  1
  Te  Te138  1  0.58705029  0.58093456  0.09947116  1
  Te  Te139  1  0.62489545  0.57515791  0.42749652  1
  Te  Te140  1  0.58677336  0.59195249  0.75131428  1
  Te  Te141  1  0.59201352  0.90160672  0.07012378  1
  Te  Te142  1  0.57165145  0.91742931  0.40459291  1
  Te  Te143  1  0.58694164  0.92044746  0.74002055  1
  Te  Te144  1  0.94006964  0.27219578  0.05976548  1
  Te  Te145  1  0.90524492  0.27405311  0.44181475  1
  Te  Te146  1  0.93908386  0.24927767  0.73103683  1
  Te  Te147  1  0.95343691  0.54441671  0.10733667  1
  Te  Te148  1  0.90698707  0.57987052  0.42072755  1
  Te  Te149  1  0.89771493  0.59451479  0.75876044  1
  Te  Te150  1  0.93837627  0.92874673  0.05632122  1
  Te  Te151  1  0.91251768  0.91158647  0.41191056  1
  Te  Te152  1  0.91900079  0.93899870  0.76006372  1
  Te  Te153  1  0.22973778  0.08793083  0.27815693  1
  Te  Te154  1  0.23274569  0.10636247  0.58425269  1
  Te  Te155  1  0.26150052  0.06884918  0.91910607  1
  Te  Te156  1  0.23475909  0.43020694  0.24813115  1
  Te  Te157  1  0.24427992  0.40200214  0.57000265  1
  Te  Te158  1  0.23074437  0.41712078  0.92213982  1
  Te  Te159  1  0.25150517  0.73062251  0.27612188  1
  Te  Te160  1  0.27670742  0.73738604  0.57710456  1
  Te  Te161  1  0.24191748  0.76122754  0.91285069  1
  Te  Te162  1  0.57026780  0.08735701  0.25331334  1
  Te  Te163  1  0.60075141  0.10519104  0.56377110  1
  Te  Te164  1  0.60335675  0.09077168  0.91293735  1
  Te  Te165  1  0.59119772  0.39851868  0.28397641  1
  Te  Te166  1  0.58857082  0.43452127  0.58801527  1
  Te  Te167  1  0.58313287  0.41552142  0.93095506  1
  Te  Te168  1  0.58856638  0.73213009  0.29454921  1
  Te  Te169  1  0.57372349  0.72446547  0.56618529  1
  Te  Te170  1  0.56738353  0.75796743  0.90931494  1
  Te  Te171  1  0.91200274  0.07267711  0.23972611  1
  Te  Te172  1  0.92954013  0.09289775  0.56392823  1
  Te  Te173  1  0.86467073  0.08680738  0.95721273  1
  Te  Te174  1  0.89883685  0.43270871  0.27334158  1
  Te  Te175  1  0.87735253  0.42237000  0.59033493  1
  Te  Te176  1  0.91773715  0.41436050  0.91524581  1
  Te  Te177  1  0.91353670  0.74553878  0.23306423  1
  Te  Te178  1  0.91233001  0.75091182  0.55794948  1
  Te  Te179  1  0.90954379  0.73552809  0.89512447  1
