# generated using pymatgen
data_In2Te3
_symmetry_space_group_name_H-M   'P 1'
_cell_length_a   19.01435847
_cell_length_b   18.98423539
_cell_length_c   19.01947753
_cell_angle_alpha   90.01090457
_cell_angle_beta   89.88324561
_cell_angle_gamma   90.06440389
_symmetry_Int_Tables_number   1
_chemical_formula_structural   In2Te3
_chemical_formula_sum   'In72 Te108'
_cell_volume   6865.50023468
_cell_formula_units_Z   36
loop_
 _symmetry_equiv_pos_site_id
 _symmetry_equiv_pos_as_xyz
  1  'x, y, z'
loop_
 _atom_site_type_symbol
 _atom_site_label
 _atom_site_symmetry_multiplicity
 _atom_site_fract_x
 _atom_site_fract_y
 _atom_site_fract_z
 _atom_site_occupancy
  In  In0  1  0.01192700  0.66194527  0.69488011  1
  In  In1  1  0.82270695  0.68677068  0.17016922  1
  In  In2  1  0.50572491  0.16082029  -0.02260380  1
  In  In3  1  0.67092367  0.31019547  -0.00887340  1
  In  In4  1  0.82389537  0.50684108  -0.00917264  1
  In  In5  1  0.33125070  0.51152104  0.82427633  1
  In  In6  1  0.34947125  0.81199253  0.21002318  1
  In  In7  1  0.35306669  0.81202002  0.46557978  1
  In  In8  1  0.32692468  0.20010874  0.16834967  1
  In  In9  1  0.47514210  0.16431161  0.66556214  1
  In  In10  1  0.16496017  -0.00283948  0.18837189  1
  In  In11  1  0.16351458  0.80907829  0.66266485  1
  In  In12  1  0.82801446  0.16728588  0.33612158  1
  In  In13  1  0.32217553  0.83316380  0.84029744  1
  In  In14  1  0.81535852  0.64661452  0.50078857  1
  In  In15  1  -0.01419559  0.18617376  0.18259390  1
  In  In16  1  0.64584817  -0.00986816  0.68530263  1
  In  In17  1  0.18012670  0.18148067  0.00675479  1
  In  In18  1  0.17061604  0.48131048  0.67994637  1
  In  In19  1  0.65629886  -0.02510294  0.33150857  1
  In  In20  1  0.01078729  0.84116431  0.17433791  1
  In  In21  1  0.34241983  0.46645672  0.19700830  1
  In  In22  1  0.03479606  0.48802227  0.15843064  1
  In  In23  1  -0.00626523  0.02589794  0.34006439  1
  In  In24  1  -0.00025575  0.01560942  0.69157569  1
  In  In25  1  0.52193126  0.51780671  0.64344924  1
  In  In26  1  0.84518209  0.85932311  0.66111393  1
  In  In27  1  0.49695864  0.82395174  0.00678285  1
  In  In28  1  0.15819907  0.60010239  0.48083404  1
  In  In29  1  0.68307790  0.16070306  0.84713258  1
  In  In30  1  0.49025248  0.34144639  0.82211638  1
  In  In31  1  -0.01641949  0.82189964  0.49285975  1
  In  In32  1  0.04798742  0.35153135  0.35227770  1
  In  In33  1  0.33638426  0.19220766  0.48850639  1
  In  In34  1  0.67179350  0.48579319  0.82424731  1
  In  In35  1  0.50006310  0.16478187  0.33011812  1
  In  In36  1  0.66968602  0.68544322  0.66786426  1
  In  In37  1  0.82287822  0.67421156  0.83384391  1
  In  In38  1  0.17115177  0.46820044  -0.00832666  1
  In  In39  1  0.79978269  0.84847488  -0.00443113  1
  In  In40  1  0.50746067  0.00481237  0.50862421  1
  In  In41  1  0.66597685  0.68318358  0.33657607  1
  In  In42  1  0.33820731  0.00766921  0.67926262  1
  In  In43  1  0.19413715  0.65640799  0.14292213  1
  In  In44  1  0.67414997  0.12733491  0.11272061  1
  In  In45  1  0.49611520  0.51405295  0.32898009  1
  In  In46  1  0.01816275  0.65423078  0.31747852  1
  In  In47  1  0.01566054  0.49487816  0.84840881  1
  In  In48  1  0.03625636  0.19180807  0.52632285  1
  In  In49  1  0.35130193  0.47561404  0.48267921  1
  In  In50  1  0.32453521  0.63070847  0.63564366  1
  In  In51  1  0.82915216  0.34675892  0.16384996  1
  In  In52  1  0.81883700  0.00634602  0.51256217  1
  In  In53  1  0.29805104  -0.00241976  0.00238952  1
  In  In54  1  0.68035417  0.33565964  0.66971865  1
  In  In55  1  -0.01003527  0.00685702  0.00347918  1
  In  In56  1  0.64471984  0.82367026  0.17266135  1
  In  In57  1  0.15361254  0.26278479  0.71887149  1
  In  In58  1  0.48360149  -0.00890227  0.15495059  1
  In  In59  1  0.54665592  0.52365785  0.14113307  1
  In  In60  1  0.00518959  0.16992367  0.84092516  1
  In  In61  1  0.14676830  0.82606643  -0.00862445  1
  In  In62  1  0.48023335  0.68452342  0.85227237  1
  In  In63  1  -0.01915617  0.63953449  -0.00776668  1
  In  In64  1  0.65801239  0.32666071  0.34656668  1
  In  In65  1  0.50131911  0.81069609  0.65286010  1
  In  In66  1  0.16633557  0.17444588  0.33264053  1
  In  In67  1  0.83423919  0.18133267  0.68049363  1
  In  In68  1  0.88280005  0.33074948  0.52012572  1
  In  In69  1  0.69124283  0.47984494  0.50209359  1
  In  In70  1  0.83831785  0.51603863  0.31866541  1
  In  In71  1  0.19430889  -0.02944153  0.51956853  1
  Te  Te72  1  0.07811371  0.08609305  0.10410295  1
  Te  Te73  1  0.10079117  0.08100439  0.43519528  1
  Te  Te74  1  0.10173055  0.11561498  0.73489091  1
  Te  Te75  1  0.06195292  0.38738168  0.05341590  1
  Te  Te76  1  0.11082542  0.47424544  0.40375579  1
  Te  Te77  1  0.07330488  0.39294076  0.75396889  1
  Te  Te78  1  0.06416811  0.72420684  0.09305922  1
  Te  Te79  1  0.08554085  0.73003215  0.43057060  1
  Te  Te80  1  0.07567428  0.76733104  0.77172849  1
  Te  Te81  1  0.40222177  0.09112543  0.07683932  1
  Te  Te82  1  0.41117969  0.07943257  0.41924658  1
  Te  Te83  1  0.41875420  0.08401185  0.77287293  1
  Te  Te84  1  0.44410659  0.43202215  0.09556804  1
  Te  Te85  1  0.44458463  0.39674450  0.40154884  1
  Te  Te86  1  0.42268534  0.43855695  0.72703497  1
  Te  Te87  1  0.39465573  0.74460832  0.08331365  1
  Te  Te88  1  0.43847562  0.75197330  0.36224285  1
  Te  Te89  1  0.39176317  0.73368673  0.73373952  1
  Te  Te90  1  0.77575010  0.07788371  0.01849685  1
  Te  Te91  1  0.73261025  0.08329940  0.41643324  1
  Te  Te92  1  0.76022614  0.07041791  0.74832739  1
  Te  Te93  1  0.73181420  0.42292113  0.07724252  1
  Te  Te94  1  0.78336147  0.40397488  0.40698073  1
  Te  Te95  1  0.77453320  0.40506587  0.75858392  1
  Te  Te96  1  0.72428482  0.73972937  0.07039331  1
  Te  Te97  1  0.76077728  0.75484014  0.42125296  1
  Te  Te98  1  0.75032209  0.77926468  0.75434286  1
  Te  Te99  1  0.10331983  0.26868097  0.23174751  1
  Te  Te100  1  0.13284423  0.29177153  0.57249468  1
  Te  Te101  1  0.06852018  0.25583092  0.94427502  1
  Te  Te102  1  0.12267460  0.56429123  0.25162542  1
  Te  Te103  1  0.05943838  0.55699207  0.59431884  1
  Te  Te104  1  0.10567859  0.58915237  0.92478199  1
  Te  Te105  1  0.08240787  0.91474585  0.28530500  1
  Te  Te106  1  0.06572411  0.91155351  0.58604238  1
  Te  Te107  1  0.09629050  0.94416465  0.92206715  1
  Te  Te108  1  0.42105743  0.26804307  0.25960948  1
  Te  Te109  1  0.39787770  0.26685559  0.59795071  1
  Te  Te110  1  0.40999341  0.25163657  0.90917742  1
  Te  Te111  1  0.38124016  0.59139243  0.27112257  1
  Te  Te112  1  0.43674568  0.59311519  0.54476642  1
  Te  Te113  1  0.42207113  0.57010114  0.92536801  1
  Te  Te114  1  0.42196843  0.92410528  0.26849125  1
  Te  Te115  1  0.40355912  0.90847127  0.58263542  1
  Te  Te116  1  0.40558103  0.92166464  0.92871359  1
  Te  Te117  1  0.74134022  0.24697491  0.24154543  1
  Te  Te118  1  0.76217361  0.25386911  0.56938800  1
  Te  Te119  1  0.76901233  0.27225108  0.88921589  1
  Te  Te120  1  0.73204787  0.58521007  0.23865090  1
  Te  Te121  1  0.74949830  0.56722130  0.61162201  1
  Te  Te122  1  0.72532416  0.59486437  0.91815785  1
  Te  Te123  1  0.74598794  0.90245022  0.24200122  1
  Te  Te124  1  0.72650617  0.91013590  0.58271424  1
  Te  Te125  1  0.72919933  0.96028648  0.93031727  1
  Te  Te126  1  0.27529812  0.28034198  0.05836348  1
  Te  Te127  1  0.25611044  0.27858560  0.39336522  1
  Te  Te128  1  0.27940797  0.27766686  0.79206368  1
  Te  Te129  1  0.26727450  0.54086498  0.08100468  1
  Te  Te130  1  0.28002186  0.57637136  0.39762757  1
  Te  Te131  1  0.23043511  0.59948967  0.75036208  1
  Te  Te132  1  0.23552519  0.89869790  0.09845865  1
  Te  Te133  1  0.25582171  0.90497779  0.40627608  1
  Te  Te134  1  0.23746918  0.91512232  0.74542784  1
  Te  Te135  1  0.57612152  0.23859559  0.08735667  1
  Te  Te136  1  0.58023279  0.23694967  0.43004213  1
  Te  Te137  1  0.59071829  0.24658513  0.75448896  1
  Te  Te138  1  0.51019291  0.64160177  0.06146563  1
  Te  Te139  1  0.60476882  0.57192519  0.42137511  1
  Te  Te140  1  0.57804655  0.59723291  0.76010742  1
  Te  Te141  1  0.59013959  0.92434352  0.07346309  1
  Te  Te142  1  0.57157827  0.90302366  0.42632984  1
  Te  Te143  1  0.55756860  0.89713382  0.75897372  1
  Te  Te144  1  0.88869217  0.23763714  0.08721739  1
  Te  Te145  1  0.94673361  0.24096187  0.40505189  1
  Te  Te146  1  0.94178646  0.25904798  0.73939387  1
  Te  Te147  1  0.91034153  0.57130570  0.11031520  1
  Te  Te148  1  0.92629266  0.58321306  0.41872525  1
  Te  Te149  1  0.91268686  0.57349054  0.76717059  1
  Te  Te150  1  0.90944051  0.90811178  0.08739689  1
  Te  Te151  1  0.90494724  0.92668924  0.41654343  1
  Te  Te152  1  0.92508335  0.91701584  0.76829239  1
  Te  Te153  1  0.26344208  0.08819993  0.25575949  1
  Te  Te154  1  0.26036328  0.09082942  0.57990964  1
  Te  Te155  1  0.23095162  0.08567293  0.90826055  1
  Te  Te156  1  0.25813357  0.36631642  0.26478973  1
  Te  Te157  1  0.25341047  0.41289969  0.57784099  1
  Te  Te158  1  0.24860906  0.39852316  0.88144212  1
  Te  Te159  1  0.22033091  0.75517001  0.24717119  1
  Te  Te160  1  0.24923211  0.73818025  0.56022377  1
  Te  Te161  1  0.24929112  0.74270946  0.92915330  1
  Te  Te162  1  0.59109755  0.08002668  0.23264684  1
  Te  Te163  1  0.59117793  0.09720691  0.59347238  1
  Te  Te164  1  0.59468182  0.06048559  0.91374847  1
  Te  Te165  1  0.59335792  0.42343584  0.25116363  1
  Te  Te166  1  0.58336071  0.39912077  0.57250901  1
  Te  Te167  1  0.58124196  0.41273542  0.92007814  1
  Te  Te168  1  0.55258750  0.73959980  0.25588221  1
  Te  Te169  1  0.58584230  0.73639197  0.56014242  1
  Te  Te170  1  0.58030272  0.78619556  0.88937116  1
  Te  Te171  1  0.89412566  0.07261801  0.23785598  1
  Te  Te172  1  0.92481792  0.09409413  0.57584583  1
  Te  Te173  1  0.90415789  0.08331370  0.90906178  1
  Te  Te174  1  0.93689815  0.41031737  0.25767427  1
  Te  Te175  1  0.95053460  0.44525246  0.57114186  1
  Te  Te176  1  0.92583534  0.41724101  0.93703859  1
  Te  Te177  1  0.91940857  0.75548507  0.26324993  1
  Te  Te178  1  0.91119884  0.73334318  0.59606387  1
  Te  Te179  1  0.90658309  0.75440546  0.93118788  1
