# generated using pymatgen
data_In2Te3
_symmetry_space_group_name_H-M   'P 1'
_cell_length_a   18.95236767
_cell_length_b   18.93562375
_cell_length_c   18.95156194
_cell_angle_alpha   89.91795581
_cell_angle_beta   90.15031052
_cell_angle_gamma   89.90957336
_symmetry_Int_Tables_number   1
_chemical_formula_structural   In2Te3
_chemical_formula_sum   'In72 Te108'
_cell_volume   6801.20107179
_cell_formula_units_Z   36
loop_
 _symmetry_equiv_pos_site_id
 _symmetry_equiv_pos_as_xyz
  1  'x, y, z'
loop_
 _atom_site_type_symbol
 _atom_site_label
 _atom_site_symmetry_multiplicity
 _atom_site_fract_x
 _atom_site_fract_y
 _atom_site_fract_z
 _atom_site_occupancy
  In  In0  1  0.48901255  0.13690746  0.32630190  1
  In  In1  1  0.50088387  0.64089547  0.18779131  1
  In  In2  1  0.32011375  0.31859852  0.68701080  1
  In  In3  1  0.50567505  0.19060507  0.68403794  1
  In  In4  1  0.51760715  0.16564909  -0.00993144  1
  In  In5  1  0.00766956  0.47520779  0.49264945  1
  In  In6  1  0.01394066  -0.01417427  0.33734686  1
  In  In7  1  -0.00203705  0.83666612  0.14898861  1
  In  In8  1  0.32927154  0.35959254  0.01253673  1
  In  In9  1  0.30951377  0.80292311  0.18938227  1
  In  In10  1  0.70257014  0.00637118  0.68274359  1
  In  In11  1  -0.00736349  0.51124515  0.14847508  1
  In  In12  1  0.48505057  0.34726385  0.51387222  1
  In  In13  1  0.67998592  0.84081608  0.83449813  1
  In  In14  1  0.15730827  0.00136318  0.49876706  1
  In  In15  1  0.85107169  0.50341295  -0.00310729  1
  In  In16  1  0.68293561  0.52555835  0.15825456  1
  In  In17  1  0.14589610  0.31618854  0.50009671  1
  In  In18  1  0.50262730  0.82119012  -0.00147568  1
  In  In19  1  0.33842856  -0.01832504  -0.01637539  1
  In  In20  1  0.32903706  0.18704832  0.15321341  1
  In  In21  1  0.80683009  0.62446308  0.53072151  1
  In  In22  1  0.71110357  0.80778123  0.12460050  1
  In  In23  1  0.51967171  0.67107408  0.80703322  1
  In  In24  1  0.51806746  0.33538194  0.85869321  1
  In  In25  1  0.67522681  0.20738474  0.51216917  1
  In  In26  1  0.82611030  0.83169058  0.34865631  1
  In  In27  1  0.49249504  0.76339543  0.32518710  1
  In  In28  1  0.33258191  0.61866247  0.02670739  1
  In  In29  1  0.53169715  0.81897810  0.64497412  1
  In  In30  1  0.00181998  0.66545309  -0.00449028  1
  In  In31  1  0.83434811  0.17682323  -0.00868826  1
  In  In32  1  0.31460736  0.15427797  0.82415548  1
  In  In33  1  -0.03259998  0.01187526  0.64155503  1
  In  In34  1  0.16095910  0.67084060  0.83276724  1
  In  In35  1  0.32780715  0.50916733  0.84380543  1
  In  In36  1  0.66183134  0.35366858  0.02117339  1
  In  In37  1  0.81401225  0.35769923  0.55313779  1
  In  In38  1  0.82550071  0.49673730  0.32079713  1
  In  In39  1  0.67020757  0.81010934  0.51216048  1
  In  In40  1  0.68056353  0.01305594  -0.04088115  1
  In  In41  1  0.12604722  0.00492422  0.12928008  1
  In  In42  1  0.81713323  0.67233042  0.86765005  1
  In  In43  1  0.33578269  0.49990793  0.50134745  1
  In  In44  1  -0.01271954  0.50521010  0.83016451  1
  In  In45  1  0.16025916  0.34283076  0.17159800  1
  In  In46  1  0.00586779  0.84766360  0.50736198  1
  In  In47  1  -0.01681489  0.30657490  0.00975780  1
  In  In48  1  0.35175015  0.82542709  0.84344859  1
  In  In49  1  0.52561920  0.00000444  0.16639238  1
  In  In50  1  0.31624356  -0.00982976  0.67103435  1
  In  In51  1  0.67615691  -0.00851098  0.34148876  1
  In  In52  1  0.33489201  0.36440146  0.33819560  1
  In  In53  1  0.66717587  0.33445086  0.33547127  1
  In  In54  1  0.83563134  0.83145952  0.66668399  1
  In  In55  1  0.01131110  0.65246386  0.32064765  1
  In  In56  1  0.17841305  0.15873917  0.33606878  1
  In  In57  1  0.13736240  0.18126809  0.65710486  1
  In  In58  1  0.14999656  0.48722646  0.69601927  1
  In  In59  1  0.17821272  0.67710941  0.49015865  1
  In  In60  1  0.51815958  0.01396235  0.49567191  1
  In  In61  1  0.00743466  0.66457926  0.67897564  1
  In  In62  1  0.14367161  0.01723872  0.84124797  1
  In  In63  1  0.50438468  0.50120332  0.65974553  1
  In  In64  1  0.15624655  0.83859702  -0.01288872  1
  In  In65  1  0.49817488  0.37454906  0.17066523  1
  In  In66  1  0.33762453  -0.02111921  0.31991461  1
  In  In67  1  0.71547794  0.18699815  0.79515233  1
  In  In68  1  0.00081346  0.31152385  0.34068822  1
  In  In69  1  0.83746905  0.17396723  0.34334715  1
  In  In70  1  0.84921070  0.01271827  0.13854524  1
  In  In71  1  0.31733927  0.82964027  0.51193105  1
  Te  Te72  1  0.04367536  0.10727784  0.06228410  1
  Te  Te73  1  0.06757029  0.10364352  0.42634357  1
  Te  Te74  1  0.05322429  0.09235429  0.74528779  1
  Te  Te75  1  0.07563254  0.41388952  0.06726058  1
  Te  Te76  1  0.10268870  0.41275790  0.38992101  1
  Te  Te77  1  0.05401738  0.39527002  0.75583223  1
  Te  Te78  1  0.09876440  0.74028071  0.08729291  1
  Te  Te79  1  0.07894942  0.75967171  0.40844273  1
  Te  Te80  1  0.06644200  0.76633395  0.77015293  1
  Te  Te81  1  0.42235571  0.07828085  0.08424014  1
  Te  Te82  1  0.39415311  0.07321319  0.42515546  1
  Te  Te83  1  0.41702310  0.07873931  0.74396756  1
  Te  Te84  1  0.43549872  0.44828592  0.06050019  1
  Te  Te85  1  0.44274431  0.44630971  0.40562572  1
  Te  Te86  1  0.41771882  0.40927831  0.75958330  1
  Te  Te87  1  0.40855531  0.74359673  0.08832510  1
  Te  Te88  1  0.40707647  0.72627839  0.44863417  1
  Te  Te89  1  0.41882950  0.75392977  0.72888311  1
  Te  Te90  1  0.73517420  0.09121343  0.07616227  1
  Te  Te91  1  0.74248662  0.09330110  0.43113321  1
  Te  Te92  1  0.80213833  0.06265278  0.77680400  1
  Te  Te93  1  0.77392039  0.42066016  0.09845887  1
  Te  Te94  1  0.74538126  0.42573152  0.42718754  1
  Te  Te95  1  0.80509098  0.38005837  0.70451345  1
  Te  Te96  1  0.78288050  0.71981622  0.03231864  1
  Te  Te97  1  0.75241051  0.72057786  0.42034143  1
  Te  Te98  1  0.74325757  0.74086827  0.74148622  1
  Te  Te99  1  0.08400113  0.23116496  0.24148646  1
  Te  Te100  1  0.03333817  0.26287965  0.58393738  1
  Te  Te101  1  0.04881595  0.19727766  0.93069242  1
  Te  Te102  1  0.09846328  0.58017175  0.22642934  1
  Te  Te103  1  0.08744347  0.57762307  0.58167152  1
  Te  Te104  1  0.09256863  0.56938015  0.92111179  1
  Te  Te105  1  0.09899671  0.90627785  0.24175408  1
  Te  Te106  1  0.09076431  0.92138879  0.60757318  1
  Te  Te107  1  0.06059348  0.93558220  0.93300736  1
  Te  Te108  1  0.41863370  0.25685396  0.25385316  1
  Te  Te109  1  0.40234431  0.24155275  0.58495297  1
  Te  Te110  1  0.40650704  0.24209841  0.91591005  1
  Te  Te111  1  0.36633810  0.59768127  0.23877474  1
  Te  Te112  1  0.40328472  0.58652548  0.59697614  1
  Te  Te113  1  0.42703129  0.60063654  0.91023371  1
  Te  Te114  1  0.44276837  0.90124582  0.24627854  1
  Te  Te115  1  0.42567163  0.92277099  0.58074572  1
  Te  Te116  1  0.45126752  0.92673130  0.90027483  1
  Te  Te117  1  0.75595233  0.25582480  0.25047026  1
  Te  Te118  1  0.78962272  0.21014982  0.60886440  1
  Te  Te119  1  0.74211798  0.27469755  0.92008136  1
  Te  Te120  1  0.75398070  0.60794573  0.25780897  1
  Te  Te121  1  0.70477544  0.55144098  0.60497338  1
  Te  Te122  1  0.74667374  0.54637697  0.90163966  1
  Te  Te123  1  0.75719413  0.91503857  0.23734317  1
  Te  Te124  1  0.75700330  0.92177859  0.57067516  1
  Te  Te125  1  0.77745364  0.90964603  0.92149267  1
  Te  Te126  1  0.22747227  0.25377294  0.06608365  1
  Te  Te127  1  0.26151361  0.25673803  0.41664425  1
  Te  Te128  1  0.21266874  0.25297000  0.77066115  1
  Te  Te129  1  0.24243363  0.55584292  0.12291329  1
  Te  Te130  1  0.23386783  0.56317081  0.41452684  1
  Te  Te131  1  0.25199862  0.59171318  0.74114672  1
  Te  Te132  1  0.25431985  0.91356757  0.08908366  1
  Te  Te133  1  0.23735581  0.90780398  0.40827535  1
  Te  Te134  1  0.24562271  0.91482655  0.78084220  1
  Te  Te135  1  0.57035663  0.25769124  0.09657832  1
  Te  Te136  1  0.55991426  0.24353326  0.41795473  1
  Te  Te137  1  0.60351769  0.28709482  0.74265322  1
  Te  Te138  1  0.58151587  0.59294845  0.07642516  1
  Te  Te139  1  0.53985266  0.65175843  0.41123316  1
  Te  Te140  1  0.60908462  0.57202823  0.74082765  1
  Te  Te141  1  0.60309109  0.91775436  0.06511926  1
  Te  Te142  1  0.58201588  0.89997711  0.41760552  1
  Te  Te143  1  0.59114038  0.92193172  0.74116374  1
  Te  Te144  1  0.88973394  0.24945560  0.10822172  1
  Te  Te145  1  0.88624337  0.28675944  0.43255039  1
  Te  Te146  1  0.85358082  0.24118985  0.74870984  1
  Te  Te147  1  0.89226894  0.62278311  0.09381245  1
  Te  Te148  1  0.92126759  0.57873606  0.42013931  1
  Te  Te149  1  0.89574069  0.59533993  0.75173879  1
  Te  Te150  1  0.89944072  0.90001308  0.05859012  1
  Te  Te151  1  0.90585615  0.93244732  0.42951216  1
  Te  Te152  1  0.90933158  0.92902502  0.75010928  1
  Te  Te153  1  0.25605270  0.07763705  0.23333461  1
  Te  Te154  1  0.24033250  0.09296261  0.58756344  1
  Te  Te155  1  0.24044349  0.08711871  0.93821153  1
  Te  Te156  1  0.27532409  0.42982044  0.21693697  1
  Te  Te157  1  0.23703732  0.40501652  0.59209158  1
  Te  Te158  1  0.23801253  0.41836515  0.91407719  1
  Te  Te159  1  0.27542108  0.70523240  0.29292301  1
  Te  Te160  1  0.22551765  0.76013988  0.60101738  1
  Te  Te161  1  0.26201193  0.73943611  0.93150510  1
  Te  Te162  1  0.61092417  0.09471844  0.24840741  1
  Te  Te163  1  0.59449176  0.09643644  0.59865768  1
  Te  Te164  1  0.59935137  0.11050310  0.87740579  1
  Te  Te165  1  0.59385141  0.44509638  0.26120342  1
  Te  Te166  1  0.59845429  0.42344807  0.57271478  1
  Te  Te167  1  0.59579980  0.44244160  0.92174048  1
  Te  Te168  1  0.60206470  0.75719045  0.21447022  1
  Te  Te169  1  0.58155878  0.70287099  0.56605881  1
  Te  Te170  1  0.59987869  0.73977860  0.91690195  1
  Te  Te171  1  0.92095982  0.07556565  0.25669938  1
  Te  Te172  1  0.95824310  0.12810477  0.55205319  1
  Te  Te173  1  0.94281126  0.08426965  0.94416510  1
  Te  Te174  1  0.93139956  0.41650384  0.24970703  1
  Te  Te175  1  0.92234840  0.44695915  0.61268277  1
  Te  Te176  1  0.91176414  0.39691962  0.90853545  1
  Te  Te177  1  0.92165662  0.75914168  0.25612036  1
  Te  Te178  1  0.91754175  0.74051027  0.57189918  1
  Te  Te179  1  0.94457500  0.74689343  0.88579513  1
