# generated using pymatgen
data_In2Te3
_symmetry_space_group_name_H-M   'P 1'
_cell_length_a   18.75140675
_cell_length_b   18.75478789
_cell_length_c   18.74824812
_cell_angle_alpha   90.07330218
_cell_angle_beta   89.96154455
_cell_angle_gamma   90.03662447
_symmetry_Int_Tables_number   1
_chemical_formula_structural   In2Te3
_chemical_formula_sum   'In72 Te108'
_cell_volume   6593.35048028
_cell_formula_units_Z   36
loop_
 _symmetry_equiv_pos_site_id
 _symmetry_equiv_pos_as_xyz
  1  'x, y, z'
loop_
 _atom_site_type_symbol
 _atom_site_label
 _atom_site_symmetry_multiplicity
 _atom_site_fract_x
 _atom_site_fract_y
 _atom_site_fract_z
 _atom_site_occupancy
  In  In0  1  0.52350812  0.81377907  -0.01898282  1
  In  In1  1  0.80124732  0.13031688  -0.01615098  1
  In  In2  1  0.00179979  0.49964216  0.17641035  1
  In  In3  1  0.50020133  0.32185363  0.82808352  1
  In  In4  1  0.81411393  0.01412113  0.82598589  1
  In  In5  1  -0.00210953  0.65836925  0.68929598  1
  In  In6  1  0.82398290  0.70281853  0.15122808  1
  In  In7  1  0.30890614  0.34951782  0.31817531  1
  In  In8  1  0.66300989  0.67112563  0.68579811  1
  In  In9  1  -0.00516865  0.84636838  0.83710482  1
  In  In10  1  0.82856886  0.00742740  0.52682814  1
  In  In11  1  0.00140289  0.64429286  0.33051453  1
  In  In12  1  0.33649018  0.17950346  0.15070042  1
  In  In13  1  0.34345665  0.68488790  0.33081746  1
  In  In14  1  -0.02284226  0.30454995  0.69154787  1
  In  In15  1  0.15523404  0.49880482  0.68357254  1
  In  In16  1  -0.00667259  0.47124959  0.52975444  1
  In  In17  1  0.33447241  0.32600271  -0.00924962  1
  In  In18  1  0.53543487  0.15055891  -0.03726198  1
  In  In19  1  0.51687215  0.10997865  0.67760919  1
  In  In20  1  -0.00271236  0.18284279  0.17927055  1
  In  In21  1  0.02215409  0.84455186  0.51260131  1
  In  In22  1  0.50601778  0.15690701  0.34803640  1
  In  In23  1  0.15054188  0.00891433  0.16598330  1
  In  In24  1  0.14187898  0.16878464  0.32512836  1
  In  In25  1  0.49851429  0.53687268  0.33719251  1
  In  In26  1  0.00862581  0.83028091  0.15042972  1
  In  In27  1  0.16746973  0.49850954  0.32539952  1
  In  In28  1  0.66925765  0.85678082  0.50514543  1
  In  In29  1  0.79709221  0.87121242  0.30365090  1
  In  In30  1  0.51050847  -0.00192697  0.16767144  1
  In  In31  1  0.80374795  0.65567497  0.51829653  1
  In  In32  1  0.17541736  0.66139519  0.85089114  1
  In  In33  1  0.01742198  0.66193171  -0.00274623  1
  In  In34  1  0.36458072  0.51864508  0.51002005  1
  In  In35  1  0.80203186  0.82762843  0.65976474  1
  In  In36  1  0.49556527  0.68634243  0.17427719  1
  In  In37  1  0.80761375  0.85170520  -0.00734660  1
  In  In38  1  0.67856292  0.33152698  0.65728252  1
  In  In39  1  0.67241721  0.32849096  0.35005446  1
  In  In40  1  0.34769704  -0.01396559  -0.03110908  1
  In  In41  1  0.81819471  0.15708238  0.35568388  1
  In  In42  1  0.33207435  0.31435605  0.67920427  1
  In  In43  1  0.52448134  0.34023215  0.50727241  1
  In  In44  1  0.33842041  0.49642949  0.83529276  1
  In  In45  1  0.82071084  0.66000032  0.81090162  1
  In  In46  1  0.80145376  0.48266054  0.35164629  1
  In  In47  1  0.83286405  0.48926893  -0.01815853  1
  In  In48  1  0.18642874  0.69797633  0.51748093  1
  In  In49  1  0.34806967  0.00773321  0.35621189  1
  In  In50  1  0.50687209  0.32869508  0.13600939  1
  In  In51  1  0.67906286  0.29217936  -0.01697949  1
  In  In52  1  0.18304010  0.52046888  0.00389802  1
  In  In53  1  0.15826876  0.14736926  0.70072007  1
  In  In54  1  0.18730039  -0.01504512  0.51468841  1
  In  In55  1  0.66478372  0.50222182  0.83343071  1
  In  In56  1  -0.01244476  0.00490691  0.33246496  1
  In  In57  1  0.82733874  0.32670352  0.16419862  1
  In  In58  1  0.63831033  0.67072155  0.33746842  1
  In  In59  1  -0.00145837  0.32566797  -0.02634809  1
  In  In60  1  -0.01967872  -0.02100251  -0.02879066  1
  In  In61  1  -0.03393933  0.17343344  0.51398211  1
  In  In62  1  0.20258908  0.86148295  0.67760220  1
  In  In63  1  0.64694459  0.51148470  0.17286022  1
  In  In64  1  0.16555130  0.83667072  -0.03303870  1
  In  In65  1  0.48868910  0.52753255  -0.01807971  1
  In  In66  1  0.36209916  0.14523178  0.49480115  1
  In  In67  1  0.50930589  0.65549187  0.50769470  1
  In  In68  1  0.17117090  0.16300812  -0.01790038  1
  In  In69  1  0.16601079  0.33716562  0.49814194  1
  In  In70  1  0.34006766  0.83747197  0.16764697  1
  In  In71  1  0.37151444  0.85674819  0.52059276  1
  Te  Te72  1  0.06246309  0.08399084  0.06901226  1
  Te  Te73  1  0.08409091  0.07449508  0.43097540  1
  Te  Te74  1  0.06794161  0.05019759  0.76322504  1
  Te  Te75  1  0.07364353  0.42575761  0.06568128  1
  Te  Te76  1  0.06938096  0.41317239  0.40850374  1
  Te  Te77  1  0.08055811  0.39372831  0.75269179  1
  Te  Te78  1  0.11541825  0.74529117  0.08018381  1
  Te  Te79  1  0.08583075  0.74739445  0.41298229  1
  Te  Te80  1  0.09560376  0.76052410  0.74752669  1
  Te  Te81  1  0.42138418  0.08306153  0.06979995  1
  Te  Te82  1  0.46756409  0.03825805  0.45224926  1
  Te  Te83  1  0.39739676  0.07057290  0.75569031  1
  Te  Te84  1  0.41147049  0.42837732  0.07528766  1
  Te  Te85  1  0.41730783  0.41068527  0.41268797  1
  Te  Te86  1  0.42878008  0.42065337  0.73710041  1
  Te  Te87  1  0.40880575  0.74985245  0.06504091  1
  Te  Te88  1  0.44129286  0.76070282  0.41974930  1
  Te  Te89  1  0.47752506  0.79554599  0.74041958  1
  Te  Te90  1  0.72703558  0.04020073  0.07653114  1
  Te  Te91  1  0.73575391  0.04585631  0.41486353  1
  Te  Te92  1  0.71644216  0.10765236  0.75749821  1
  Te  Te93  1  0.73317183  0.41830124  0.08347963  1
  Te  Te94  1  0.75742670  0.38796771  0.46150880  1
  Te  Te95  1  0.75138531  0.40071811  0.77008763  1
  Te  Te96  1  0.71605237  0.77043396  0.07807401  1
  Te  Te97  1  0.75110757  0.75581978  0.41493622  1
  Te  Te98  1  0.72640554  0.77857645  0.78273195  1
  Te  Te99  1  0.09104350  0.27818600  0.24170663  1
  Te  Te100  1  0.09041604  0.23885110  0.58641500  1
  Te  Te101  1  0.08722077  0.24263742  0.88722918  1
  Te  Te102  1  0.10448934  0.60110102  0.22725288  1
  Te  Te103  1  0.08591113  0.59134165  0.57145260  1
  Te  Te104  1  0.06976975  0.56264254  0.89649006  1
  Te  Te105  1  0.08493139  0.91012236  0.26074117  1
  Te  Te106  1  0.07861104  0.94185034  0.61524305  1
  Te  Te107  1  0.10743831  0.95174965  0.87898363  1
  Te  Te108  1  0.42401103  0.25171921  0.25469680  1
  Te  Te109  1  0.43413857  0.24019096  0.59176499  1
  Te  Te110  1  0.41285706  0.22479048  0.90699148  1
  Te  Te111  1  0.39684686  0.57897241  0.23005861  1
  Te  Te112  1  0.42881352  0.59620375  0.61675755  1
  Te  Te113  1  0.40106132  0.61514208  0.89979261  1
  Te  Te114  1  0.42964741  0.91258873  0.26509063  1
  Te  Te115  1  0.42597630  0.93054577  0.64228984  1
  Te  Te116  1  0.45454499  0.91595436  0.89051093  1
  Te  Te117  1  0.73626284  0.23657947  0.24572842  1
  Te  Te118  1  0.74262542  0.25067882  0.54985415  1
  Te  Te119  1  0.77765129  0.24422064  0.88008445  1
  Te  Te120  1  0.75425949  0.59179302  0.24875774  1
  Te  Te121  1  0.74704130  0.56647278  0.61943451  1
  Te  Te122  1  0.74182757  0.59864118  0.92774376  1
  Te  Te123  1  0.72186070  0.95949342  0.21211613  1
  Te  Te124  1  0.71368969  0.95169711  0.62760531  1
  Te  Te125  1  0.71286044  0.93257968  0.90606581  1
  Te  Te126  1  0.22917635  0.26273194  0.08541193  1
  Te  Te127  1  0.25767972  0.23840420  0.41955733  1
  Te  Te128  1  0.24102498  0.24878593  0.77507201  1
  Te  Te129  1  0.27842458  0.57003826  0.10261510  1
  Te  Te130  1  0.25393131  0.58491149  0.42361788  1
  Te  Te131  1  0.25847764  0.59263232  0.74086184  1
  Te  Te132  1  0.24541411  0.92959316  0.07576602  1
  Te  Te133  1  0.25998806  0.89613655  0.41689769  1
  Te  Te134  1  0.29383454  0.95151013  0.75289397  1
  Te  Te135  1  0.59674056  0.21604337  0.08951359  1
  Te  Te136  1  0.60632429  0.22409418  0.44797031  1
  Te  Te137  1  0.58842019  0.23303913  0.74418711  1
  Te  Te138  1  0.58421779  0.60539643  0.07340640  1
  Te  Te139  1  0.60986343  0.55921861  0.43795212  1
  Te  Te140  1  0.56268075  0.59773557  0.77701508  1
  Te  Te141  1  0.58737420  0.92740908  0.05970184  1
  Te  Te142  1  0.59241306  0.94564846  0.41545127  1
  Te  Te143  1  0.54730253  0.92325480  0.74666555  1
  Te  Te144  1  0.90267218  0.23718366  0.06612356  1
  Te  Te145  1  0.92579546  0.25031868  0.39596914  1
  Te  Te146  1  0.88059472  0.21454536  0.76065798  1
  Te  Te147  1  0.90820728  0.58795509  0.08725527  1
  Te  Te148  1  0.90814487  0.57464162  0.43125079  1
  Te  Te149  1  0.90631560  0.55838850  0.74539509  1
  Te  Te150  1  0.90345626  0.92285031  0.09062072  1
  Te  Te151  1  0.91128060  0.91202605  0.42859385  1
  Te  Te152  1  0.90019284  0.91566128  0.74179384  1
  Te  Te153  1  0.26107140  0.08177941  0.24905375  1
  Te  Te154  1  0.26197414  0.08915663  0.59529073  1
  Te  Te155  1  0.26123150  0.08203267  0.89384593  1
  Te  Te156  1  0.24770278  0.43709507  0.21360309  1
  Te  Te157  1  0.25860349  0.42232822  0.58455930  1
  Te  Te158  1  0.23721932  0.41104046  0.90947374  1
  Te  Te159  1  0.24563819  0.76440545  0.25479102  1
  Te  Te160  1  0.29207214  0.75622108  0.60794933  1
  Te  Te161  1  0.27202584  0.76554321  0.89290949  1
  Te  Te162  1  0.59908379  0.07602721  0.26172180  1
  Te  Te163  1  0.61070740  0.05744453  0.57636765  1
  Te  Te164  1  0.62077382  0.06602768  0.87029685  1
  Te  Te165  1  0.57256638  0.41044243  0.26004853  1
  Te  Te166  1  0.57874755  0.43242426  0.60791055  1
  Te  Te167  1  0.57770851  0.40381398  0.93148610  1
  Te  Te168  1  0.59214219  0.77431063  0.24430825  1
  Te  Te169  1  0.58452770  0.76402427  0.59003429  1
  Te  Te170  1  0.57464040  0.72878341  0.86678288  1
  Te  Te171  1  0.89920947  0.08227820  0.23850329  1
  Te  Te172  1  0.89141549  0.10511783  0.62289955  1
  Te  Te173  1  0.92856235  0.09725638  0.89186502  1
  Te  Te174  1  0.90683542  0.41362086  0.26093966  1
  Te  Te175  1  0.89555820  0.38220752  0.59316109  1
  Te  Te176  1  0.90629604  0.40507626  0.88633075  1
  Te  Te177  1  0.91946754  0.75637806  0.25948739  1
  Te  Te178  1  0.91652787  0.75073879  0.58722065  1
  Te  Te179  1  0.91362081  0.74711537  0.92195753  1
