# generated using pymatgen
data_In2Te3
_symmetry_space_group_name_H-M   'P 1'
_cell_length_a   18.91510361
_cell_length_b   18.95551334
_cell_length_c   18.93359980
_cell_angle_alpha   90.07268567
_cell_angle_beta   90.02290606
_cell_angle_gamma   90.10535480
_symmetry_Int_Tables_number   1
_chemical_formula_structural   In2Te3
_chemical_formula_sum   'In72 Te108'
_cell_volume   6788.53949957
_cell_formula_units_Z   36
loop_
 _symmetry_equiv_pos_site_id
 _symmetry_equiv_pos_as_xyz
  1  'x, y, z'
loop_
 _atom_site_type_symbol
 _atom_site_label
 _atom_site_symmetry_multiplicity
 _atom_site_fract_x
 _atom_site_fract_y
 _atom_site_fract_z
 _atom_site_occupancy
  In  In0  1  0.49300425  0.83698863  0.32618342  1
  In  In1  1  0.35895270  0.33465287  0.64449778  1
  In  In2  1  0.50726388  -0.00151871  0.85181497  1
  In  In3  1  0.82691184  0.13864619  0.01174373  1
  In  In4  1  0.83114145  0.66398510  0.81217469  1
  In  In5  1  0.17721900  0.49039870  0.00058221  1
  In  In6  1  -0.01223799  0.49055016  0.18708062  1
  In  In7  1  0.68413737  0.66947569  0.36216218  1
  In  In8  1  0.35216640  0.32907433  0.34289766  1
  In  In9  1  0.80817016  0.33274677  0.50035270  1
  In  In10  1  0.30998811  0.81711367  0.52853918  1
  In  In11  1  -0.00907345  0.50802659  0.81948819  1
  In  In12  1  -0.00663122  0.84682835  0.15278076  1
  In  In13  1  0.50364108  0.66150671  0.15492147  1
  In  In14  1  0.00056423  0.17019177  0.84134964  1
  In  In15  1  -0.02416422  0.01132604  0.33857204  1
  In  In16  1  0.64282606  -0.00239937  0.64997778  1
  In  In17  1  0.32292481  0.51966634  0.78789014  1
  In  In18  1  0.81704218  0.68380906  0.16354744  1
  In  In19  1  0.16684949  0.18464916  0.32121227  1
  In  In20  1  0.30500264  0.67474975  0.34406956  1
  In  In21  1  0.82573539  0.16208100  0.32577840  1
  In  In22  1  0.65784051  0.01580159  0.01244822  1
  In  In23  1  0.02408834  0.49772225  0.51048916  1
  In  In24  1  0.50650190  0.49323146  0.00194136  1
  In  In25  1  -0.02295934  0.14260678  0.51196647  1
  In  In26  1  0.66525350  0.50579784  0.82528656  1
  In  In27  1  0.30466325  0.16497995  0.16200751  1
  In  In28  1  0.82113337  0.33086641  0.84695461  1
  In  In29  1  0.17675943  -0.00176358  0.51924177  1
  In  In30  1  0.15599067  0.32660539  0.84287049  1
  In  In31  1  0.52079863  0.48682464  0.34723703  1
  In  In32  1  0.49600070  0.67667887  0.79338080  1
  In  In33  1  0.34736595  0.86826566  0.16778091  1
  In  In34  1  -0.00398475  0.66053636  0.30742242  1
  In  In35  1  0.83227807  0.49163089  0.34982109  1
  In  In36  1  0.55288886  0.65339523  0.57793085  1
  In  In37  1  0.67751919  0.85827723  0.17285427  1
  In  In38  1  0.51583159  0.00102360  0.48149852  1
  In  In39  1  0.16256117  0.83897247  -0.03280239  1
  In  In40  1  0.47960771  0.32839946  0.83540195  1
  In  In41  1  0.37923720  0.47259536  0.18094118  1
  In  In42  1  0.32754006  0.67856524  -0.03279367  1
  In  In43  1  0.82686394  -0.01456763  0.49565390  1
  In  In44  1  0.14054318  0.85098593  0.34313681  1
  In  In45  1  0.00596158  0.00757704  0.00885222  1
  In  In46  1  -0.02514518  0.33561248  0.67252985  1
  In  In47  1  0.52971591  0.16232674  0.33501238  1
  In  In48  1  0.65923717  0.16695841  0.84728022  1
  In  In49  1  0.19582828  0.67422811  0.13083440  1
  In  In50  1  0.14763639  0.81704082  0.67002138  1
  In  In51  1  0.53999687  0.31499807  0.15246867  1
  In  In52  1  0.77739412  0.68689049  0.57093927  1
  In  In53  1  0.83072023  0.48464616  -0.00028806  1
  In  In54  1  0.17661240  0.34123688  0.49827688  1
  In  In55  1  0.16265531  -0.01212763  0.84352091  1
  In  In56  1  0.33310205  0.14256861  0.83672391  1
  In  In57  1  0.15724788  0.33093243  0.18914545  1
  In  In58  1  0.66126428  0.82398085  0.82919001  1
  In  In59  1  0.67697955  0.34762098  0.67472230  1
  In  In60  1  0.50417802  0.84183616  -0.02410431  1
  In  In61  1  0.18245464  0.16433065  0.64980599  1
  In  In62  1  0.82721103  -0.04374715  0.80729822  1
  In  In63  1  -0.01800002  0.65989100  -0.03582141  1
  In  In64  1  0.52941764  0.32914884  0.49954607  1
  In  In65  1  0.17545306  0.68391277  0.51997397  1
  In  In66  1  0.16338310  0.51605124  0.36209427  1
  In  In67  1  0.36367437  -0.01381360  0.66551245  1
  In  In68  1  -0.00491978  -0.02730620  0.67365412  1
  In  In69  1  0.32613654  0.00947604  0.00620821  1
  In  In70  1  0.66911262  0.00491308  0.32974635  1
  In  In71  1  0.81756369  0.30942089  0.15701432  1
  Te  Te72  1  0.12180780  0.07902610  0.05725651  1
  Te  Te73  1  0.09149457  0.08636380  0.42899110  1
  Te  Te74  1  0.08810960  0.08368474  0.73901211  1
  Te  Te75  1  0.07752971  0.41783104  0.08865363  1
  Te  Te76  1  0.07530316  0.40023754  0.40156481  1
  Te  Te77  1  0.08397072  0.41463020  0.74207017  1
  Te  Te78  1  0.07807797  0.74376720  0.06614547  1
  Te  Te79  1  0.07723709  0.73509849  0.41752687  1
  Te  Te80  1  0.09766686  0.75534230  0.79173970  1
  Te  Te81  1  0.41118641  0.09066203  0.09176097  1
  Te  Te82  1  0.42457267  0.07613712  0.39239716  1
  Te  Te83  1  0.44206271  0.08818153  0.74647369  1
  Te  Te84  1  0.42408410  0.38499854  0.06895778  1
  Te  Te85  1  0.41919676  0.42459926  0.43850988  1
  Te  Te86  1  0.43475217  0.43250164  0.73270536  1
  Te  Te87  1  0.40468139  0.75771674  0.07704309  1
  Te  Te88  1  0.40534567  0.75650126  0.42198081  1
  Te  Te89  1  0.42488931  0.79639007  0.74753750  1
  Te  Te90  1  0.73410593  0.08851350  0.11761160  1
  Te  Te91  1  0.74196959  0.09183273  0.43215419  1
  Te  Te92  1  0.72683634  0.06305904  0.76077393  1
  Te  Te93  1  0.74280639  0.42218265  0.09720404  1
  Te  Te94  1  0.72172930  0.42036064  0.41699707  1
  Te  Te95  1  0.77727184  0.43706417  0.74915132  1
  Te  Te96  1  0.73298507  0.76349944  0.07562883  1
  Te  Te97  1  0.78683723  0.74437315  0.43316211  1
  Te  Te98  1  0.72833477  0.73630607  0.72802575  1
  Te  Te99  1  0.05782673  0.22922575  0.23159026  1
  Te  Te100  1  0.07271319  0.24916220  0.58558450  1
  Te  Te101  1  0.07237112  0.25297460  0.93855168  1
  Te  Te102  1  0.10973592  0.58898670  0.23286195  1
  Te  Te103  1  0.09885145  0.58757169  0.60421167  1
  Te  Te104  1  0.09680353  0.57862199  0.90616952  1
  Te  Te105  1  0.07520623  0.93933516  0.24133212  1
  Te  Te106  1  0.07259520  0.89748975  0.56606133  1
  Te  Te107  1  0.04786685  0.90516123  0.89487289  1
  Te  Te108  1  0.43204258  0.24979681  0.24522057  1
  Te  Te109  1  0.44128500  0.23751627  0.57373228  1
  Te  Te110  1  0.39973636  0.24075733  0.92229662  1
  Te  Te111  1  0.41092012  0.59910627  0.26181520  1
  Te  Te112  1  0.41737220  0.60607820  0.60832673  1
  Te  Te113  1  0.42298146  0.58170489  0.89877456  1
  Te  Te114  1  0.42236226  0.95101290  0.26363951  1
  Te  Te115  1  0.43549123  0.90046601  0.56542096  1
  Te  Te116  1  0.39062712  0.91571852  0.90621900  1
  Te  Te117  1  0.72846931  0.25721208  0.26582110  1
  Te  Te118  1  0.74440921  0.24360552  0.59700770  1
  Te  Te119  1  0.73426730  0.25583129  0.94813079  1
  Te  Te120  1  0.75224321  0.58332298  0.25668583  1
  Te  Te121  1  0.69943502  0.55939424  0.57832706  1
  Te  Te122  1  0.75222242  0.58599924  0.92031131  1
  Te  Te123  1  0.77195898  0.92353328  0.26323720  1
  Te  Te124  1  0.74113431  0.90379639  0.58793720  1
  Te  Te125  1  0.73474478  0.91793369  0.92266619  1
  Te  Te126  1  0.24740116  0.27728060  0.08788756  1
  Te  Te127  1  0.26420907  0.24036379  0.42813731  1
  Te  Te128  1  0.25847770  0.24950044  0.74960955  1
  Te  Te129  1  0.28845331  0.56412714  0.07953687  1
  Te  Te130  1  0.26496158  0.57910578  0.45564442  1
  Te  Te131  1  0.23228731  0.60375634  0.70796317  1
  Te  Te132  1  0.23153843  0.91544964  0.07985988  1
  Te  Te133  1  0.25461657  0.91326664  0.42015496  1
  Te  Te134  1  0.24045601  0.92238089  0.73053979  1
  Te  Te135  1  0.61245425  0.24439428  0.04721134  1
  Te  Te136  1  0.61329059  0.27517436  0.38804750  1
  Te  Te137  1  0.58155981  0.25312406  0.75101592  1
  Te  Te138  1  0.59684225  0.57718567  0.08106032  1
  Te  Te139  1  0.56288965  0.60735080  0.42753511  1
  Te  Te140  1  0.59158673  0.58685327  0.72127944  1
  Te  Te141  1  0.56311237  0.92268480  0.08746980  1
  Te  Te142  1  0.60229260  0.89626750  0.41309690  1
  Te  Te143  1  0.56095271  0.90203431  0.74614396  1
  Te  Te144  1  0.91524684  0.23913000  0.07072439  1
  Te  Te145  1  0.91117809  0.24393090  0.42441495  1
  Te  Te146  1  0.89387512  0.23602811  0.75309873  1
  Te  Te147  1  0.92114425  0.58670835  0.08987625  1
  Te  Te148  1  0.93187894  0.58213094  0.42031800  1
  Te  Te149  1  0.93211767  0.60295142  0.72039556  1
  Te  Te150  1  0.90204538  0.93181951  0.07750972  1
  Te  Te151  1  0.93329193  0.90666544  0.43165283  1
  Te  Te152  1  0.90241001  0.86097675  0.71584048  1
  Te  Te153  1  0.23916058  0.07556477  0.25719751  1
  Te  Te154  1  0.28796866  0.08540621  0.57576871  1
  Te  Te155  1  0.21384235  0.10054057  0.93584124  1
  Te  Te156  1  0.26011256  0.43207837  0.26878483  1
  Te  Te157  1  0.24816999  0.41884539  0.59837466  1
  Te  Te158  1  0.26181451  0.42437496  0.89336127  1
  Te  Te159  1  0.24059856  0.77020756  0.24411219  1
  Te  Te160  1  0.32449624  0.72151045  0.65331508  1
  Te  Te161  1  0.23293737  0.74391263  0.87285585  1
  Te  Te162  1  0.60619194  0.09273095  0.22734371  1
  Te  Te163  1  0.58030405  0.10200077  0.56852630  1
  Te  Te164  1  0.55611016  0.10953607  0.94577044  1
  Te  Te165  1  0.58262644  0.43811263  0.22459276  1
  Te  Te166  1  0.60241089  0.43618544  0.57710602  1
  Te  Te167  1  0.59058766  0.40616550  0.91026897  1
  Te  Te168  1  0.58928053  0.74539480  0.24981475  1
  Te  Te169  1  0.64441122  0.77162168  0.58937854  1
  Te  Te170  1  0.58061643  0.72805580  0.91505225  1
  Te  Te171  1  0.93142248  0.10743311  0.23592151  1
  Te  Te172  1  0.89459084  0.06804368  0.61221200  1
  Te  Te173  1  0.89962600  0.06777325  0.89259256  1
  Te  Te174  1  0.90518749  0.39275980  0.26128042  1
  Te  Te175  1  0.90615030  0.42898932  0.57706285  1
  Te  Te176  1  0.93195815  0.40725954  0.91817985  1
  Te  Te177  1  0.90756427  0.76888609  0.25239135  1
  Te  Te178  1  0.91165732  0.73679795  0.62190593  1
  Te  Te179  1  0.89181865  0.75841063  0.90867791  1
