# generated using pymatgen
data_In2Te3
_symmetry_space_group_name_H-M   'P 1'
_cell_length_a   19.00704880
_cell_length_b   18.96631368
_cell_length_c   18.99827114
_cell_angle_alpha   89.88971812
_cell_angle_beta   89.79494227
_cell_angle_gamma   90.13903610
_symmetry_Int_Tables_number   1
_chemical_formula_structural   In2Te3
_chemical_formula_sum   'In72 Te108'
_cell_volume   6848.67927562
_cell_formula_units_Z   36
loop_
 _symmetry_equiv_pos_site_id
 _symmetry_equiv_pos_as_xyz
  1  'x, y, z'
loop_
 _atom_site_type_symbol
 _atom_site_label
 _atom_site_symmetry_multiplicity
 _atom_site_fract_x
 _atom_site_fract_y
 _atom_site_fract_z
 _atom_site_occupancy
  In  In0  1  0.18522814  0.01225459  0.17903788  1
  In  In1  1  0.14771818  0.17709555  -0.00298614  1
  In  In2  1  0.67754528  0.84368078  0.85361233  1
  In  In3  1  0.32602441  0.15803068  0.49226353  1
  In  In4  1  0.19755344  0.33720969  0.47806976  1
  In  In5  1  0.49340554  0.33327193  0.50542336  1
  In  In6  1  0.69843899  0.49141137  0.84524163  1
  In  In7  1  0.00674357  0.50117946  0.16412398  1
  In  In8  1  0.50728948  0.51941443  0.65416313  1
  In  In9  1  0.00128370  0.68652648  -0.02044265  1
  In  In10  1  0.67861561  0.31060826  0.01794909  1
  In  In11  1  0.68403944  0.16332706  0.50697827  1
  In  In12  1  0.34170119  0.83990478  0.82499743  1
  In  In13  1  0.02050130  0.66446701  0.34885303  1
  In  In14  1  0.30789175  0.16263831  0.82128822  1
  In  In15  1  0.85897523  -0.02014140  0.09821893  1
  In  In16  1  0.67841605  0.84571964  0.49201370  1
  In  In17  1  0.87340892  0.33493980  0.81067337  1
  In  In18  1  0.64265314  0.01872549  0.31417342  1
  In  In19  1  0.50239048  0.70357889  0.48566778  1
  In  In20  1  0.83714932  0.83315531  0.34367358  1
  In  In21  1  0.16459565  0.15614854  0.65896755  1
  In  In22  1  0.83846498  0.66789517  0.18033533  1
  In  In23  1  0.50145581  0.66624889  0.16414926  1
  In  In24  1  0.69155299  0.29650100  0.66984125  1
  In  In25  1  0.17770017  0.68477446  0.81517362  1
  In  In26  1  0.14694045  0.33705780  0.18214054  1
  In  In27  1  0.50743437  0.01831606  0.83241606  1
  In  In28  1  0.47020194  -0.02784647  0.53654064  1
  In  In29  1  -0.02007449  0.52325675  0.78456157  1
  In  In30  1  0.68331638  0.65979917  -0.01337508  1
  In  In31  1  0.46377221  0.84334119  0.33265616  1
  In  In32  1  0.49726831  0.17179680  0.01862784  1
  In  In33  1  0.33057639  0.50130140  0.14467992  1
  In  In34  1  0.12711133  0.33069528  0.84380067  1
  In  In35  1  0.02873062  0.00190894  0.33666177  1
  In  In36  1  0.34269306  0.50070154  0.49535242  1
  In  In37  1  0.33179404  0.68161923  0.34699996  1
  In  In38  1  0.65586379  0.15613260  0.84630969  1
  In  In39  1  0.32931780  0.84006382  0.16538572  1
  In  In40  1  0.68400317  0.47723090  0.49047780  1
  In  In41  1  0.51248579  0.51841495  0.00653345  1
  In  In42  1  0.51882855  0.48345213  0.32932495  1
  In  In43  1  0.16785484  0.82942345  0.66119955  1
  In  In44  1  0.34797632  0.33085556  0.00869715  1
  In  In45  1  0.16136887  -0.01887959  0.49512489  1
  In  In46  1  -0.01248164  0.58381200  0.55990379  1
  In  In47  1  0.46593041  0.66933821  0.82180432  1
  In  In48  1  0.48153594  0.15640148  0.64278145  1
  In  In49  1  0.84875754  0.15575559  0.33252840  1
  In  In50  1  -0.00537816  0.81420541  0.52135891  1
  In  In51  1  0.85940782  0.02682927  0.53392206  1
  In  In52  1  0.65228899  0.31620552  0.34119389  1
  In  In53  1  0.84002126  -0.00119873  0.84178248  1
  In  In54  1  0.35590878  0.16068531  0.19472112  1
  In  In55  1  0.02103874  0.35008674  0.64530864  1
  In  In56  1  0.49068192  0.35642491  0.81984416  1
  In  In57  1  0.66704795  0.66887074  0.67744187  1
  In  In58  1  0.00088363  0.31394812  0.34668155  1
  In  In59  1  0.67908471  -0.02733722  0.68255420  1
  In  In60  1  0.00767138  0.83453762  0.83335670  1
  In  In61  1  0.65225539  0.82471220  0.15868407  1
  In  In62  1  0.68231616  0.65293777  0.32993160  1
  In  In63  1  -0.02711939  0.16425544  0.16859572  1
  In  In64  1  0.12924275  0.00713865  0.84630179  1
  In  In65  1  0.17779023  0.49269024  0.32426872  1
  In  In66  1  0.16879019  0.51075236  0.00198214  1
  In  In67  1  0.15846865  0.83684804  -0.02163937  1
  In  In68  1  0.82113414  0.16084739  0.00593258  1
  In  In69  1  0.50331226  0.84648560  0.00575636  1
  In  In70  1  0.30202628  0.51667475  0.81296074  1
  In  In71  1  0.81697417  0.33196605  0.17424431  1
  Te  Te72  1  0.07736392  0.08496647  0.09421865  1
  Te  Te73  1  0.08182990  0.09142243  0.43813444  1
  Te  Te74  1  0.06143639  0.08265425  0.73854229  1
  Te  Te75  1  0.07774982  0.40734752  0.06729670  1
  Te  Te76  1  0.08342183  0.41952302  0.41657747  1
  Te  Te77  1  0.09818438  0.43867733  0.74209968  1
  Te  Te78  1  0.08082999  0.76045121  0.07997684  1
  Te  Te79  1  0.10992755  0.76968165  0.42905034  1
  Te  Te80  1  0.06356836  0.72910045  0.72368355  1
  Te  Te81  1  0.38534614  0.09325073  0.06860938  1
  Te  Te82  1  0.39812644  0.04331365  0.43249393  1
  Te  Te83  1  0.39993274  0.07342935  0.74047066  1
  Te  Te84  1  0.44253005  0.41250404  0.09362459  1
  Te  Te85  1  0.41168023  0.40376019  0.40018771  1
  Te  Te86  1  0.40177265  0.43560190  0.72896646  1
  Te  Te87  1  0.41221244  0.74520646  0.07568810  1
  Te  Te88  1  0.38181991  0.78931977  0.44883354  1
  Te  Te89  1  0.40075124  0.75331345  0.71694879  1
  Te  Te90  1  0.74759532  0.07223486  0.09639437  1
  Te  Te91  1  0.75314243  0.05936935  0.42044179  1
  Te  Te92  1  0.74811802  0.08901504  0.74786460  1
  Te  Te93  1  0.76329778  0.41784874  0.06797137  1
  Te  Te94  1  0.76335380  0.38080354  0.41616864  1
  Te  Te95  1  0.76480895  0.41172077  0.73573634  1
  Te  Te96  1  0.75824876  0.75310426  0.08033374  1
  Te  Te97  1  0.76131476  0.73413035  0.43040309  1
  Te  Te98  1  0.74900546  0.76078945  0.75684297  1
  Te  Te99  1  0.08179860  0.22319852  0.25707975  1
  Te  Te100  1  0.10082183  0.25128148  0.56127527  1
  Te  Te101  1  0.04448300  0.22276203  0.90113576  1
  Te  Te102  1  0.10071020  0.59132786  0.23998620  1
  Te  Te103  1  0.11734326  0.62721662  0.62076120  1
  Te  Te104  1  0.09008334  0.58682395  0.89658310  1
  Te  Te105  1  0.08689651  0.91500411  0.23443262  1
  Te  Te106  1  0.06447669  0.92254676  0.59952470  1
  Te  Te107  1  0.04026183  0.93710284  0.95084661  1
  Te  Te108  1  0.46476033  0.23592609  0.25578824  1
  Te  Te109  1  0.38987585  0.26221376  0.59070211  1
  Te  Te110  1  0.41513739  0.24240370  0.89760213  1
  Te  Te111  1  0.41595597  0.58223598  0.25864811  1
  Te  Te112  1  0.41849745  0.60862741  0.57206418  1
  Te  Te113  1  0.40197227  0.57018426  0.91799375  1
  Te  Te114  1  0.42149721  0.93754895  0.22884572  1
  Te  Te115  1  0.41568493  0.89090194  0.64279507  1
  Te  Te116  1  0.41444453  0.93265549  0.91895187  1
  Te  Te117  1  0.74370842  0.22511282  0.25306977  1
  Te  Te118  1  0.77863458  0.26435482  0.55650483  1
  Te  Te119  1  0.75451109  0.26059988  0.89357152  1
  Te  Te120  1  0.77249598  0.56364703  0.26099528  1
  Te  Te121  1  0.73759954  0.57028860  0.59179948  1
  Te  Te122  1  0.78448884  0.59397284  0.90241099  1
  Te  Te123  1  0.73193722  0.90399590  0.26108712  1
  Te  Te124  1  0.77831518  0.90871699  0.58798727  1
  Te  Te125  1  0.75875360  0.92616168  0.94357081  1
  Te  Te126  1  0.24084202  0.25734991  0.08725808  1
  Te  Te127  1  0.26043908  0.23880244  0.38781488  1
  Te  Te128  1  0.22723014  0.26473191  0.74839781  1
  Te  Te129  1  0.24425291  0.60154723  0.08675496  1
  Te  Te130  1  0.23999597  0.58759175  0.42397073  1
  Te  Te131  1  0.25024216  0.60884467  0.70763947  1
  Te  Te132  1  0.24506672  0.92155282  0.06878501  1
  Te  Te133  1  0.19085556  0.89213598  0.37768223  1
  Te  Te134  1  0.22709047  0.91908527  0.76726966  1
  Te  Te135  1  0.58782753  0.24041563  0.11233245  1
  Te  Te136  1  0.56705217  0.22311910  0.43290925  1
  Te  Te137  1  0.56579073  0.24148403  0.74661877  1
  Te  Te138  1  0.61077413  0.58447731  0.10058167  1
  Te  Te139  1  0.57876905  0.57977190  0.43162066  1
  Te  Te140  1  0.58122167  0.57237957  0.77613783  1
  Te  Te141  1  0.55400117  0.92719688  0.11892473  1
  Te  Te142  1  0.57274211  0.92272803  0.41529257  1
  Te  Te143  1  0.57120172  0.90088687  0.76126433  1
  Te  Te144  1  0.91114490  0.26297388  0.07429974  1
  Te  Te145  1  0.93179768  0.21750951  0.43496129  1
  Te  Te146  1  0.93084650  0.24421028  0.70726896  1
  Te  Te147  1  0.92513290  0.59439243  0.07954259  1
  Te  Te148  1  0.92681149  0.58292662  0.42322896  1
  Te  Te149  1  0.88827854  0.58857952  0.68773105  1
  Te  Te150  1  0.95448442  0.87536612  0.06590601  1
  Te  Te151  1  0.92491079  0.92277443  0.42952578  1
  Te  Te152  1  0.91082031  0.90687975  0.75196921  1
  Te  Te153  1  0.25893846  0.08997810  0.28072888  1
  Te  Te154  1  0.25575276  0.05987848  0.58663716  1
  Te  Te155  1  0.23812473  0.07833549  0.92462820  1
  Te  Te156  1  0.26868162  0.40338397  0.24303701  1
  Te  Te157  1  0.25132910  0.42612439  0.58115700  1
  Te  Te158  1  0.25388322  0.40712556  0.91670467  1
  Te  Te159  1  0.24585760  0.76225598  0.25985183  1
  Te  Te160  1  0.22552893  0.78719474  0.53253688  1
  Te  Te161  1  0.26621860  0.74647699  0.91912225  1
  Te  Te162  1  0.55589848  0.11453477  0.24361005  1
  Te  Te163  1  0.59249411  0.06466210  0.59142541  1
  Te  Te164  1  0.59065815  0.06871414  0.94851454  1
  Te  Te165  1  0.61419050  0.41830598  0.24232183  1
  Te  Te166  1  0.59027741  0.40169806  0.60023962  1
  Te  Te167  1  0.58509420  0.40880599  0.92569644  1
  Te  Te168  1  0.57043187  0.74755079  0.27478106  1
  Te  Te169  1  0.58996702  0.76857644  0.58874835  1
  Te  Te170  1  0.56771023  0.73583419  0.92096841  1
  Te  Te171  1  0.90558377  0.04498109  0.23862350  1
  Te  Te172  1  0.93293120  0.10580011  0.63196379  1
  Te  Te173  1  0.91903742  0.10417310  0.91139829  1
  Te  Te174  1  0.92688516  0.40564323  0.25130583  1
  Te  Te175  1  0.92692170  0.44671428  0.58579772  1
  Te  Te176  1  0.93368325  0.43750529  0.89435931  1
  Te  Te177  1  0.93430113  0.75468594  0.25983703  1
  Te  Te178  1  0.90826997  0.71400324  0.58950251  1
  Te  Te179  1  0.90341517  0.74357667  0.88612837  1
