# generated using pymatgen
data_In2Te3
_symmetry_space_group_name_H-M   'P 1'
_cell_length_a   18.77333961
_cell_length_b   18.75616150
_cell_length_c   18.76489725
_cell_angle_alpha   90.00483711
_cell_angle_beta   89.91289723
_cell_angle_gamma   90.04706402
_symmetry_Int_Tables_number   1
_chemical_formula_structural   In2Te3
_chemical_formula_sum   'In72 Te108'
_cell_volume   6607.40672274
_cell_formula_units_Z   36
loop_
 _symmetry_equiv_pos_site_id
 _symmetry_equiv_pos_as_xyz
  1  'x, y, z'
loop_
 _atom_site_type_symbol
 _atom_site_label
 _atom_site_symmetry_multiplicity
 _atom_site_fract_x
 _atom_site_fract_y
 _atom_site_fract_z
 _atom_site_occupancy
  In  In0  1  0.67787244  0.17761510  0.49569940  1
  In  In1  1  0.67430531  0.68810951  0.65761238  1
  In  In2  1  0.17457442  0.33157458  0.17524144  1
  In  In3  1  0.49093323  0.51817813  0.64488470  1
  In  In4  1  -0.00328532  0.49275864  0.82357299  1
  In  In5  1  0.32481392  0.00390240  0.01090217  1
  In  In6  1  -0.00824702  0.03408607  0.64688910  1
  In  In7  1  0.01514983  0.15257561  0.84099557  1
  In  In8  1  -0.00724249  0.82782837  0.88926601  1
  In  In9  1  0.65477666  0.48573050  0.85797682  1
  In  In10  1  0.67439074  0.66292758  0.01295249  1
  In  In11  1  0.50630615  0.16790152  0.02958270  1
  In  In12  1  0.85252720  0.33535330  0.48922105  1
  In  In13  1  0.18595138  0.31198386  0.48660600  1
  In  In14  1  0.45964372  0.68168864  0.16158622  1
  In  In15  1  0.31052311  0.15558113  0.85099348  1
  In  In16  1  0.83341143  0.17665861  0.32513311  1
  In  In17  1  0.83172109  0.31662947  0.85132267  1
  In  In18  1  0.68383933  0.01678758  0.03119686  1
  In  In19  1  0.33229994  0.49250161  0.18683298  1
  In  In20  1  0.68132667  0.31945203  0.31249054  1
  In  In21  1  0.48123951  0.17807209  0.29690758  1
  In  In22  1  0.69317373  0.15357416  0.84912326  1
  In  In23  1  0.00731677  0.00365030  0.00080791  1
  In  In24  1  0.15236671  0.32089409  0.82981454  1
  In  In25  1  0.01184068  0.64301651  0.66633314  1
  In  In26  1  0.31437460  0.84636067  0.84100188  1
  In  In27  1  -0.02281338  0.49851809  0.15713117  1
  In  In28  1  0.34536242  0.66188881  0.66122495  1
  In  In29  1  0.32322496  0.33673315  0.01835667  1
  In  In30  1  0.85068281  0.29157685  0.15533085  1
  In  In31  1  0.67789777  0.34641401  0.65915370  1
  In  In32  1  0.17615872  0.69207908  0.17090753  1
  In  In33  1  0.46628952  0.01024895  0.83034449  1
  In  In34  1  0.45971722  0.34743229  0.46510447  1
  In  In35  1  0.64872047  0.01207616  0.31741720  1
  In  In36  1  0.66844448  0.84986550  0.16730672  1
  In  In37  1  0.85566822  0.00170118  0.84518043  1
  In  In38  1  0.68003576  -0.00593058  0.66254919  1
  In  In39  1  0.50967309  0.35487205  0.85516218  1
  In  In40  1  0.30524079  0.33294864  0.65612996  1
  In  In41  1  0.32842005  0.00118732  0.32428667  1
  In  In42  1  0.00747009  0.28783886  0.33863517  1
  In  In43  1  0.02118074  0.83416146  0.48129551  1
  In  In44  1  0.33849125  0.82978771  0.48358519  1
  In  In45  1  0.82382517  0.67361785  0.50308366  1
  In  In46  1  0.82920779  0.83752183  0.34336075  1
  In  In47  1  0.01712619  0.02964641  0.34409481  1
  In  In48  1  0.01684262  0.48257781  0.51005560  1
  In  In49  1  0.82227017  0.63830502  0.15955933  1
  In  In50  1  0.49033870  -0.01555442  0.49401931  1
  In  In51  1  0.19177429  0.67994010  0.83594031  1
  In  In52  1  0.01447519  0.67301339  0.32638766  1
  In  In53  1  0.15738158  0.49131451  0.00416735  1
  In  In54  1  0.48842106  0.48462871  -0.01584379  1
  In  In55  1  0.00166971  0.84001890  0.13962028  1
  In  In56  1  0.48810303  0.85017557  0.31562951  1
  In  In57  1  0.82311724  0.50075321  0.33131584  1
  In  In58  1  0.19072432  0.82675979  0.32311936  1
  In  In59  1  0.65510422  0.49011698  0.18601445  1
  In  In60  1  0.16347397  0.84559126  0.67583891  1
  In  In61  1  0.66721516  0.83119141  0.83857383  1
  In  In62  1  0.83210728  0.85098151  0.66844509  1
  In  In63  1  0.00846023  0.31994017  0.65345593  1
  In  In64  1  0.83853018  0.49896139  0.00122454  1
  In  In65  1  0.49642150  0.18705868  0.67225844  1
  In  In66  1  0.20262249  0.50398938  0.33143245  1
  In  In67  1  0.35092675  0.52574021  0.82845179  1
  In  In68  1  0.16885463  0.00507514  0.16849868  1
  In  In69  1  0.51644730  0.67685199  0.85341424  1
  In  In70  1  0.63090912  0.53320586  0.48259080  1
  In  In71  1  0.49583290  0.83197657  0.63855775  1
  Te  Te72  1  0.07074207  0.09757231  0.10043754  1
  Te  Te73  1  0.11148018  0.10430567  0.43312367  1
  Te  Te74  1  0.09614459  0.07750626  0.74170367  1
  Te  Te75  1  0.06774677  0.39778383  0.08461520  1
  Te  Te76  1  0.08702782  0.40870304  0.39544607  1
  Te  Te77  1  0.09520528  0.42036830  0.73001732  1
  Te  Te78  1  0.09386710  0.75275769  0.06424677  1
  Te  Te79  1  0.11691419  0.73046661  0.42129960  1
  Te  Te80  1  0.07603407  0.75252273  0.76369892  1
  Te  Te81  1  0.40538449  0.09019453  0.10438581  1
  Te  Te82  1  0.42185233  0.08910145  0.41101255  1
  Te  Te83  1  0.39092025  0.09196506  0.72826700  1
  Te  Te84  1  0.43075919  0.40346231  0.10442732  1
  Te  Te85  1  0.36261776  0.44422265  0.40440053  1
  Te  Te86  1  0.41750058  0.41431915  0.74060471  1
  Te  Te87  1  0.38215976  0.74367609  0.05435314  1
  Te  Te88  1  0.43821102  0.74637488  0.41292463  1
  Te  Te89  1  0.42102032  0.75462947  0.75976326  1
  Te  Te90  1  0.77191512  0.11307090  0.09993126  1
  Te  Te91  1  0.75219661  0.07671582  0.41156765  1
  Te  Te92  1  0.77539110  0.08279712  0.74136388  1
  Te  Te93  1  0.77318717  0.41931629  0.11451442  1
  Te  Te94  1  0.73549948  0.41504986  0.42970544  1
  Te  Te95  1  0.75917527  0.42073741  0.76430885  1
  Te  Te96  1  0.76535851  0.76090411  0.08561386  1
  Te  Te97  1  0.73475344  0.74422475  0.40964400  1
  Te  Te98  1  0.76945568  0.74681306  0.76233906  1
  Te  Te99  1  0.08813632  0.22149567  0.23405651  1
  Te  Te100  1  0.09960703  0.22590681  0.57967110  1
  Te  Te101  1  0.09013034  0.24066421  0.93504822  1
  Te  Te102  1  0.08683284  0.56988438  0.23872691  1
  Te  Te103  1  0.10483045  0.58610344  0.56745014  1
  Te  Te104  1  0.09044719  0.58428643  0.90505519  1
  Te  Te105  1  0.07353344  0.90525508  0.26061467  1
  Te  Te106  1  0.08992974  0.93326529  0.57424072  1
  Te  Te107  1  0.10053064  0.92529894  0.91535331  1
  Te  Te108  1  0.40268824  0.28081563  0.22602414  1
  Te  Te109  1  0.40123624  0.24928656  0.56978443  1
  Te  Te110  1  0.41525531  0.24595965  0.91783931  1
  Te  Te111  1  0.43823152  0.57163208  0.26419729  1
  Te  Te112  1  0.39943863  0.58195501  0.54506982  1
  Te  Te113  1  0.40705082  0.60987880  0.94297894  1
  Te  Te114  1  0.40341594  0.92512492  0.21989191  1
  Te  Te115  1  0.38893065  0.93005582  0.59412157  1
  Te  Te116  1  0.42229762  0.90831045  0.93073588  1
  Te  Te117  1  0.72186370  0.20818785  0.21459741  1
  Te  Te118  1  0.77176939  0.24634989  0.59340011  1
  Te  Te119  1  0.74090233  0.25141670  0.95018847  1
  Te  Te120  1  0.72428215  0.59917960  0.27219543  1
  Te  Te121  1  0.74162054  0.57183316  0.58353577  1
  Te  Te122  1  0.75728973  0.58968102  0.90845252  1
  Te  Te123  1  0.76459775  0.93737474  0.24704863  1
  Te  Te124  1  0.74229654  0.90373636  0.56448965  1
  Te  Te125  1  0.75319065  0.92297498  0.92554097  1
  Te  Te126  1  0.24837503  0.23307104  0.08997877  1
  Te  Te127  1  0.24243800  0.20419660  0.39708230  1
  Te  Te128  1  0.23216814  0.22750245  0.73897658  1
  Te  Te129  1  0.24809480  0.57564793  0.09221914  1
  Te  Te130  1  0.28529919  0.58248232  0.42563971  1
  Te  Te131  1  0.24249266  0.57464707  0.73497314  1
  Te  Te132  1  0.25362570  0.90580587  0.10007869  1
  Te  Te133  1  0.23835126  0.92951499  0.42533214  1
  Te  Te134  1  0.24329036  0.94289072  0.75471727  1
  Te  Te135  1  0.58829149  0.27729434  0.08148170  1
  Te  Te136  1  0.57331755  0.24675308  0.40968085  1
  Te  Te137  1  0.60036539  0.25525262  0.76212545  1
  Te  Te138  1  0.57329629  0.57468196  0.08502660  1
  Te  Te139  1  0.53279206  0.58995976  0.39047952  1
  Te  Te140  1  0.58337477  0.57894782  0.75442278  1
  Te  Te141  1  0.57530418  0.93262011  0.08695837  1
  Te  Te142  1  0.59380137  0.90785267  0.41550564  1
  Te  Te143  1  0.57507146  0.91823160  0.74924580  1
  Te  Te144  1  0.93101892  0.20273157  0.06884330  1
  Te  Te145  1  0.93274376  0.20864524  0.45187056  1
  Te  Te146  1  0.92365705  0.24145417  0.75362985  1
  Te  Te147  1  0.93914692  0.61151108  0.05535192  1
  Te  Te148  1  0.92371155  0.58166725  0.41480317  1
  Te  Te149  1  0.90609172  0.58239682  0.74816439  1
  Te  Te150  1  0.90367935  0.92733865  0.07467561  1
  Te  Te151  1  0.92045713  0.93139743  0.42210953  1
  Te  Te152  1  0.94117579  0.91606545  0.75284373  1
  Te  Te153  1  0.24003797  0.10336063  0.25753306  1
  Te  Te154  1  0.22959408  0.13602215  0.53236922  1
  Te  Te155  1  0.21873981  0.06628848  0.92530230  1
  Te  Te156  1  0.28511345  0.36780346  0.28296091  1
  Te  Te157  1  0.24255363  0.42747664  0.56146811  1
  Te  Te158  1  0.26050266  0.41994492  0.90479351  1
  Te  Te159  1  0.28823027  0.73853637  0.25486837  1
  Te  Te160  1  0.25082205  0.75524705  0.58680025  1
  Te  Te161  1  0.25722193  0.75582614  0.94867719  1
  Te  Te162  1  0.55770862  0.07571394  0.21865395  1
  Te  Te163  1  0.57829147  0.08787486  0.58485405  1
  Te  Te164  1  0.57646426  0.07754009  0.91428420  1
  Te  Te165  1  0.56862725  0.40580836  0.27237486  1
  Te  Te166  1  0.56647534  0.40479009  0.57153967  1
  Te  Te167  1  0.61348152  0.38636064  0.97198870  1
  Te  Te168  1  0.57586760  0.74976494  0.23508389  1
  Te  Te169  1  0.57022693  0.73054602  0.56263457  1
  Te  Te170  1  0.58313910  0.77123809  0.95197637  1
  Te  Te171  1  0.92152331  0.08670739  0.24753125  1
  Te  Te172  1  0.89642114  0.09864861  0.55810753  1
  Te  Te173  1  0.89833643  0.11196584  0.94250870  1
  Te  Te174  1  0.91360167  0.39691794  0.26276642  1
  Te  Te175  1  0.90789634  0.42551703  0.59991036  1
  Te  Te176  1  0.93275666  0.40146661  0.92936934  1
  Te  Te177  1  0.90935673  0.74115760  0.24199730  1
  Te  Te178  1  0.92911533  0.75733105  0.57942795  1
  Te  Te179  1  0.90565516  0.72858548  0.94932700  1
