# generated using pymatgen
data_In2Te3
_symmetry_space_group_name_H-M   'P 1'
_cell_length_a   18.81530759
_cell_length_b   18.80441969
_cell_length_c   18.81643801
_cell_angle_alpha   89.95791726
_cell_angle_beta   89.96999924
_cell_angle_gamma   90.02476772
_symmetry_Int_Tables_number   1
_chemical_formula_structural   In2Te3
_chemical_formula_sum   'In72 Te108'
_cell_volume   6657.45829318
_cell_formula_units_Z   36
loop_
 _symmetry_equiv_pos_site_id
 _symmetry_equiv_pos_as_xyz
  1  'x, y, z'
loop_
 _atom_site_type_symbol
 _atom_site_label
 _atom_site_symmetry_multiplicity
 _atom_site_fract_x
 _atom_site_fract_y
 _atom_site_fract_z
 _atom_site_occupancy
  In  In0  1  0.66384414  0.33435433  0.67021024  1
  In  In1  1  -0.01787453  0.64206765  0.34844880  1
  In  In2  1  -0.03977225  0.47578952  0.51499444  1
  In  In3  1  0.66292942  0.80337928  0.15649086  1
  In  In4  1  0.33003185  0.65604709  0.32862530  1
  In  In5  1  -0.00074606  0.82558031  0.17030182  1
  In  In6  1  0.52726269  0.48249441  -0.00239612  1
  In  In7  1  0.33726785  0.69043822  0.00575967  1
  In  In8  1  0.21246336  0.84307631  0.66687358  1
  In  In9  1  0.33315326  0.83943881  0.49264080  1
  In  In10  1  0.83975601  0.18028892  0.00410308  1
  In  In11  1  0.34552507  0.48052728  0.83495386  1
  In  In12  1  0.52067597  0.45885367  0.31613656  1
  In  In13  1  0.82691586  0.80596203  0.32065333  1
  In  In14  1  0.66945248  0.01779300  -0.02452336  1
  In  In15  1  0.65710539  0.00317621  0.66910801  1
  In  In16  1  0.81263427  0.17274879  0.33334279  1
  In  In17  1  0.00303057  0.82561608  0.83520210  1
  In  In18  1  0.49120860  0.84745335  0.00609096  1
  In  In19  1  0.66943807  0.64548079  0.01913217  1
  In  In20  1  0.36463371  0.02502379  0.70190854  1
  In  In21  1  0.34776183  0.34455106  0.67570379  1
  In  In22  1  -0.00513802  0.00403295  -0.01769847  1
  In  In23  1  0.14629771  0.33107879  0.83527357  1
  In  In24  1  0.49182668  0.65026058  0.49962501  1
  In  In25  1  0.48563611  0.01359526  0.15731267  1
  In  In26  1  -0.00040596  0.16566830  0.50123949  1
  In  In27  1  0.16401724  0.17602424  -0.01200531  1
  In  In28  1  0.53653156  0.30100010  0.49920453  1
  In  In29  1  0.37026008  0.32075483  -0.01317944  1
  In  In30  1  0.80526476  0.01495281  0.47199550  1
  In  In31  1  0.34649515  0.01428385  0.32890565  1
  In  In32  1  0.82698914  0.65575561  0.83985874  1
  In  In33  1  0.67345098  0.84599388  0.83165854  1
  In  In34  1  0.00821192  0.01715983  0.69218001  1
  In  In35  1  -0.01409764  0.18529271  0.14597299  1
  In  In36  1  0.02089697  0.00574328  0.37277567  1
  In  In37  1  -0.00689420  0.65212684  0.68423326  1
  In  In38  1  0.65384699  0.17458725  0.84699956  1
  In  In39  1  0.81684122  0.47986916  0.01492915  1
  In  In40  1  0.33485622  0.46491188  0.15878643  1
  In  In41  1  0.33896403  0.01544155  -0.00906419  1
  In  In42  1  0.50261470  0.66694536  0.83262261  1
  In  In43  1  0.85192946  0.01371236  0.16672487  1
  In  In44  1  -0.01683226  0.33192539  0.32292610  1
  In  In45  1  0.34981652  0.49146141  0.50766353  1
  In  In46  1  0.81035609  0.17227566  0.66163938  1
  In  In47  1  0.17849781  0.66441112  0.84885606  1
  In  In48  1  0.14379927  0.51314402  -0.00295661  1
  In  In49  1  0.16396025  0.16663445  0.67421749  1
  In  In50  1  0.63933494  0.20500041  0.14968789  1
  In  In51  1  0.83549824  0.32561799  0.81258031  1
  In  In52  1  0.68140391  0.63446117  0.30145684  1
  In  In53  1  0.50018976  0.82633815  0.69106017  1
  In  In54  1  0.64805215  0.62999887  0.65455627  1
  In  In55  1  0.68213870  0.46058951  0.48756770  1
  In  In56  1  0.17607884  0.46954314  0.32000945  1
  In  In57  1  0.15626819  0.68196597  0.16659592  1
  In  In58  1  0.14129701  0.03377790  0.50913494  1
  In  In59  1  0.66118895  0.03374579  0.30897526  1
  In  In60  1  -0.01918148  0.48524376  0.15909500  1
  In  In61  1  0.85679863  0.81753845  0.66918290  1
  In  In62  1  0.21267603  0.01794848  0.16554945  1
  In  In63  1  0.66347639  0.84869060  0.47627744  1
  In  In64  1  0.16473617  0.69229603  0.50205023  1
  In  In65  1  0.18300796  0.83951842  0.31117728  1
  In  In66  1  0.19392215  0.35825784  0.16271376  1
  In  In67  1  0.51351224  0.01972923  0.50545851  1
  In  In68  1  0.00669889  0.49383094  0.83043036  1
  In  In69  1  -0.01606321  0.82465685  0.52502680  1
  In  In70  1  0.16327370  0.49183585  0.67287539  1
  In  In71  1  0.31533584  0.19130021  0.48403906  1
  Te  Te72  1  0.08409609  0.08038702  0.09219822  1
  Te  Te73  1  0.11161343  0.12890278  0.39360755  1
  Te  Te74  1  0.10502359  0.08247249  0.78284145  1
  Te  Te75  1  0.07435856  0.40138526  0.07288308  1
  Te  Te76  1  0.06597884  0.41933722  0.41767618  1
  Te  Te77  1  0.05391035  0.39302800  0.71869915  1
  Te  Te78  1  0.08922418  0.76769667  0.06858758  1
  Te  Te79  1  0.07580290  0.76067386  0.39720215  1
  Te  Te80  1  0.10080293  0.74828645  0.73269846  1
  Te  Te81  1  0.41655716  0.11401749  0.07375340  1
  Te  Te82  1  0.42711764  0.10928025  0.41636076  1
  Te  Te83  1  0.44172716  0.13393332  0.76592851  1
  Te  Te84  1  0.45197042  0.36618238  0.12074320  1
  Te  Te85  1  0.43591667  0.39571073  0.42646552  1
  Te  Te86  1  0.44939186  0.40025073  0.76899710  1
  Te  Te87  1  0.44355294  0.73922063  0.09415917  1
  Te  Te88  1  0.42169804  0.75143124  0.40590161  1
  Te  Te89  1  0.40097647  0.75474915  0.77266475  1
  Te  Te90  1  0.74256687  0.09526344  0.09877274  1
  Te  Te91  1  0.69982319  0.12323863  0.43560671  1
  Te  Te92  1  0.74647587  0.08076749  0.76569288  1
  Te  Te93  1  0.70151167  0.45063981  0.11301174  1
  Te  Te94  1  0.78095798  0.42230100  0.38529852  1
  Te  Te95  1  0.73904709  0.42466367  0.76005284  1
  Te  Te96  1  0.76671942  0.74292363  0.07342113  1
  Te  Te97  1  0.73927871  0.73052376  0.41796801  1
  Te  Te98  1  0.73658505  0.74143052  0.73687864  1
  Te  Te99  1  0.08466466  0.26727779  0.22856981  1
  Te  Te100  1  0.09109663  0.25172507  0.57850277  1
  Te  Te101  1  0.05678777  0.25740571  0.92637499  1
  Te  Te102  1  0.08416261  0.57217733  0.24849566  1
  Te  Te103  1  0.08202529  0.58383856  0.57392528  1
  Te  Te104  1  0.05489279  0.60921647  0.91931377  1
  Te  Te105  1  0.08024156  0.93295778  0.24716163  1
  Te  Te106  1  0.08644991  0.91325291  0.59584771  1
  Te  Te107  1  0.09054720  0.91411280  0.91410280  1
  Te  Te108  1  0.39170599  0.27337260  0.22250459  1
  Te  Te109  1  0.41783588  0.24606941  0.58210770  1
  Te  Te110  1  0.41901250  0.20679446  0.90340669  1
  Te  Te111  1  0.41674411  0.55706001  0.25369391  1
  Te  Te112  1  0.42140699  0.57559379  0.60540830  1
  Te  Te113  1  0.41470260  0.56982334  0.94003334  1
  Te  Te114  1  0.41532291  0.91657867  0.24401813  1
  Te  Te115  1  0.42358088  0.92197736  0.58501699  1
  Te  Te116  1  0.43000227  0.93247707  0.90425884  1
  Te  Te117  1  0.74124900  0.27032182  0.24305819  1
  Te  Te118  1  0.75769966  0.27499560  0.57038661  1
  Te  Te119  1  0.74208700  0.27085021  0.92618472  1
  Te  Te120  1  0.76655672  0.55725219  0.20707472  1
  Te  Te121  1  0.75083386  0.55286868  0.58372514  1
  Te  Te122  1  0.73347809  0.55801718  0.91130206  1
  Te  Te123  1  0.75697782  0.92626113  0.25291501  1
  Te  Te124  1  0.75457021  0.91054044  0.58479700  1
  Te  Te125  1  0.76354670  0.91780239  0.92333923  1
  Te  Te126  1  0.26301972  0.25166617  0.07601508  1
  Te  Te127  1  0.22403908  0.27325443  0.40481237  1
  Te  Te128  1  0.25463071  0.25568521  0.76059417  1
  Te  Te129  1  0.24621169  0.57625868  0.09156817  1
  Te  Te130  1  0.23992828  0.57727927  0.42338478  1
  Te  Te131  1  0.25990495  0.57777589  0.75280125  1
  Te  Te132  1  0.27091160  0.91596939  0.08032757  1
  Te  Te133  1  0.23115064  0.93084737  0.42496981  1
  Te  Te134  1  0.26072235  0.94067997  0.76509328  1
  Te  Te135  1  0.57158041  0.27922299  0.03615154  1
  Te  Te136  1  0.60774841  0.24066262  0.38556473  1
  Te  Te137  1  0.56960735  0.23675757  0.73876586  1
  Te  Te138  1  0.57281231  0.57164188  0.10724475  1
  Te  Te139  1  0.58489570  0.56795978  0.41197573  1
  Te  Te140  1  0.57904238  0.56139523  0.76517179  1
  Te  Te141  1  0.60286572  0.92898687  0.08916679  1
  Te  Te142  1  0.57374574  0.93576118  0.39135443  1
  Te  Te143  1  0.56504201  0.93867731  0.77368507  1
  Te  Te144  1  0.88052491  0.27962813  0.10684290  1
  Te  Te145  1  0.89981660  0.25585188  0.42806107  1
  Te  Te146  1  0.92287692  0.22990797  0.73858027  1
  Te  Te147  1  0.91554622  0.57914642  0.06621870  1
  Te  Te148  1  0.87909351  0.56080310  0.42068874  1
  Te  Te149  1  0.89453398  0.55600651  0.74436439  1
  Te  Te150  1  0.91185101  0.91096894  0.07582208  1
  Te  Te151  1  0.90552919  0.90513613  0.41299401  1
  Te  Te152  1  0.90775520  0.92538806  0.76207946  1
  Te  Te153  1  0.27862569  0.11941320  0.24889614  1
  Te  Te154  1  0.26638155  0.07594226  0.58767148  1
  Te  Te155  1  0.24152176  0.08630102  0.89901760  1
  Te  Te156  1  0.29250327  0.36523313  0.29673743  1
  Te  Te157  1  0.24439778  0.40444563  0.57772429  1
  Te  Te158  1  0.24525149  0.41430893  0.92889060  1
  Te  Te159  1  0.27637558  0.75681354  0.22629785  1
  Te  Te160  1  0.28343976  0.73118545  0.58939009  1
  Te  Te161  1  0.24885377  0.77124356  0.92139576  1
  Te  Te162  1  0.55405330  0.12306969  0.24694476  1
  Te  Te163  1  0.58306344  0.11064203  0.59968950  1
  Te  Te164  1  0.55591443  0.11130188  0.94539966  1
  Te  Te165  1  0.62987021  0.38995707  0.24039057  1
  Te  Te166  1  0.57011686  0.42248335  0.58395341  1
  Te  Te167  1  0.58901751  0.37573373  0.91772043  1
  Te  Te168  1  0.58841709  0.74539261  0.26819499  1
  Te  Te169  1  0.58086005  0.76098706  0.57826075  1
  Te  Te170  1  0.59325007  0.75012701  0.92459588  1
  Te  Te171  1  0.92831946  0.09183932  0.27323797  1
  Te  Te172  1  0.91187170  0.06169242  0.57447263  1
  Te  Te173  1  0.91292443  0.09976631  0.90580945  1
  Te  Te174  1  0.88311570  0.43500444  0.26567986  1
  Te  Te175  1  0.92695051  0.38653720  0.62589706  1
  Te  Te176  1  0.91606840  0.40952158  0.91694691  1
  Te  Te177  1  0.91161617  0.71555790  0.23316345  1
  Te  Te178  1  0.89943280  0.70880538  0.57133778  1
  Te  Te179  1  0.90053294  0.75632035  0.91776272  1
