# generated using pymatgen
data_In2Te3
_symmetry_space_group_name_H-M   'P 1'
_cell_length_a   18.76351872
_cell_length_b   18.75845773
_cell_length_c   18.76068008
_cell_angle_alpha   90.00873370
_cell_angle_beta   90.05816276
_cell_angle_gamma   89.94612089
_symmetry_Int_Tables_number   1
_chemical_formula_structural   In2Te3
_chemical_formula_sum   'In72 Te108'
_cell_volume   6603.27783690
_cell_formula_units_Z   36
loop_
 _symmetry_equiv_pos_site_id
 _symmetry_equiv_pos_as_xyz
  1  'x, y, z'
loop_
 _atom_site_type_symbol
 _atom_site_label
 _atom_site_symmetry_multiplicity
 _atom_site_fract_x
 _atom_site_fract_y
 _atom_site_fract_z
 _atom_site_occupancy
  In  In0  1  0.35818923  0.50779963  0.49371887  1
  In  In1  1  0.35733042  0.66615518  0.34609944  1
  In  In2  1  0.80685251  0.46525555  0.34998910  1
  In  In3  1  -0.00581841  0.49481497  0.50760085  1
  In  In4  1  -0.01798187  0.84266670  0.83209835  1
  In  In5  1  0.51577281  0.32102515  0.16952381  1
  In  In6  1  0.01852454  0.16540346  0.84227675  1
  In  In7  1  0.66014563  0.66458066  0.65936013  1
  In  In8  1  0.31580607  0.50059686  0.17369968  1
  In  In9  1  0.51593597  0.16712363  0.32229186  1
  In  In10  1  0.00051003  0.33043254  0.66222203  1
  In  In11  1  0.49350876  0.84481783  0.00482058  1
  In  In12  1  0.65976944  0.84591852  0.18598295  1
  In  In13  1  0.16733086  0.00559083  0.52927046  1
  In  In14  1  0.16465386  0.66802189  0.16324345  1
  In  In15  1  0.81266723  0.84689989  0.64488912  1
  In  In16  1  0.35801019  0.01158606  0.32965530  1
  In  In17  1  0.16489596  0.32735598  0.16880323  1
  In  In18  1  0.66123249  0.83331801  0.48497148  1
  In  In19  1  0.18481196  0.48464193  0.00660276  1
  In  In20  1  0.82487298  0.66866918  0.49721931  1
  In  In21  1  0.66624589  0.49230933  0.16024227  1
  In  In22  1  0.82800211  0.49634555  0.65023005  1
  In  In23  1  0.63702568  0.18479849  0.83234357  1
  In  In24  1  0.20119168  0.66227506  0.81587283  1
  In  In25  1  -0.02561899  0.48505156  0.85602521  1
  In  In26  1  0.17992440  0.17269763  0.33362768  1
  In  In27  1  0.00231165  0.66822239  0.65957435  1
  In  In28  1  0.17936291  0.83831892  0.63534180  1
  In  In29  1  0.49160091  0.66299617  0.82464177  1
  In  In30  1  0.82171985  0.02155241  0.83002220  1
  In  In31  1  0.66997569  0.85698760  0.81566836  1
  In  In32  1  0.16542374  0.32654973  0.49172076  1
  In  In33  1  0.35141801  0.84075939  0.16602450  1
  In  In34  1  0.49097655  0.02793457  0.15737142  1
  In  In35  1  0.35992096  0.16836150  0.84477114  1
  In  In36  1  0.48361842  0.48750949  0.67549105  1
  In  In37  1  0.02136140  0.64261950  0.02066177  1
  In  In38  1  0.33865388  0.81943828  0.49535570  1
  In  In39  1  0.15398703  0.83592962  0.34868157  1
  In  In40  1  0.48932094  0.30915079  0.51405040  1
  In  In41  1  0.51359688  0.49728405  -0.01621464  1
  In  In42  1  -0.02454414  0.48782687  0.18451590  1
  In  In43  1  0.81289156  0.65126188  0.87134543  1
  In  In44  1  -0.02000130  0.17905676  0.14983455  1
  In  In45  1  0.66270922  0.32092580  0.65802645  1
  In  In46  1  0.51551305  0.00623677  0.82827568  1
  In  In47  1  0.81799386  0.84404014  0.00945647  1
  In  In48  1  0.16614062  0.82986788  0.00052943  1
  In  In49  1  0.19349992  0.05218254  0.84069829  1
  In  In50  1  0.65369043  0.66612395  0.33145134  1
  In  In51  1  0.65022759  0.32645176  0.01042394  1
  In  In52  1  -0.00612554  -0.00301556  0.01569992  1
  In  In53  1  0.78386412  0.02032201  0.15657616  1
  In  In54  1  -0.01810902  0.70490022  0.32389486  1
  In  In55  1  -0.02294635  0.00678944  0.33348916  1
  In  In56  1  0.52975834  0.01219384  0.50500340  1
  In  In57  1  0.81633479  0.02950023  0.46419064  1
  In  In58  1  0.81584922  0.16669559  0.64535823  1
  In  In59  1  0.35676970  0.83076629  0.82042026  1
  In  In60  1  0.81349218  0.33222783  0.84281401  1
  In  In61  1  0.16936853  0.00782037  0.18400486  1
  In  In62  1  -0.03714983  0.18155180  0.46435727  1
  In  In63  1  0.18593858  0.49681297  0.68082859  1
  In  In64  1  0.67968395  0.67497497  0.00821628  1
  In  In65  1  0.18712168  0.29728801  0.83064456  1
  In  In66  1  0.17040354  0.48603064  0.34446078  1
  In  In67  1  0.32703898  0.00747967  0.66976315  1
  In  In68  1  0.18713322  0.17588914  0.69462716  1
  In  In69  1  0.34017487  0.32951000  -0.01156404  1
  In  In70  1  0.52000128  0.49140500  0.33449172  1
  In  In71  1  0.83381667  0.46715867  0.00647442  1
  Te  Te72  1  0.09091849  0.09300457  0.08355740  1
  Te  Te73  1  0.08534215  0.08202532  0.41605877  1
  Te  Te74  1  0.08034269  0.07164857  0.73875924  1
  Te  Te75  1  0.07484648  0.41937274  0.08518686  1
  Te  Te76  1  0.06096109  0.39980494  0.40690316  1
  Te  Te77  1  0.08407108  0.41009608  0.76059691  1
  Te  Te78  1  0.06701985  0.76733048  0.09894379  1
  Te  Te79  1  0.08075877  0.73575053  0.42762829  1
  Te  Te80  1  0.08449487  0.75283841  0.75941552  1
  Te  Te81  1  0.39386578  0.07812095  0.05999404  1
  Te  Te82  1  0.42628649  0.09953639  0.43169302  1
  Te  Te83  1  0.43483412  0.09669639  0.73054120  1
  Te  Te84  1  0.42333109  0.42116988  0.09275013  1
  Te  Te85  1  0.42172869  0.39974359  0.40661001  1
  Te  Te86  1  0.38329948  0.41641009  0.75791188  1
  Te  Te87  1  0.41937779  0.74201056  0.07976175  1
  Te  Te88  1  0.44698427  0.76080306  0.41358498  1
  Te  Te89  1  0.43438901  0.75439983  0.72199297  1
  Te  Te90  1  0.73194069  0.12983615  0.07233996  1
  Te  Te91  1  0.71206512  0.11955936  0.39934301  1
  Te  Te92  1  0.71850214  0.08534348  0.73390190  1
  Te  Te93  1  0.76028421  0.37912464  0.10893912  1
  Te  Te94  1  0.74188652  0.37000103  0.44255895  1
  Te  Te95  1  0.73683509  0.42352063  0.74946632  1
  Te  Te96  1  0.76600748  0.74432130  0.11484723  1
  Te  Te97  1  0.76032771  0.75949466  0.39451037  1
  Te  Te98  1  0.76682356  0.74572888  0.75307661  1
  Te  Te99  1  0.07032711  0.24745322  0.25762312  1
  Te  Te100  1  0.08343168  0.23238625  0.58146577  1
  Te  Te101  1  0.10198335  0.24166086  0.93753613  1
  Te  Te102  1  0.08200681  0.57783437  0.25486318  1
  Te  Te103  1  0.09817662  0.57893429  0.58176436  1
  Te  Te104  1  0.09586294  0.58016527  0.90269493  1
  Te  Te105  1  0.06806660  0.91506597  0.24963491  1
  Te  Te106  1  0.06613149  0.90921138  0.57490184  1
  Te  Te107  1  0.08501256  0.92847289  0.91124507  1
  Te  Te108  1  0.41534620  0.24109549  0.24205459  1
  Te  Te109  1  0.40628453  0.23033734  0.60719310  1
  Te  Te110  1  0.45390404  0.25550806  0.92457711  1
  Te  Te111  1  0.42747998  0.57730348  0.24470001  1
  Te  Te112  1  0.43902807  0.59472904  0.58087834  1
  Te  Te113  1  0.41185929  0.58177934  0.91842921  1
  Te  Te114  1  0.44738452  0.91246622  0.25874321  1
  Te  Te115  1  0.41381940  0.92804288  0.57391226  1
  Te  Te116  1  0.40868578  0.93665816  0.91667316  1
  Te  Te117  1  0.76762265  0.20093634  0.28258469  1
  Te  Te118  1  0.73853589  0.25020993  0.54551263  1
  Te  Te119  1  0.74901860  0.22756564  0.93197219  1
  Te  Te120  1  0.75278540  0.57319793  0.25612712  1
  Te  Te121  1  0.72885868  0.56790374  0.55895970  1
  Te  Te122  1  0.72407955  0.54475677  0.93166039  1
  Te  Te123  1  0.74374727  0.93395835  0.27213855  1
  Te  Te124  1  0.73104770  0.95104904  0.57191940  1
  Te  Te125  1  0.73422618  0.94152154  0.92714807  1
  Te  Te126  1  0.25720069  0.25067585  0.08215707  1
  Te  Te127  1  0.27005823  0.25113499  0.42001436  1
  Te  Te128  1  0.30926847  0.27913406  0.72833035  1
  Te  Te129  1  0.26351248  0.59996964  0.06876831  1
  Te  Te130  1  0.24783508  0.59117950  0.42218804  1
  Te  Te131  1  0.29767769  0.57409622  0.74398841  1
  Te  Te132  1  0.25266255  0.92438818  0.08447192  1
  Te  Te133  1  0.25232333  0.93545741  0.41420529  1
  Te  Te134  1  0.23967413  0.91952153  0.76093849  1
  Te  Te135  1  0.60202028  0.21455688  0.10056443  1
  Te  Te136  1  0.59470754  0.23742664  0.43074258  1
  Te  Te137  1  0.55251759  0.26163785  0.73701418  1
  Te  Te138  1  0.57742379  0.59275657  0.08772696  1
  Te  Te139  1  0.58476082  0.58128894  0.43212443  1
  Te  Te140  1  0.59283722  0.57066284  0.75760710  1
  Te  Te141  1  0.59113650  0.93230247  0.07989327  1
  Te  Te142  1  0.59367856  0.93183382  0.39634678  1
  Te  Te143  1  0.56834294  0.91203680  0.72552954  1
  Te  Te144  1  0.89820219  0.27880014  0.07869577  1
  Te  Te145  1  0.86900329  0.26492266  0.38204589  1
  Te  Te146  1  0.90860044  0.24281309  0.74979775  1
  Te  Te147  1  0.89973144  0.58004334  0.08826620  1
  Te  Te148  1  0.91351793  0.57841559  0.40773801  1
  Te  Te149  1  0.91154465  0.58182343  0.74904733  1
  Te  Te150  1  0.90053663  0.92568781  0.10991374  1
  Te  Te151  1  0.89851222  0.91335611  0.41623336  1
  Te  Te152  1  0.90471743  0.93297296  0.73687658  1
  Te  Te153  1  0.27687564  0.10242127  0.23650831  1
  Te  Te154  1  0.26526046  0.11312104  0.57554989  1
  Te  Te155  1  0.27753169  0.10282384  0.95544481  1
  Te  Te156  1  0.26359501  0.39297627  0.26760961  1
  Te  Te157  1  0.25821848  0.41810502  0.57160289  1
  Te  Te158  1  0.26405868  0.42293507  0.89417363  1
  Te  Te159  1  0.25180545  0.75369039  0.25765309  1
  Te  Te160  1  0.26399556  0.72992074  0.58701415  1
  Te  Te161  1  0.26942350  0.75089631  0.92041029  1
  Te  Te162  1  0.60277779  0.06835260  0.25042456  1
  Te  Te163  1  0.62256321  0.07658186  0.60156639  1
  Te  Te164  1  0.57667485  0.09267324  0.93180025  1
  Te  Te165  1  0.61320721  0.39194104  0.26474809  1
  Te  Te166  1  0.57672275  0.41877507  0.57499392  1
  Te  Te167  1  0.56450730  0.38272728  0.90113058  1
  Te  Te168  1  0.56879052  0.74077782  0.23551439  1
  Te  Te169  1  0.57672647  0.75692246  0.58007346  1
  Te  Te170  1  0.59483900  0.75850239  0.91060481  1
  Te  Te171  1  0.89091199  0.10259405  0.24977034  1
  Te  Te172  1  0.91920124  0.08283932  0.57265499  1
  Te  Te173  1  0.91356739  0.09436955  0.92883335  1
  Te  Te174  1  0.89862551  0.38561468  0.26029401  1
  Te  Te175  1  0.89820846  0.38985848  0.56666530  1
  Te  Te176  1  0.93247684  0.36179845  0.94007880  1
  Te  Te177  1  0.90415214  0.74921328  0.21118628  1
  Te  Te178  1  0.91960927  0.76231623  0.57224749  1
  Te  Te179  1  0.92051852  0.74708535  0.93494826  1
