# generated using pymatgen
data_In2Te3
_symmetry_space_group_name_H-M   'P 1'
_cell_length_a   18.77274858
_cell_length_b   18.77189082
_cell_length_c   18.77210255
_cell_angle_alpha   90.02259816
_cell_angle_beta   90.00160372
_cell_angle_gamma   89.96809737
_symmetry_Int_Tables_number   1
_chemical_formula_structural   In2Te3
_chemical_formula_sum   'In72 Te108'
_cell_volume   6615.28714754
_cell_formula_units_Z   36
loop_
 _symmetry_equiv_pos_site_id
 _symmetry_equiv_pos_as_xyz
  1  'x, y, z'
loop_
 _atom_site_type_symbol
 _atom_site_label
 _atom_site_symmetry_multiplicity
 _atom_site_fract_x
 _atom_site_fract_y
 _atom_site_fract_z
 _atom_site_occupancy
  In  In0  1  0.65487219  0.33399764  0.66295253  1
  In  In1  1  0.84435304  0.68943229  0.16837978  1
  In  In2  1  0.84365574  0.51068769  0.32168933  1
  In  In3  1  0.32906184  0.51908077  0.82972656  1
  In  In4  1  0.16741560  -0.01325349  0.49462799  1
  In  In5  1  0.48622246  -0.02713747  0.85779570  1
  In  In6  1  0.83926721  0.68634289  0.49794838  1
  In  In7  1  0.15867743  0.35251328  0.46755549  1
  In  In8  1  0.33574094  0.67086863  0.34380604  1
  In  In9  1  0.49503799  0.16546693  0.01175072  1
  In  In10  1  0.66555989  0.31483494  0.33771786  1
  In  In11  1  0.19006214  0.81344680  0.00145680  1
  In  In12  1  0.67817602  0.01932848  0.67661520  1
  In  In13  1  0.33854255  0.14807170  0.17073705  1
  In  In14  1  0.15556495  0.65070787  0.52309722  1
  In  In15  1  0.34397563  0.33801795  0.65413089  1
  In  In16  1  0.16767321  0.00591967  0.84480850  1
  In  In17  1  0.34384354  0.85257945  0.15981766  1
  In  In18  1  0.84558699  0.82585753  0.67074555  1
  In  In19  1  0.82826034  0.14813109  0.00201520  1
  In  In20  1  0.83801598  0.16115646  0.33026425  1
  In  In21  1  0.50217126  0.15484252  0.33289987  1
  In  In22  1  0.48583841  0.82731012  0.31646900  1
  In  In23  1  0.67701957  0.67094165  -0.00230539  1
  In  In24  1  -0.00751930  0.34916585  0.66967600  1
  In  In25  1  0.49310974  0.51307791  0.34488812  1
  In  In26  1  0.32839138  0.67022345  0.66616821  1
  In  In27  1  -0.00425523  0.52328969  0.17372691  1
  In  In28  1  0.87175289  0.49996062  0.66661474  1
  In  In29  1  0.67849678  0.17268293  0.81168175  1
  In  In30  1  0.18712425  0.31995833  0.18416162  1
  In  In31  1  0.00532247  0.13347677  0.17735947  1
  In  In32  1  0.49328304  0.50565323  -0.00961605  1
  In  In33  1  0.67480225  -0.00548868  0.00658495  1
  In  In34  1  0.84392899  0.33971595  0.52803557  1
  In  In35  1  0.65796714  0.51197704  0.84711122  1
  In  In36  1  0.15383477  0.82846352  0.66061999  1
  In  In37  1  0.00179883  0.52316038  0.84098329  1
  In  In38  1  0.31376987  0.49868944  0.17385107  1
  In  In39  1  0.15777765  0.85098915  0.33132949  1
  In  In40  1  0.30677963  -0.00426732  0.66005660  1
  In  In41  1  0.48535254  0.01007871  0.49410743  1
  In  In42  1  0.65090636  0.50720027  0.48973602  1
  In  In43  1  -0.00369426  0.81867685  0.82134494  1
  In  In44  1  0.68013874  0.84892373  0.85120859  1
  In  In45  1  0.65989477  0.83905907  0.18061111  1
  In  In46  1  0.66827670  0.82226940  0.49128910  1
  In  In47  1  0.01744115  0.69018300  0.30997957  1
  In  In48  1  0.48066623  0.81834283  0.67561914  1
  In  In49  1  -0.00964000  0.67568703  0.00008461  1
  In  In50  1  0.00867368  0.32493443  -0.00263978  1
  In  In51  1  0.49951136  0.32462855  0.16792793  1
  In  In52  1  0.18464994  0.15577259  0.32732745  1
  In  In53  1  0.84580307  -0.02793299  0.45990207  1
  In  In54  1  0.49953703  0.50061230  0.66283908  1
  In  In55  1  -0.00132609  0.13669960  0.84701837  1
  In  In56  1  0.66820264  0.67045823  0.67037090  1
  In  In57  1  0.48719299  0.17752860  0.65800818  1
  In  In58  1  0.49616784  0.82334466  0.00899686  1
  In  In59  1  0.34357793  0.16651579  0.84737429  1
  In  In60  1  0.66496961  0.01903118  0.31400969  1
  In  In61  1  -0.00409675  0.16164419  0.49847644  1
  In  In62  1  0.83022598  0.32768730  0.84117560  1
  In  In63  1  0.16529715  0.14995387  0.03683621  1
  In  In64  1  0.15495102  0.66769421  0.15229131  1
  In  In65  1  0.82028243  0.34713936  0.16691379  1
  In  In66  1  0.17205104  0.50463951  -0.00436730  1
  In  In67  1  0.16785665  0.15242934  0.66875471  1
  In  In68  1  0.82437481  0.14696564  0.65704990  1
  In  In69  1  0.67831943  0.50808447  0.15290402  1
  In  In70  1  0.33790122  0.49378081  0.49478528  1
  In  In71  1  0.15595468  0.36284974  0.82774675  1
  Te  Te72  1  0.05675759  0.04828338  0.06249965  1
  Te  Te73  1  0.07776639  0.07492492  0.40516470  1
  Te  Te74  1  0.07013764  0.05760360  0.73622535  1
  Te  Te75  1  0.08733830  0.41805008  0.08989889  1
  Te  Te76  1  0.04561053  0.42708176  0.41403971  1
  Te  Te77  1  0.09114990  0.45726062  0.72604592  1
  Te  Te78  1  0.04779603  0.77044791  0.10766703  1
  Te  Te79  1  0.08783022  0.75496390  0.42933682  1
  Te  Te80  1  0.09299610  0.72815291  0.75172206  1
  Te  Te81  1  0.41666189  0.06103500  0.07918956  1
  Te  Te82  1  0.39636484  0.05820646  0.38325752  1
  Te  Te83  1  0.41773826  0.06742545  0.74706934  1
  Te  Te84  1  0.40983925  0.41709110  0.08623054  1
  Te  Te85  1  0.41881342  0.40418803  0.40984445  1
  Te  Te86  1  0.42094698  0.41540868  0.76112556  1
  Te  Te87  1  0.41892449  0.73891370  0.10305380  1
  Te  Te88  1  0.41546484  0.76089317  0.42845100  1
  Te  Te89  1  0.39740904  0.74757907  0.77680689  1
  Te  Te90  1  0.76234138  0.06441080  0.10522241  1
  Te  Te91  1  0.74735069  0.08537183  0.42692649  1
  Te  Te92  1  0.78178709  0.06341702  0.77939086  1
  Te  Te93  1  0.74940306  0.41827861  0.05966549  1
  Te  Te94  1  0.76070881  0.41855160  0.41549828  1
  Te  Te95  1  0.75784825  0.41708459  0.73926683  1
  Te  Te96  1  0.75640490  0.77503712  0.07771015  1
  Te  Te97  1  0.75875731  0.75679985  0.39400986  1
  Te  Te98  1  0.75751000  0.74481737  0.76669756  1
  Te  Te99  1  0.07721774  0.24339660  0.25679755  1
  Te  Te100  1  0.08467851  0.25355648  0.58592035  1
  Te  Te101  1  0.09918632  0.23635476  0.90975075  1
  Te  Te102  1  0.10851486  0.57072858  0.26092586  1
  Te  Te103  1  0.06682215  0.57147935  0.60988118  1
  Te  Te104  1  0.10216569  0.61302464  0.91478792  1
  Te  Te105  1  0.04600898  0.92479064  0.25811431  1
  Te  Te106  1  0.06818092  0.91946853  0.58082422  1
  Te  Te107  1  0.09233545  0.89563802  0.91788989  1
  Te  Te108  1  0.40314813  0.25299201  0.26052991  1
  Te  Te109  1  0.40356755  0.24402722  0.55624846  1
  Te  Te110  1  0.42890743  0.26107796  0.91982704  1
  Te  Te111  1  0.41616445  0.59220705  0.23943629  1
  Te  Te112  1  0.42335666  0.59464758  0.57130006  1
  Te  Te113  1  0.40473465  0.60615601  0.92364829  1
  Te  Te114  1  0.40884702  0.94336502  0.26143602  1
  Te  Te115  1  0.40518527  0.91060737  0.57938701  1
  Te  Te116  1  0.38412296  0.89247187  0.93144992  1
  Te  Te117  1  0.74288635  0.23414369  0.23409161  1
  Te  Te118  1  0.73677060  0.24097451  0.57315969  1
  Te  Te119  1  0.73622067  0.25040389  0.93102833  1
  Te  Te120  1  0.74597648  0.60361378  0.25130044  1
  Te  Te121  1  0.75401625  0.57414211  0.58442840  1
  Te  Te122  1  0.76497781  0.58894751  0.91103984  1
  Te  Te123  1  0.76193208  0.92874447  0.24463188  1
  Te  Te124  1  0.74871356  0.91825129  0.58193521  1
  Te  Te125  1  0.78096810  0.91483170  0.93678112  1
  Te  Te126  1  0.26689304  0.25514240  0.07470160  1
  Te  Te127  1  0.25306426  0.25020627  0.42000510  1
  Te  Te128  1  0.24881696  0.25203458  0.75227795  1
  Te  Te129  1  0.26386771  0.60144602  0.06932139  1
  Te  Te130  1  0.23765165  0.57763603  0.41553878  1
  Te  Te131  1  0.23127403  0.58999730  0.74453263  1
  Te  Te132  1  0.22446681  0.91930861  0.10091521  1
  Te  Te133  1  0.26653234  0.91924432  0.40634637  1
  Te  Te134  1  0.24595935  0.90359069  0.76166794  1
  Te  Te135  1  0.59534562  0.23818960  0.09474465  1
  Te  Te136  1  0.57639223  0.24220022  0.42818500  1
  Te  Te137  1  0.56402795  0.26086066  0.76109003  1
  Te  Te138  1  0.57553997  0.59687121  0.08450178  1
  Te  Te139  1  0.58607003  0.61049705  0.40839797  1
  Te  Te140  1  0.56660329  0.59783960  0.75903096  1
  Te  Te141  1  0.56858180  0.92757791  0.09382732  1
  Te  Te142  1  0.58497137  0.92393982  0.41135298  1
  Te  Te143  1  0.58542233  0.91319341  0.74057635  1
  Te  Te144  1  0.92193292  0.24262604  0.09119268  1
  Te  Te145  1  0.91565503  0.26175803  0.41592443  1
  Te  Te146  1  0.91811538  0.23770502  0.75034058  1
  Te  Te147  1  0.89612078  0.57748342  0.07518641  1
  Te  Te148  1  0.93085528  0.60292979  0.40470109  1
  Te  Te149  1  0.92123741  0.60937124  0.75106076  1
  Te  Te150  1  0.97742655  0.90768435  0.12164513  1
  Te  Te151  1  0.94621823  0.89332655  0.38345621  1
  Te  Te152  1  0.91898565  0.92589139  0.75166694  1
  Te  Te153  1  0.22513491  0.06252169  0.21739030  1
  Te  Te154  1  0.25969567  0.09915251  0.56030037  1
  Te  Te155  1  0.26302398  0.07609748  0.94092014  1
  Te  Te156  1  0.24975348  0.41480291  0.27771398  1
  Te  Te157  1  0.23865126  0.42165547  0.58488602  1
  Te  Te158  1  0.26370729  0.40740621  0.92323977  1
  Te  Te159  1  0.24376666  0.75184345  0.24619897  1
  Te  Te160  1  0.25443370  0.75954225  0.56646735  1
  Te  Te161  1  0.29136271  0.75637015  0.90903752  1
  Te  Te162  1  0.57987939  0.09644119  0.22058203  1
  Te  Te163  1  0.58633002  0.09165066  0.57877892  1
  Te  Te164  1  0.59033473  0.07615664  0.90036961  1
  Te  Te165  1  0.59426640  0.42356859  0.25313142  1
  Te  Te166  1  0.56425268  0.40468576  0.56271671  1
  Te  Te167  1  0.58632568  0.41030955  0.92408493  1
  Te  Te168  1  0.58192029  0.73527014  0.25194508  1
  Te  Te169  1  0.57108882  0.74125511  0.57670655  1
  Te  Te170  1  0.58030717  0.74843169  0.90581851  1
  Te  Te171  1  0.89850187  0.05350546  0.24586307  1
  Te  Te172  1  0.91456322  0.05699861  0.57365177  1
  Te  Te173  1  0.92974254  0.05143525  0.94597059  1
  Te  Te174  1  0.93237038  0.40646674  0.25167041  1
  Te  Te175  1  0.95871834  0.44817444  0.54393031  1
  Te  Te176  1  0.91784965  0.42258365  0.92276699  1
  Te  Te177  1  0.89699473  0.77954221  0.28111737  1
  Te  Te178  1  0.93946305  0.75802160  0.57862843  1
  Te  Te179  1  0.90188960  0.76814870  0.92640570  1
