# generated using pymatgen
data_In2Te3
_symmetry_space_group_name_H-M   'P 1'
_cell_length_a   18.96294797
_cell_length_b   18.95621801
_cell_length_c   18.97648857
_cell_angle_alpha   90.09082677
_cell_angle_beta   89.92793831
_cell_angle_gamma   89.98857342
_symmetry_Int_Tables_number   1
_chemical_formula_structural   In2Te3
_chemical_formula_sum   'In72 Te108'
_cell_volume   6821.38408036
_cell_formula_units_Z   36
loop_
 _symmetry_equiv_pos_site_id
 _symmetry_equiv_pos_as_xyz
  1  'x, y, z'
loop_
 _atom_site_type_symbol
 _atom_site_label
 _atom_site_symmetry_multiplicity
 _atom_site_fract_x
 _atom_site_fract_y
 _atom_site_fract_z
 _atom_site_occupancy
  In  In0  1  0.32737905  0.47852863  0.49252063  1
  In  In1  1  0.33695953  0.20460421  0.82471366  1
  In  In2  1  0.69426595  0.16603796  0.47196416  1
  In  In3  1  0.65391100  0.17059882  0.14711904  1
  In  In4  1  -0.03185761  0.36777244  -0.05045713  1
  In  In5  1  0.66531850  -0.01479710  0.66577277  1
  In  In6  1  0.15046039  0.01269972  0.83392129  1
  In  In7  1  0.00462045  0.83317684  0.81642625  1
  In  In8  1  0.18274537  0.33396236  0.16397573  1
  In  In9  1  0.81377535  0.64610921  0.18055957  1
  In  In10  1  0.51558622  0.34289784  0.51127567  1
  In  In11  1  0.66967549  0.82235558  0.18902661  1
  In  In12  1  0.34888500  -0.02480419  0.32268283  1
  In  In13  1  0.19271493  0.16374731  -0.00555142  1
  In  In14  1  0.00707209  0.31760866  0.34291479  1
  In  In15  1  0.50225755  0.53000480  0.71581302  1
  In  In16  1  0.79825700  0.48892693  0.32376104  1
  In  In17  1  0.82999130  -0.00867308  0.81843958  1
  In  In18  1  -0.00112237  0.13204206  0.51631811  1
  In  In19  1  0.85122370  0.84266054  0.34335248  1
  In  In20  1  0.50207171  0.82234346  0.64448420  1
  In  In21  1  0.82641267  0.65278346  0.50427528  1
  In  In22  1  0.80982886  0.66314763  0.80583295  1
  In  In23  1  0.32390423  -0.02678267  0.02346056  1
  In  In24  1  0.17610660  0.66777098  0.51838152  1
  In  In25  1  0.16940752  0.14038526  0.36692074  1
  In  In26  1  0.16120351  0.49968004  0.31391621  1
  In  In27  1  0.52054014  0.36929458  0.86259598  1
  In  In28  1  0.16769683  0.33710898  0.80887579  1
  In  In29  1  0.14334606  0.85049837  0.62892363  1
  In  In30  1  0.48970299  0.17614660  0.64826987  1
  In  In31  1  0.00335731  -0.01642915  -0.01790119  1
  In  In32  1  -0.00333626  0.50566550  0.18515340  1
  In  In33  1  0.81630392  0.18498543  -0.00045495  1
  In  In34  1  0.35643374  0.51754720  0.86992985  1
  In  In35  1  0.79934638  0.34882162  0.13914120  1
  In  In36  1  0.37496671  0.33101968  0.32084717  1
  In  In37  1  0.50633629  -0.02075618  0.17011506  1
  In  In38  1  0.34298746  0.15468882  0.49631333  1
  In  In39  1  0.34818130  0.15707584  0.18311861  1
  In  In40  1  0.64888991  0.82423157  0.49283278  1
  In  In41  1  0.00058586  0.67520956  0.02553135  1
  In  In42  1  0.35478613  0.68980403  0.33893759  1
  In  In43  1  0.65989489  0.33978944  0.31868276  1
  In  In44  1  0.83265595  0.33430927  0.48070077  1
  In  In45  1  0.17250160  0.84973354  0.35569241  1
  In  In46  1  -0.02299670  0.66537843  0.34789214  1
  In  In47  1  0.15110324  -0.03294760  0.16713504  1
  In  In48  1  -0.01397774  0.68291505  0.64820929  1
  In  In49  1  0.17827139  0.52181242  0.00757919  1
  In  In50  1  0.38107587  0.36033112  -0.00711465  1
  In  In51  1  0.31480757  0.01383711  0.65962603  1
  In  In52  1  0.83950950  0.84148126  -0.01362555  1
  In  In53  1  0.66128629  0.65408556  -0.01043237  1
  In  In54  1  0.51634694  -0.00439687  0.47612653  1
  In  In55  1  0.49297709  0.69757043  0.16165677  1
  In  In56  1  0.16516754  0.68046392  0.86543387  1
  In  In57  1  0.67147449  0.81873882  0.84457999  1
  In  In58  1  0.14060125  0.51048353  0.67959882  1
  In  In59  1  0.83447960  0.48889193  0.65898951  1
  In  In60  1  0.65122959  0.17660375  0.85090303  1
  In  In61  1  0.38288745  0.52601423  0.11405180  1
  In  In62  1  0.51089504  0.64914544  0.48051659  1
  In  In63  1  0.31194684  0.66703637  0.66612598  1
  In  In64  1  0.82248311  0.11932426  0.32212551  1
  In  In65  1  0.00791739  0.17310957  0.82672112  1
  In  In66  1  0.50803880  0.01236623  0.86177507  1
  In  In67  1  0.34369834  0.84106359  0.83729479  1
  In  In68  1  0.15930888  0.31381087  0.50866130  1
  In  In69  1  0.66737831  0.35996616  0.67843940  1
  In  In70  1  0.85560158  0.18141491  0.66664034  1
  In  In71  1  -0.01635951  0.16396646  0.16447230  1
  Te  Te72  1  0.09169593  0.08291322  0.07258547  1
  Te  Te73  1  0.05002659  0.05748078  0.39574603  1
  Te  Te74  1  0.06203124  0.07101760  0.73343665  1
  Te  Te75  1  0.08789540  0.42526228  0.09144253  1
  Te  Te76  1  0.08785288  0.41938274  0.41856038  1
  Te  Te77  1  0.05874307  0.42195716  0.76338003  1
  Te  Te78  1  0.10387509  0.77444926  0.05019185  1
  Te  Te79  1  0.08388006  0.74100821  0.42418429  1
  Te  Te80  1  0.10509282  0.73882331  0.73750268  1
  Te  Te81  1  0.41968092  0.07636954  0.07810033  1
  Te  Te82  1  0.42810985  0.08695757  0.39305270  1
  Te  Te83  1  0.42144903  0.08363244  0.74774011  1
  Te  Te84  1  0.46101545  0.39050285  0.11626414  1
  Te  Te85  1  0.44630680  0.43193578  0.40829105  1
  Te  Te86  1  0.41212761  0.41994869  0.76596457  1
  Te  Te87  1  0.39415790  0.70231864  0.04858835  1
  Te  Te88  1  0.42418212  0.76248729  0.44508259  1
  Te  Te89  1  0.41702430  0.74415151  0.74354462  1
  Te  Te90  1  0.75905184  0.08546823  0.08857146  1
  Te  Te91  1  0.74232467  0.03973309  0.41622120  1
  Te  Te92  1  0.73532553  0.09469797  0.75243318  1
  Te  Te93  1  0.70932328  0.46853891  0.12262997  1
  Te  Te94  1  0.71802291  0.42347423  0.43673845  1
  Te  Te95  1  0.74883572  0.43838011  0.77281480  1
  Te  Te96  1  0.75798819  0.74653991  0.07376932  1
  Te  Te97  1  0.75155617  0.74783924  0.40935454  1
  Te  Te98  1  0.76504311  0.78457589  0.73626814  1
  Te  Te99  1  0.09643188  0.23932225  0.24641603  1
  Te  Te100  1  0.04862450  0.25410317  0.58435619  1
  Te  Te101  1  0.09370447  0.25397176  0.92530860  1
  Te  Te102  1  0.08490922  0.61125766  0.24662318  1
  Te  Te103  1  0.06446775  0.57820787  0.56839332  1
  Te  Te104  1  0.06835260  0.58031890  0.92093573  1
  Te  Te105  1  0.06768590  0.89126110  0.25959961  1
  Te  Te106  1  0.05366759  0.91524199  0.53569187  1
  Te  Te107  1  0.10612442  0.89134505  0.91504680  1
  Te  Te108  1  0.45568443  0.23446774  0.24599913  1
  Te  Te109  1  0.39709495  0.27176354  0.57733875  1
  Te  Te110  1  0.44379606  0.24319729  0.92009771  1
  Te  Te111  1  0.42378816  0.59082142  0.25023487  1
  Te  Te112  1  0.40132093  0.57902284  0.58042322  1
  Te  Te113  1  0.44516105  0.55987257  0.98026292  1
  Te  Te114  1  0.39343812  0.88843432  0.21269130  1
  Te  Te115  1  0.42577106  0.93853666  0.58366687  1
  Te  Te116  1  0.43447741  0.90523879  0.94101139  1
  Te  Te117  1  0.76232323  0.24930213  0.25021398  1
  Te  Te118  1  0.73907351  0.25963023  0.58934843  1
  Te  Te119  1  0.72779832  0.28062094  0.92661546  1
  Te  Te120  1  0.71691955  0.61236563  0.29325750  1
  Te  Te121  1  0.74149532  0.59019053  0.60645863  1
  Te  Te122  1  0.77422924  0.57883898  0.92477596  1
  Te  Te123  1  0.76054568  0.91769561  0.25481128  1
  Te  Te124  1  0.74326787  0.88726375  0.59014551  1
  Te  Te125  1  0.73608029  0.93233530  0.92213007  1
  Te  Te126  1  0.28026041  0.25572025  0.07662665  1
  Te  Te127  1  0.25950321  0.26076070  0.39896748  1
  Te  Te128  1  0.23176155  0.23156424  0.72908761  1
  Te  Te129  1  0.25386392  0.60074073  0.10401405  1
  Te  Te130  1  0.25034585  0.58369383  0.41116157  1
  Te  Te131  1  0.24916756  0.57328313  0.76986759  1
  Te  Te132  1  0.22635733  0.87274113  0.07658505  1
  Te  Te133  1  0.25548386  0.94657421  0.43219916  1
  Te  Te134  1  0.24250906  0.91048717  0.74520975  1
  Te  Te135  1  0.58685120  0.28772234  0.08402814  1
  Te  Te136  1  0.58153465  0.24691475  0.41297655  1
  Te  Te137  1  0.56849723  0.26214620  0.74525229  1
  Te  Te138  1  0.60039793  0.60188195  0.11486329  1
  Te  Te139  1  0.61278871  0.57804530  0.40372140  1
  Te  Te140  1  0.58887724  0.59831477  0.80918922  1
  Te  Te141  1  0.58600770  0.88718041  0.08713359  1
  Te  Te142  1  0.56282618  0.88709543  0.38576830  1
  Te  Te143  1  0.56933072  0.91127342  0.75779992  1
  Te  Te144  1  0.92304303  0.27044197  0.07426428  1
  Te  Te145  1  0.90938303  0.22299857  0.40909863  1
  Te  Te146  1  0.89875949  0.25982803  0.78097449  1
  Te  Te147  1  0.90563906  0.57017047  0.08418821  1
  Te  Te148  1  0.90349077  0.55220745  0.41432265  1
  Te  Te149  1  0.92380490  0.58548381  0.74406180  1
  Te  Te150  1  0.92883959  0.90761164  0.08130805  1
  Te  Te151  1  0.95394623  0.92336047  0.41616196  1
  Te  Te152  1  0.93859503  0.93611875  0.73500655  1
  Te  Te153  1  0.23902348  0.07179285  0.24473506  1
  Te  Te154  1  0.23124094  0.07774224  0.55538934  1
  Te  Te155  1  0.27225433  0.07006339  0.90621943  1
  Te  Te156  1  0.27281655  0.42234212  0.24610671  1
  Te  Te157  1  0.23111124  0.41900062  0.59326945  1
  Te  Te158  1  0.25044760  0.41110988  0.92380675  1
  Te  Te159  1  0.26697880  0.77920094  0.26112258  1
  Te  Te160  1  0.26493498  0.77794807  0.57254621  1
  Te  Te161  1  0.29247365  0.72872472  0.92510877  1
  Te  Te162  1  0.58483714  0.08183416  0.24173215  1
  Te  Te163  1  0.59157896  0.09091561  0.57604470  1
  Te  Te164  1  0.59602655  0.08586737  0.95192892  1
  Te  Te165  1  0.59808849  0.42853306  0.21647855  1
  Te  Te166  1  0.57119784  0.44974515  0.60506240  1
  Te  Te167  1  0.61624362  0.39323885  0.97366674  1
  Te  Te168  1  0.56010637  0.76846410  0.27564273  1
  Te  Te169  1  0.59569773  0.71786154  0.59228493  1
  Te  Te170  1  0.56666704  0.72541369  0.89772550  1
  Te  Te171  1  0.91579688  0.05313998  0.22980896  1
  Te  Te172  1  0.87649623  0.07344098  0.57193347  1
  Te  Te173  1  0.91033345  0.08500351  0.91655809  1
  Te  Te174  1  0.91261479  0.40071911  0.25574613  1
  Te  Te175  1  0.91996302  0.39600505  0.58020213  1
  Te  Te176  1  0.84873928  0.43953735  0.90795512  1
  Te  Te177  1  0.91260298  0.74441870  0.23690865  1
  Te  Te178  1  0.90979728  0.76431057  0.55561427  1
  Te  Te179  1  0.91982995  0.74212491  0.90240960  1
