# generated using pymatgen
data_In2Te3
_symmetry_space_group_name_H-M   'P 1'
_cell_length_a   18.94670870
_cell_length_b   18.97979954
_cell_length_c   18.96121265
_cell_angle_alpha   90.01703557
_cell_angle_beta   89.98780361
_cell_angle_gamma   90.23003400
_symmetry_Int_Tables_number   1
_chemical_formula_structural   In2Te3
_chemical_formula_sum   'In72 Te108'
_cell_volume   6818.48640696
_cell_formula_units_Z   36
loop_
 _symmetry_equiv_pos_site_id
 _symmetry_equiv_pos_as_xyz
  1  'x, y, z'
loop_
 _atom_site_type_symbol
 _atom_site_label
 _atom_site_symmetry_multiplicity
 _atom_site_fract_x
 _atom_site_fract_y
 _atom_site_fract_z
 _atom_site_occupancy
  In  In0  1  0.14717119  0.31275591  0.81226183  1
  In  In1  1  0.34284243  0.16090491  0.81220800  1
  In  In2  1  0.68935598  0.33630360  0.32763210  1
  In  In3  1  0.31596392  0.51640174  0.49467742  1
  In  In4  1  0.46451197  0.69845526  0.16369534  1
  In  In5  1  0.32960896  0.36574981  -0.02447885  1
  In  In6  1  0.68187870  0.29727625  -0.02420193  1
  In  In7  1  0.30994204  0.14712195  0.16840734  1
  In  In8  1  0.16514182  0.19504726  -0.00726435  1
  In  In9  1  0.68939304  0.64718223  0.64909957  1
  In  In10  1  0.50301849  0.51181345  0.33860757  1
  In  In11  1  0.47581543  0.51823332  -0.00878009  1
  In  In12  1  0.51007146  0.16550280  0.65654429  1
  In  In13  1  0.32655010  0.70259388  0.65092444  1
  In  In14  1  0.34660510  0.17836526  0.50057680  1
  In  In15  1  0.33517861  0.35292495  0.31959722  1
  In  In16  1  0.67677003  0.01577727  0.01417226  1
  In  In17  1  0.52524132  0.16775065  0.00691030  1
  In  In18  1  0.45264106  0.86545805  0.33332563  1
  In  In19  1  0.50168636  0.31701019  0.81285802  1
  In  In20  1  0.47861656  0.83174751  -0.00679075  1
  In  In21  1  0.68749832  0.33027067  0.67412593  1
  In  In22  1  -0.00349172  0.68532098  0.32318047  1
  In  In23  1  0.64789110  0.66713088  0.34408983  1
  In  In24  1  0.18838117  0.67624031  0.14673167  1
  In  In25  1  -0.02121875  0.00692215  0.66852042  1
  In  In26  1  0.02750045  0.01022501  0.31354895  1
  In  In27  1  0.84531814  0.84716913  0.32929374  1
  In  In28  1  0.86389422  0.49446148  0.34244025  1
  In  In29  1  0.82673465  0.01776456  0.49848222  1
  In  In30  1  0.53468698  0.14658021  0.30663046  1
  In  In31  1  0.15300293  0.34657535  0.17248505  1
  In  In32  1  0.33773406  0.01689507  -0.00766502  1
  In  In33  1  0.81657111  0.64754657  0.82933823  1
  In  In34  1  0.17722854  0.82431331  0.66648025  1
  In  In35  1  0.16458580  -0.00545399  0.15329741  1
  In  In36  1  0.12424356  -0.03007571  0.86852574  1
  In  In37  1  0.15103431  0.66640180  0.84523042  1
  In  In38  1  0.85129576  0.63967253  0.49810550  1
  In  In39  1  0.00417260  0.81694143  0.50679003  1
  In  In40  1  0.64141084  0.81982930  0.83037268  1
  In  In41  1  0.19559426  0.15073125  0.31308197  1
  In  In42  1  -0.01448731  0.18105261  0.15873117  1
  In  In43  1  0.84369426  0.83200185  0.01691394  1
  In  In44  1  0.66269366  0.46959975  0.83197028  1
  In  In45  1  0.47693565  0.63368260  0.84958994  1
  In  In46  1  0.15281665  0.17042576  0.64662602  1
  In  In47  1  0.30868159  0.66031278  0.34657745  1
  In  In48  1  -0.02557362  0.13778751  0.85172053  1
  In  In49  1  0.19398807  -0.01955951  0.48350400  1
  In  In50  1  -0.01180681  0.48964480  0.16702185  1
  In  In51  1  0.49258425  -0.01472903  0.50155257  1
  In  In52  1  0.51335279  0.64888147  0.48094604  1
  In  In53  1  0.66566649  0.16284557  0.48297957  1
  In  In54  1  0.50167021  0.83586491  0.65379969  1
  In  In55  1  -0.01066319  0.35028930  0.46239422  1
  In  In56  1  0.84070804  -0.01166095  0.84081216  1
  In  In57  1  -0.01423868  0.32852568  0.64710205  1
  In  In58  1  0.33060406  0.51624085  0.85600506  1
  In  In59  1  0.83617132  0.48575202  -0.02971877  1
  In  In60  1  0.16746169  0.50311789  0.66101966  1
  In  In61  1  0.65900705  0.51223384  0.16300986  1
  In  In62  1  -0.00085807  0.66491427  0.01012864  1
  In  In63  1  -0.00629685  0.65316925  0.68249391  1
  In  In64  1  0.31935401  0.83789292  0.84701176  1
  In  In65  1  0.81476144  0.32981379  0.17310507  1
  In  In66  1  0.83635639  0.68864831  0.18510893  1
  In  In67  1  0.68615190  0.85660036  0.49539702  1
  In  In68  1  0.48347942  0.32492638  0.13991135  1
  In  In69  1  0.67457692  0.85237137  0.17140550  1
  In  In70  1  0.82745867  0.14971184  0.65962103  1
  In  In71  1  0.50304753  0.48026649  0.66477989  1
  Te  Te72  1  0.08501671  0.09807992  0.07745234  1
  Te  Te73  1  0.10691885  0.08620142  0.41893641  1
  Te  Te74  1  0.08320300  0.08635316  0.75677157  1
  Te  Te75  1  0.06841621  0.41074437  0.06689179  1
  Te  Te76  1  0.07958889  0.45398370  0.40829302  1
  Te  Te77  1  0.06869847  0.41918692  0.73960605  1
  Te  Te78  1  0.09956788  0.76505149  0.05922585  1
  Te  Te79  1  0.09288671  0.76438998  0.40327394  1
  Te  Te80  1  0.07280975  0.76231535  0.75731872  1
  Te  Te81  1  0.42933453  0.08560133  0.09166485  1
  Te  Te82  1  0.43677590  0.09360664  0.41297298  1
  Te  Te83  1  0.42748900  0.07201821  0.73582855  1
  Te  Te84  1  0.39352215  0.43722499  0.09356092  1
  Te  Te85  1  0.41730581  0.42381228  0.42686530  1
  Te  Te86  1  0.40337948  0.41866576  0.76029099  1
  Te  Te87  1  0.37778088  0.79916421  0.09817999  1
  Te  Te88  1  0.41587826  0.74325851  0.41973568  1
  Te  Te89  1  0.42177214  0.75353878  0.76456786  1
  Te  Te90  1  0.71570406  0.10624048  0.12530748  1
  Te  Te91  1  0.74020671  0.07226854  0.39469409  1
  Te  Te92  1  0.75302997  0.05519288  0.74237173  1
  Te  Te93  1  0.73269676  0.41785358  0.06971143  1
  Te  Te94  1  0.76888468  0.41558155  0.42168163  1
  Te  Te95  1  0.77253561  0.38994178  0.77933878  1
  Te  Te96  1  0.73599835  0.74220514  0.08754822  1
  Te  Te97  1  0.76548743  0.74225590  0.41488763  1
  Te  Te98  1  0.74667364  0.75089378  0.74326264  1
  Te  Te99  1  0.08666930  0.24189025  0.25745725  1
  Te  Te100  1  0.09706253  0.27635905  0.55880471  1
  Te  Te101  1  0.05065392  0.25482204  0.91573384  1
  Te  Te102  1  0.07335991  0.59995069  0.22306191  1
  Te  Te103  1  0.10265987  0.61462107  0.58859599  1
  Te  Te104  1  0.05768164  0.57131692  0.91100887  1
  Te  Te105  1  0.11291547  0.90513738  0.25814136  1
  Te  Te106  1  0.08704649  0.92743595  0.58793828  1
  Te  Te107  1  0.04303610  0.90222387  0.97652287  1
  Te  Te108  1  0.41640992  0.23760438  0.24596493  1
  Te  Te109  1  0.43108813  0.26463894  0.58520308  1
  Te  Te110  1  0.41102642  0.24444495  0.92186595  1
  Te  Te111  1  0.40652808  0.58942083  0.25294730  1
  Te  Te112  1  0.42482095  0.59484089  0.59340217  1
  Te  Te113  1  0.36199774  0.62532470  0.96316075  1
  Te  Te114  1  0.42003069  0.96767695  0.23598729  1
  Te  Te115  1  0.39063257  0.90532025  0.58153719  1
  Te  Te116  1  0.42478002  0.93666441  0.89777707  1
  Te  Te117  1  0.76577965  0.22637418  0.26745178  1
  Te  Te118  1  0.76090037  0.24944492  0.56619641  1
  Te  Te119  1  0.80084099  0.21593965  0.94745250  1
  Te  Te120  1  0.75174627  0.57966800  0.26350091  1
  Te  Te121  1  0.78337169  0.54912509  0.59362419  1
  Te  Te122  1  0.72210768  0.57485953  0.92456817  1
  Te  Te123  1  0.77590691  0.93626535  0.23616287  1
  Te  Te124  1  0.76920689  0.92286252  0.59515278  1
  Te  Te125  1  0.73597706  0.89729758  0.92453220  1
  Te  Te126  1  0.26296365  0.26745418  0.08250080  1
  Te  Te127  1  0.25543383  0.25637571  0.40546043  1
  Te  Te128  1  0.25660711  0.25127381  0.72756945  1
  Te  Te129  1  0.25235442  0.57794856  0.06054553  1
  Te  Te130  1  0.20999067  0.55862341  0.39872998  1
  Te  Te131  1  0.26054977  0.60639854  0.74967665  1
  Te  Te132  1  0.25931023  0.91755775  0.06935862  1
  Te  Te133  1  0.31658040  0.90891238  0.44249122  1
  Te  Te134  1  0.23172113  0.92816663  0.76352596  1
  Te  Te135  1  0.61127430  0.24908417  0.10377998  1
  Te  Te136  1  0.58020655  0.25849245  0.40006316  1
  Te  Te137  1  0.61009450  0.23089921  0.76009145  1
  Te  Te138  1  0.56008896  0.59897329  0.09247532  1
  Te  Te139  1  0.61604770  0.54910291  0.43542087  1
  Te  Te140  1  0.58866794  0.58159861  0.74751272  1
  Te  Te141  1  0.57571512  0.91603184  0.07592844  1
  Te  Te142  1  0.58469188  0.91431772  0.40202635  1
  Te  Te143  1  0.58348481  0.91940881  0.74030049  1
  Te  Te144  1  0.89230494  0.25685799  0.06689646  1
  Te  Te145  1  0.90938054  0.22570102  0.45973807  1
  Te  Te146  1  0.91814400  0.23500100  0.74558965  1
  Te  Te147  1  0.88800356  0.57953618  0.09046380  1
  Te  Te148  1  0.97398004  0.57065073  0.42243657  1
  Te  Te149  1  0.91278272  0.56071418  0.76221311  1
  Te  Te150  1  0.94039965  0.91833539  0.08488556  1
  Te  Te151  1  0.93301732  0.92584709  0.42545961  1
  Te  Te152  1  0.93685445  0.90636575  0.76540252  1
  Te  Te153  1  0.28387181  0.03335293  0.27029265  1
  Te  Te154  1  0.25755837  0.08385278  0.58039093  1
  Te  Te155  1  0.23486458  0.09200274  0.90638510  1
  Te  Te156  1  0.23703726  0.43700729  0.25083001  1
  Te  Te157  1  0.25726291  0.41785179  0.58472666  1
  Te  Te158  1  0.21620340  0.42289981  0.89775693  1
  Te  Te159  1  0.25387004  0.75767309  0.25171686  1
  Te  Te160  1  0.21909535  0.73437780  0.55473426  1
  Te  Te161  1  0.21740057  0.76957929  0.92996610  1
  Te  Te162  1  0.60167444  0.05754249  0.20955573  1
  Te  Te163  1  0.59471199  0.06726384  0.57759474  1
  Te  Te164  1  0.60006508  0.08803807  0.91193634  1
  Te  Te165  1  0.56798425  0.41506928  0.23874328  1
  Te  Te166  1  0.58988889  0.39556393  0.58539811  1
  Te  Te167  1  0.56082969  0.40660042  0.92793967  1
  Te  Te168  1  0.57354458  0.76149688  0.25400006  1
  Te  Te169  1  0.59776070  0.74632945  0.56973717  1
  Te  Te170  1  0.56866408  0.72913321  0.92806344  1
  Te  Te171  1  0.92069352  0.08355144  0.24737523  1
  Te  Te172  1  0.94349807  0.11256467  0.55663709  1
  Te  Te173  1  0.88875541  0.07315786  0.95464792  1
  Te  Te174  1  0.92806504  0.38558683  0.25950867  1
  Te  Te175  1  0.91840785  0.43132915  0.56542313  1
  Te  Te176  1  0.96489596  0.42246920  0.94818886  1
  Te  Te177  1  0.94143791  0.78866898  0.22379877  1
  Te  Te178  1  0.90392616  0.74499530  0.59318940  1
  Te  Te179  1  0.90554566  0.73812134  0.91567165  1
