# generated using pymatgen
data_In2Te3
_symmetry_space_group_name_H-M   'P 1'
_cell_length_a   18.95659889
_cell_length_b   18.98336587
_cell_length_c   18.97617730
_cell_angle_alpha   90.18267887
_cell_angle_beta   89.94772862
_cell_angle_gamma   90.03605873
_symmetry_Int_Tables_number   1
_chemical_formula_structural   In2Te3
_chemical_formula_sum   'In72 Te108'
_cell_volume   6828.72926552
_cell_formula_units_Z   36
loop_
 _symmetry_equiv_pos_site_id
 _symmetry_equiv_pos_as_xyz
  1  'x, y, z'
loop_
 _atom_site_type_symbol
 _atom_site_label
 _atom_site_symmetry_multiplicity
 _atom_site_fract_x
 _atom_site_fract_y
 _atom_site_fract_z
 _atom_site_occupancy
  In  In0  1  -0.04165654  0.14764587  0.18732220  1
  In  In1  1  0.34383066  0.47422552  0.16435536  1
  In  In2  1  0.69913060  0.64900642  0.65075595  1
  In  In3  1  -0.01687272  0.50207653  0.17302713  1
  In  In4  1  0.66118165  0.49500079  0.50800572  1
  In  In5  1  0.84268018  0.49854796  0.01823258  1
  In  In6  1  0.16223693  0.00040307  0.48448343  1
  In  In7  1  0.14780069  0.84702673  0.34217461  1
  In  In8  1  0.30801504  0.69701083  0.64605237  1
  In  In9  1  0.16442473  0.50915619  0.33116106  1
  In  In10  1  0.64895408  0.67539191  0.03699491  1
  In  In11  1  0.51013972  0.65704298  0.49273681  1
  In  In12  1  0.82533857  0.82935932  0.36752178  1
  In  In13  1  0.18562705  0.01352596  0.80825700  1
  In  In14  1  0.82847798  0.84859986  -0.01394322  1
  In  In15  1  0.84585172  0.33079081  0.50153468  1
  In  In16  1  0.50150069  0.30984189  0.16371808  1
  In  In17  1  0.49933704  0.65107001  0.19492472  1
  In  In18  1  0.15033219  0.18158841  0.02159493  1
  In  In19  1  0.31259729  0.68712202  0.03645084  1
  In  In20  1  -0.02120172  0.31963669  0.02876222  1
  In  In21  1  0.84348877  0.50081493  0.32288986  1
  In  In22  1  0.14052428  0.84911565  0.63976700  1
  In  In23  1  0.35196339  0.15905606  0.50260488  1
  In  In24  1  0.66494257  0.01997320  0.65056092  1
  In  In25  1  0.33255675  0.49168108  0.85509521  1
  In  In26  1  0.34716533  0.34111753  0.34804831  1
  In  In27  1  0.67927688  0.47299910  0.83008821  1
  In  In28  1  0.82185759  0.30153724  0.83569131  1
  In  In29  1  0.84862370  -0.00037440  0.81663477  1
  In  In30  1  -0.01946660  0.15942640  0.47796220  1
  In  In31  1  0.67884694  0.19896112  0.45185550  1
  In  In32  1  0.66799065  0.47946088  0.19013724  1
  In  In33  1  0.71391774  0.17946707  0.19942619  1
  In  In34  1  0.32347088  0.65854018  0.32986358  1
  In  In35  1  -0.00838077  0.52045507  0.47170207  1
  In  In36  1  0.30914700  0.15841182  0.16714720  1
  In  In37  1  0.16258619  0.17349934  0.30865914  1
  In  In38  1  0.67023600  -0.01373389  0.32580579  1
  In  In39  1  0.49829095  0.66019393  0.85650554  1
  In  In40  1  0.01182774  0.49630480  0.83101778  1
  In  In41  1  0.49405241  0.15986369  0.67234432  1
  In  In42  1  0.02529036  0.15882032  0.83278806  1
  In  In43  1  0.16271342  0.50641848  0.65731970  1
  In  In44  1  0.64286425  0.32747251  -0.01336578  1
  In  In45  1  0.48957252  0.31619421  0.84187543  1
  In  In46  1  0.50783155  0.82362681  0.33421791  1
  In  In47  1  0.34324245  0.15368419  0.83076396  1
  In  In48  1  0.18091767  0.48696363  0.00275803  1
  In  In49  1  0.34795311  0.48971377  0.49634718  1
  In  In50  1  0.16614366  0.36231981  0.49311879  1
  In  In51  1  0.82496603  0.66324864  0.85010800  1
  In  In52  1  0.49476664  0.84257516  0.64761970  1
  In  In53  1  0.66012394  0.83713674  0.80214851  1
  In  In54  1  -0.02338353  0.70261927  0.61122238  1
  In  In55  1  0.64390470  0.13946674  0.84468472  1
  In  In56  1  0.15229756  0.85395736  0.02477820  1
  In  In57  1  0.66591624  0.84681015  0.19555487  1
  In  In58  1  0.14986019  0.65720322  0.84461128  1
  In  In59  1  0.49643126  0.86811563  0.01693240  1
  In  In60  1  -0.00369026  0.83722009  0.17896985  1
  In  In61  1  0.02603129  0.00859911  -0.00853121  1
  In  In62  1  0.51582008  0.49343774  0.66879634  1
  In  In63  1  -0.01645869  0.82977485  0.81389413  1
  In  In64  1  0.49548902  -0.00379732  0.48933038  1
  In  In65  1  0.51645708  0.03276591  0.16436950  1
  In  In66  1  0.34515784  0.84983949  0.83918545  1
  In  In67  1  0.32027552  0.85485299  0.18388371  1
  In  In68  1  0.17759837  0.17516790  0.66426693  1
  In  In69  1  0.82364249  -0.00606339  0.50377588  1
  In  In70  1  0.01736271  0.33608415  0.68313709  1
  In  In71  1  0.82592807  0.51410010  0.66193805  1
  Te  Te72  1  0.08264672  0.08059187  0.11002994  1
  Te  Te73  1  0.07313525  0.08017539  0.38976968  1
  Te  Te74  1  0.07756790  0.07154776  0.72070972  1
  Te  Te75  1  0.07707407  0.41416693  0.09178700  1
  Te  Te76  1  0.06363027  0.41145720  0.39482665  1
  Te  Te77  1  0.11900541  0.41089876  0.76698581  1
  Te  Te78  1  0.08015840  0.75023400  0.09227135  1
  Te  Te79  1  0.09774446  0.76369776  0.45213303  1
  Te  Te80  1  0.08194389  0.73790346  0.73489430  1
  Te  Te81  1  0.40836102  0.08794302  0.08210266  1
  Te  Te82  1  0.43286256  0.09407623  0.39965930  1
  Te  Te83  1  0.40585835  0.06269618  0.73439136  1
  Te  Te84  1  0.42473435  0.39522043  0.07213672  1
  Te  Te85  1  0.44988251  0.39495735  0.44282223  1
  Te  Te86  1  0.41625789  0.41526921  0.75293787  1
  Te  Te87  1  0.43487003  0.75423473  0.10335757  1
  Te  Te88  1  0.41000081  0.74602735  0.41954499  1
  Te  Te89  1  0.42724094  0.74754643  0.75436573  1
  Te  Te90  1  0.74238701  0.05146293  0.12783473  1
  Te  Te91  1  0.77107887  0.08723030  0.38880423  1
  Te  Te92  1  0.75354885  0.09559551  0.74727754  1
  Te  Te93  1  0.73956639  0.40602259  0.07638957  1
  Te  Te94  1  0.75650117  0.41778001  0.41630291  1
  Te  Te95  1  0.76006877  0.39377565  0.73049255  1
  Te  Te96  1  0.75273978  0.76872436  0.09245170  1
  Te  Te97  1  0.74814754  0.72882562  0.43969781  1
  Te  Te98  1  0.76989206  0.75178962  0.74075940  1
  Te  Te99  1  0.05984945  0.24489952  0.23293504  1
  Te  Te100  1  0.07956566  0.25498011  0.56838106  1
  Te  Te101  1  0.07552298  0.26970680  0.92236989  1
  Te  Te102  1  0.06858831  0.59315051  0.25671583  1
  Te  Te103  1  0.08213548  0.59629731  0.56887084  1
  Te  Te104  1  0.07003176  0.57790512  0.94496718  1
  Te  Te105  1  0.09198755  0.93240018  0.23717599  1
  Te  Te106  1  0.05020523  0.92785827  0.55360027  1
  Te  Te107  1  0.08927797  0.91293704  0.88794448  1
  Te  Te108  1  0.40725878  0.23753713  0.25758916  1
  Te  Te109  1  0.42120514  0.25503970  0.58865468  1
  Te  Te110  1  0.44290166  0.20768468  0.93428848  1
  Te  Te111  1  0.41728851  0.55248483  0.27429867  1
  Te  Te112  1  0.41555048  0.58613261  0.60035410  1
  Te  Te113  1  0.39925675  0.59312611  0.94739919  1
  Te  Te114  1  0.44021796  0.92346149  0.24529407  1
  Te  Te115  1  0.40032488  0.91173348  0.56265626  1
  Te  Te116  1  0.43208724  0.94657960  0.91055017  1
  Te  Te117  1  0.79676084  0.27934733  0.27471105  1
  Te  Te118  1  0.76228678  0.23081387  0.56928470  1
  Te  Te119  1  0.73969047  0.22152354  0.93245996  1
  Te  Te120  1  0.76604477  0.58486007  0.22652696  1
  Te  Te121  1  0.78495375  0.59199998  0.53731890  1
  Te  Te122  1  0.72938097  0.58265947  0.93592484  1
  Te  Te123  1  0.78872564  0.94360549  0.22413600  1
  Te  Te124  1  0.73749879  0.90943850  0.58784026  1
  Te  Te125  1  0.73786596  0.92937495  0.89586361  1
  Te  Te126  1  0.25110023  0.26664878  0.08545306  1
  Te  Te127  1  0.24353840  0.25121131  0.42404896  1
  Te  Te128  1  0.25498326  0.24958371  0.76179002  1
  Te  Te129  1  0.24240172  0.57669412  0.11003487  1
  Te  Te130  1  0.24530289  0.58264089  0.43615673  1
  Te  Te131  1  0.25409008  0.58724196  0.75566980  1
  Te  Te132  1  0.27086524  0.92608077  0.06629273  1
  Te  Te133  1  0.25571801  0.94407611  0.38229551  1
  Te  Te134  1  0.25354614  0.90314030  0.73071782  1
  Te  Te135  1  0.60942907  0.22779097  0.09483804  1
  Te  Te136  1  0.58130440  0.29696899  0.40178102  1
  Te  Te137  1  0.59022031  0.24711486  0.75335124  1
  Te  Te138  1  0.57174853  0.56129077  0.09742798  1
  Te  Te139  1  0.57809164  0.56126938  0.40699066  1
  Te  Te140  1  0.60229967  0.59363232  0.76243187  1
  Te  Te141  1  0.61324540  0.93832404  0.08281321  1
  Te  Te142  1  0.59918089  0.90051607  0.42748990  1
  Te  Te143  1  0.56880685  0.93909451  0.73921757  1
  Te  Te144  1  0.88667314  0.21970558  0.07884927  1
  Te  Te145  1  0.90564447  0.25310000  0.38766665  1
  Te  Te146  1  0.92467351  0.23489248  0.74584169  1
  Te  Te147  1  0.89018648  0.60192638  0.11092234  1
  Te  Te148  1  0.93993304  0.61168138  0.36645345  1
  Te  Te149  1  0.92247199  0.59072383  0.75248507  1
  Te  Te150  1  0.92717139  0.92566688  0.07009360  1
  Te  Te151  1  0.92838178  0.91630274  0.43036044  1
  Te  Te152  1  0.90161554  0.90298546  0.71955251  1
  Te  Te153  1  0.25739456  0.06381346  0.27129482  1
  Te  Te154  1  0.25403662  0.07419074  0.58223394  1
  Te  Te155  1  0.23448183  0.09393839  0.92353047  1
  Te  Te156  1  0.24399866  0.40473306  0.25663088  1
  Te  Te157  1  0.26450601  0.41086488  0.59726257  1
  Te  Te158  1  0.27303475  0.38908737  0.94207960  1
  Te  Te159  1  0.23633435  0.74986743  0.24928657  1
  Te  Te160  1  0.22177528  0.76779620  0.54118049  1
  Te  Te161  1  0.25062498  0.75053818  0.91219004  1
  Te  Te162  1  0.59612538  0.10537504  0.27033866  1
  Te  Te163  1  0.58930981  0.10519533  0.55095248  1
  Te  Te164  1  0.53778367  0.08766431  0.93159462  1
  Te  Te165  1  0.59125337  0.37498118  0.26728786  1
  Te  Te166  1  0.60446360  0.39892219  0.60295995  1
  Te  Te167  1  0.56095124  0.43213958  0.91360076  1
  Te  Te168  1  0.60636399  0.72663540  0.27128522  1
  Te  Te169  1  0.59231256  0.73957533  0.58910898  1
  Te  Te170  1  0.58712849  0.76662105  0.92422450  1
  Te  Te171  1  0.87999273  0.05807909  0.27807691  1
  Te  Te172  1  0.89379664  0.10085474  0.58005920  1
  Te  Te173  1  0.92128985  0.08833811  0.91764042  1
  Te  Te174  1  0.89026278  0.39413844  0.22617435  1
  Te  Te175  1  0.93897232  0.42925437  0.59206917  1
  Te  Te176  1  0.90388693  0.41333995  0.90166607  1
  Te  Te177  1  0.91639479  0.75575223  0.27536007  1
  Te  Te178  1  0.87262374  0.76221430  0.52015267  1
  Te  Te179  1  0.92590496  0.74589457  0.92678837  1
