# generated using pymatgen
data_In2Te3
_symmetry_space_group_name_H-M   'P 1'
_cell_length_a   18.81800528
_cell_length_b   18.81823458
_cell_length_c   18.82470398
_cell_angle_alpha   89.96131400
_cell_angle_beta   90.05507987
_cell_angle_gamma   90.00035793
_symmetry_Int_Tables_number   1
_chemical_formula_structural   In2Te3
_chemical_formula_sum   'In72 Te108'
_cell_volume   6666.23040231
_cell_formula_units_Z   36
loop_
 _symmetry_equiv_pos_site_id
 _symmetry_equiv_pos_as_xyz
  1  'x, y, z'
loop_
 _atom_site_type_symbol
 _atom_site_label
 _atom_site_symmetry_multiplicity
 _atom_site_fract_x
 _atom_site_fract_y
 _atom_site_fract_z
 _atom_site_occupancy
  In  In0  1  0.69864158  0.18594232  0.81250087  1
  In  In1  1  0.83667292  0.35320937  0.83429693  1
  In  In2  1  0.49919232  0.49829868  0.66797376  1
  In  In3  1  0.00707105  0.01196773  0.34518148  1
  In  In4  1  0.32583314  0.16251318  0.47683252  1
  In  In5  1  0.83591397  0.65937947  0.16797959  1
  In  In6  1  0.00594612  0.66700396  0.00337241  1
  In  In7  1  0.83815684  0.00693610  0.84136981  1
  In  In8  1  0.69935576  0.34654398  0.64933728  1
  In  In9  1  0.65718754  -0.01056034  0.00743209  1
  In  In10  1  0.00689721  0.17974050  0.17244963  1
  In  In11  1  0.67272925  0.80970000  0.49949550  1
  In  In12  1  0.49708166  0.34238791  0.85366527  1
  In  In13  1  0.32813354  0.84314142  0.16457343  1
  In  In14  1  0.50717959  0.83447382  0.30955396  1
  In  In15  1  0.51078921  -0.01048341  0.83013537  1
  In  In16  1  0.68476844  0.35406720  0.36489095  1
  In  In17  1  0.32012629  0.47211521  0.50591436  1
  In  In18  1  0.30417525  0.34596567  0.63956382  1
  In  In19  1  0.33131302  0.68233862  0.68014656  1
  In  In20  1  0.16785743  0.47988604  0.33761493  1
  In  In21  1  0.51243043  0.66744386  0.49136551  1
  In  In22  1  -0.02455139  0.35380823  0.30930814  1
  In  In23  1  0.84045188  0.84334911  0.67335784  1
  In  In24  1  0.32102324  0.32331859  0.04031689  1
  In  In25  1  0.68198237  0.17387426  0.18772988  1
  In  In26  1  0.51277809  0.13265111  0.02595331  1
  In  In27  1  0.83586433  0.16376361  0.64247480  1
  In  In28  1  0.16387410  0.85424803  0.33642425  1
  In  In29  1  0.16299422  0.01488920  0.48629070  1
  In  In30  1  0.33578386  0.82735642  0.84354368  1
  In  In31  1  0.32058563  0.32642489  0.33366169  1
  In  In32  1  0.15710466  -0.02954443  0.84715233  1
  In  In33  1  0.68707475  -0.00558807  0.31195747  1
  In  In34  1  0.49525075  0.31560382  0.48245573  1
  In  In35  1  0.17214787  0.67257342  0.53472367  1
  In  In36  1  0.83237207  0.64354777  0.49203931  1
  In  In37  1  0.47774674  -0.00996991  0.51834783  1
  In  In38  1  0.35997985  0.65597577  0.33729101  1
  In  In39  1  0.17061585  0.65249349  0.15757950  1
  In  In40  1  0.15828409  0.81158330  0.67689248  1
  In  In41  1  0.17610941  0.16172261  0.02467196  1
  In  In42  1  -0.00524846  0.15608731  0.85078869  1
  In  In43  1  0.65446812  0.65503889  0.65169384  1
  In  In44  1  0.66918665  0.68563844  -0.00101597  1
  In  In45  1  0.84348596  0.00756714  0.49090119  1
  In  In46  1  0.36685818  0.16734536  0.82098400  1
  In  In47  1  -0.02850689  0.00558739  0.67246399  1
  In  In48  1  0.17092646  0.82843865  0.01177805  1
  In  In49  1  0.48227167  0.33142111  0.18227120  1
  In  In50  1  0.83896771  0.51229309  0.00010174  1
  In  In51  1  0.14742344  0.34508441  0.81731274  1
  In  In52  1  0.84797286  0.18696907  0.34694366  1
  In  In53  1  0.31328815  0.51916769  0.83116318  1
  In  In54  1  0.15544171  0.49509448  0.00621709  1
  In  In55  1  0.67657433  0.64268263  0.33042489  1
  In  In56  1  0.66982659  0.33295147  -0.02199621  1
  In  In57  1  -0.02337913  0.35756981  0.65215064  1
  In  In58  1  0.65063203  0.82675199  0.82598301  1
  In  In59  1  0.49517497  0.00100889  0.15655934  1
  In  In60  1  0.51199862  0.14868021  0.66740803  1
  In  In61  1  -0.00066468  0.84581555  0.48402591  1
  In  In62  1  0.84673189  -0.02280980  0.14328325  1
  In  In63  1  0.33581793  0.66770898  -0.01133392  1
  In  In64  1  0.86346976  0.66366868  0.84003048  1
  In  In65  1  0.00437053  0.65640689  0.67788406  1
  In  In66  1  0.68128567  0.50227276  0.16674647  1
  In  In67  1  0.15285380  0.18344410  0.64565401  1
  In  In68  1  -0.00366542  0.34752722  0.02785502  1
  In  In69  1  0.32361076  -0.00435523  0.00652839  1
  In  In70  1  -0.02139097  0.65207279  0.33457313  1
  In  In71  1  0.49451105  0.65645204  0.16969823  1
  Te  Te72  1  0.08485842  0.07530472  0.10058257  1
  Te  Te73  1  0.10767113  0.11478574  0.38791032  1
  Te  Te74  1  0.08578266  0.08109473  0.75120750  1
  Te  Te75  1  0.10373158  0.40484658  0.11117762  1
  Te  Te76  1  0.06285896  0.41253998  0.41794032  1
  Te  Te77  1  0.06271420  0.43863733  0.74314256  1
  Te  Te78  1  0.07377918  0.75793000  0.10746757  1
  Te  Te79  1  0.08949621  0.74355765  0.41448424  1
  Te  Te80  1  0.06413665  0.75275906  0.77337856  1
  Te  Te81  1  0.38047764  0.10195883  0.10368176  1
  Te  Te82  1  0.42615156  0.07893095  0.41095429  1
  Te  Te83  1  0.40981834  0.05343050  0.73208298  1
  Te  Te84  1  0.43276835  0.41416853  0.07022407  1
  Te  Te85  1  0.42068529  0.42359450  0.40493744  1
  Te  Te86  1  0.40136064  0.40598916  0.74899962  1
  Te  Te87  1  0.41951852  0.75667440  0.08083376  1
  Te  Te88  1  0.42232234  0.76813027  0.41819290  1
  Te  Te89  1  0.43239188  0.74607045  0.76595075  1
  Te  Te90  1  0.74749104  0.08420879  0.08371634  1
  Te  Te91  1  0.74532252  0.09344033  0.41341718  1
  Te  Te92  1  0.75239779  0.06942060  0.73106861  1
  Te  Te93  1  0.76056373  0.40702698  0.07729580  1
  Te  Te94  1  0.77976080  0.43253319  0.44924950  1
  Te  Te95  1  0.73334475  0.43146753  0.76425633  1
  Te  Te96  1  0.76750489  0.76093767  0.08250095  1
  Te  Te97  1  0.76692254  0.74598326  0.39843400  1
  Te  Te98  1  0.75601191  0.73734438  0.74234052  1
  Te  Te99  1  0.08036299  0.24477312  0.28459845  1
  Te  Te100  1  0.06515163  0.27089922  0.56748872  1
  Te  Te101  1  0.08875643  0.25062962  0.92684525  1
  Te  Te102  1  0.08122198  0.57362724  0.25099951  1
  Te  Te103  1  0.06127122  0.57943001  0.56349427  1
  Te  Te104  1  0.08596799  0.58386345  0.91155712  1
  Te  Te105  1  0.07510585  0.92697699  0.24482499  1
  Te  Te106  1  0.07842909  0.92119288  0.59067879  1
  Te  Te107  1  0.06279424  0.91620960  0.94892103  1
  Te  Te108  1  0.41568056  0.22647377  0.26904497  1
  Te  Te109  1  0.41164541  0.24629524  0.59280994  1
  Te  Te110  1  0.41946753  0.24158627  0.94333382  1
  Te  Te111  1  0.42301059  0.55671060  0.25054264  1
  Te  Te112  1  0.40489322  0.58574737  0.57637466  1
  Te  Te113  1  0.42276261  0.58207512  0.90542271  1
  Te  Te114  1  0.40237753  0.93470524  0.26040076  1
  Te  Te115  1  0.39226493  0.88679028  0.57680473  1
  Te  Te116  1  0.42708491  0.91355291  0.93333041  1
  Te  Te117  1  0.76760260  0.27896426  0.25405186  1
  Te  Te118  1  0.73895221  0.23764261  0.55988093  1
  Te  Te119  1  0.78250533  0.24205361  0.92546296  1
  Te  Te120  1  0.78802189  0.54480433  0.27082215  1
  Te  Te121  1  0.73608585  0.55846764  0.56962076  1
  Te  Te122  1  0.74743622  0.58916880  0.90809379  1
  Te  Te123  1  0.74062188  0.89957295  0.21281390  1
  Te  Te124  1  0.75260083  0.91838654  0.57506004  1
  Te  Te125  1  0.74565691  0.90924594  0.91430908  1
  Te  Te126  1  0.22660624  0.25218559  0.13828019  1
  Te  Te127  1  0.22794934  0.26158202  0.42926696  1
  Te  Te128  1  0.25090452  0.24373127  0.75479987  1
  Te  Te129  1  0.26996052  0.56697772  0.08220221  1
  Te  Te130  1  0.24830466  0.59145142  0.42082894  1
  Te  Te131  1  0.23255997  0.58309635  0.72598462  1
  Te  Te132  1  0.22448558  0.93872226  0.10705764  1
  Te  Te133  1  0.26040135  0.94258111  0.40235427  1
  Te  Te134  1  0.25340232  0.91130511  0.74653337  1
  Te  Te135  1  0.58846117  0.25311433  0.08734582  1
  Te  Te136  1  0.59240351  0.24342462  0.39945773  1
  Te  Te137  1  0.58153887  0.26173147  0.74891849  1
  Te  Te138  1  0.58722171  0.57936696  0.07640460  1
  Te  Te139  1  0.58707320  0.56543913  0.41715900  1
  Te  Te140  1  0.57180412  0.59061172  0.75596772  1
  Te  Te141  1  0.57163908  0.89798739  0.08414332  1
  Te  Te142  1  0.59702345  0.90887823  0.40851335  1
  Te  Te143  1  0.59298757  0.92241533  0.72871284  1
  Te  Te144  1  0.90568500  0.25278946  0.09315166  1
  Te  Te145  1  0.92322600  0.28164562  0.43135032  1
  Te  Te146  1  0.91740129  0.24157558  0.74981316  1
  Te  Te147  1  0.94125466  0.56208693  0.10382170  1
  Te  Te148  1  0.93885856  0.55152045  0.43831679  1
  Te  Te149  1  0.90429985  0.56583335  0.73785610  1
  Te  Te150  1  0.93003708  0.91690679  0.03680305  1
  Te  Te151  1  0.89872290  0.90835234  0.38980568  1
  Te  Te152  1  0.93428241  0.90226373  0.77776627  1
  Te  Te153  1  0.28764671  0.14432809  0.22677960  1
  Te  Te154  1  0.25266303  0.08462776  0.58846182  1
  Te  Te155  1  0.25187896  0.08448873  0.90389948  1
  Te  Te156  1  0.25739109  0.42015664  0.23619614  1
  Te  Te157  1  0.20033856  0.43412574  0.58330280  1
  Te  Te158  1  0.25244806  0.39868488  0.91881471  1
  Te  Te159  1  0.25601038  0.74106688  0.25196672  1
  Te  Te160  1  0.26860370  0.79014203  0.56494776  1
  Te  Te161  1  0.22829030  0.73686297  0.90526690  1
  Te  Te162  1  0.57789879  0.08527063  0.25433105  1
  Te  Te163  1  0.58916265  0.07344726  0.56863781  1
  Te  Te164  1  0.59439920  0.10246717  0.89794005  1
  Te  Te165  1  0.59080187  0.41533977  0.25303440  1
  Te  Te166  1  0.57795850  0.40789882  0.57557999  1
  Te  Te167  1  0.59396564  0.43832395  0.90872709  1
  Te  Te168  1  0.60283925  0.73993682  0.23779183  1
  Te  Te169  1  0.56395096  0.76543517  0.59617615  1
  Te  Te170  1  0.56359804  0.74563355  0.91301860  1
  Te  Te171  1  0.90052274  0.07933662  0.25061325  1
  Te  Te172  1  0.94607938  0.09934300  0.55571649  1
  Te  Te173  1  0.91888220  0.07356840  0.94779600  1
  Te  Te174  1  0.90627203  0.45495669  0.22268152  1
  Te  Te175  1  0.86755563  0.42870890  0.57813499  1
  Te  Te176  1  0.93879341  0.43274500  0.91438604  1
  Te  Te177  1  0.92211466  0.75312186  0.24405917  1
  Te  Te178  1  0.91620423  0.75346289  0.57418014  1
  Te  Te179  1  0.89510765  0.75532391  0.95369750  1
