# generated using pymatgen
data_In2Te3
_symmetry_space_group_name_H-M   'P 1'
_cell_length_a   18.78480414
_cell_length_b   18.79178039
_cell_length_c   18.78786643
_cell_angle_alpha   89.90629362
_cell_angle_beta   89.93807764
_cell_angle_gamma   90.04121710
_symmetry_Int_Tables_number   1
_chemical_formula_structural   In2Te3
_chemical_formula_sum   'In72 Te108'
_cell_volume   6632.10076927
_cell_formula_units_Z   36
loop_
 _symmetry_equiv_pos_site_id
 _symmetry_equiv_pos_as_xyz
  1  'x, y, z'
loop_
 _atom_site_type_symbol
 _atom_site_label
 _atom_site_symmetry_multiplicity
 _atom_site_fract_x
 _atom_site_fract_y
 _atom_site_fract_z
 _atom_site_occupancy
  In  In0  1  0.33957131  0.00920289  0.67341221  1
  In  In1  1  0.00145747  0.16007843  0.84325126  1
  In  In2  1  0.52064914  -0.00979665  0.49830161  1
  In  In3  1  0.83504381  -0.00523971  0.48907360  1
  In  In4  1  0.17311129  0.31785477  0.18331281  1
  In  In5  1  -0.01335006  0.51080376  0.50891469  1
  In  In6  1  0.80822164  0.34840863  0.83394420  1
  In  In7  1  0.17349959  0.50052765  0.31459623  1
  In  In8  1  0.33598776  0.68846539  0.33495781  1
  In  In9  1  0.65311724  0.82140630  0.49225559  1
  In  In10  1  0.66071155  0.82568485  0.80758261  1
  In  In11  1  0.66101213  0.01377332  -0.00236272  1
  In  In12  1  0.49610545  0.16931169  0.32868105  1
  In  In13  1  0.83899623  0.50211471  0.35735690  1
  In  In14  1  0.34317491  0.33241088  0.67363024  1
  In  In15  1  0.15252659  -0.01078906  0.18245280  1
  In  In16  1  0.82608506  0.49573776  0.65864231  1
  In  In17  1  0.00232278  0.52177240  0.16466791  1
  In  In18  1  0.81312552  0.18222057  0.65917294  1
  In  In19  1  0.79971109  0.61694478  0.83720496  1
  In  In20  1  0.15179730  0.66580778  0.82417495  1
  In  In21  1  0.50335853  0.64705193  0.83179900  1
  In  In22  1  -0.00528286  0.17104566  0.48668237  1
  In  In23  1  0.34370881  0.65852437  0.64765636  1
  In  In24  1  0.50940732  0.34320423  0.81933096  1
  In  In25  1  0.49433193  -0.00070688  0.17880814  1
  In  In26  1  0.18079907  0.33020732  0.49319126  1
  In  In27  1  0.35383524  0.46266498  0.13636890  1
  In  In28  1  0.52135803  0.17083977  -0.00365936  1
  In  In29  1  0.83290129  0.84707906  0.01574916  1
  In  In30  1  0.66490833  0.48989028  0.15554636  1
  In  In31  1  0.00868622  0.66923577  0.00500709  1
  In  In32  1  0.33331339  0.84630176  0.82723996  1
  In  In33  1  0.17525137  0.85501035  0.01225452  1
  In  In34  1  0.82960485  0.31500351  0.16389647  1
  In  In35  1  0.15952621  0.33264760  0.82642803  1
  In  In36  1  0.01507129  -0.01555984  0.66610555  1
  In  In37  1  0.84275841  0.83654932  0.33945719  1
  In  In38  1  0.65657227  0.32907527  -0.00424526  1
  In  In39  1  -0.02028639  0.32944271  -0.00441945  1
  In  In40  1  0.34556348  0.66292440  0.00776253  1
  In  In41  1  0.33380436  0.17003270  0.16447386  1
  In  In42  1  0.86310934  -0.00235200  0.82464921  1
  In  In43  1  0.17120410  0.50024832  -0.01038146  1
  In  In44  1  0.83873880  0.67625443  0.16385295  1
  In  In45  1  0.00543223  0.00107755  0.02207957  1
  In  In46  1  0.18968534  0.00513658  0.83360257  1
  In  In47  1  -0.03216028  0.68336510  0.63372634  1
  In  In48  1  0.32439948  0.19017432  0.49563481  1
  In  In49  1  0.15014864  0.00476158  0.49879388  1
  In  In50  1  -0.00439531  0.81196679  0.82577644  1
  In  In51  1  0.66377815  0.17831003  0.16346464  1
  In  In52  1  0.65959195  0.19582125  0.82891009  1
  In  In53  1  0.66168779  -0.01808351  0.66276132  1
  In  In54  1  0.16096752  0.67937624  0.19376657  1
  In  In55  1  0.67344497  0.34298582  0.33808426  1
  In  In56  1  0.85727309  0.02781870  0.20005381  1
  In  In57  1  0.33763445  0.49493048  0.83312112  1
  In  In58  1  0.68004089  0.82001547  0.17889551  1
  In  In59  1  0.66681587  0.66499653  0.64533738  1
  In  In60  1  0.48648426  0.50668974  0.35289066  1
  In  In61  1  0.48531541  0.83276189  -0.01592949  1
  In  In62  1  0.33151382  -0.00589265  0.31691342  1
  In  In63  1  0.13732600  0.69249195  0.47784605  1
  In  In64  1  0.33606168  0.16445038  0.84474210  1
  In  In65  1  0.34897079  0.83312944  0.49016010  1
  In  In66  1  0.67211903  0.16629502  0.49784134  1
  In  In67  1  0.65465588  0.65168115  0.35618278  1
  In  In68  1  0.50584133  0.66198364  0.16020224  1
  In  In69  1  0.34108148  0.49392846  0.50764698  1
  In  In70  1  -0.00737851  0.31451429  0.33935766  1
  In  In71  1  0.01351119  0.34040007  0.66342052  1
  Te  Te72  1  0.10281044  0.09004808  0.08431360  1
  Te  Te73  1  0.06829957  0.07806126  0.39307768  1
  Te  Te74  1  0.09373614  0.08780755  0.74620053  1
  Te  Te75  1  0.08768328  0.41864124  0.09156428  1
  Te  Te76  1  0.08112787  0.42311349  0.41325658  1
  Te  Te77  1  0.08399487  0.43434998  0.75101170  1
  Te  Te78  1  0.08027730  0.76634331  0.09489548  1
  Te  Te79  1  0.06222008  0.79154334  0.39609090  1
  Te  Te80  1  0.08467800  0.75198126  0.72013076  1
  Te  Te81  1  0.42351827  0.08179431  0.07371369  1
  Te  Te82  1  0.41192667  0.07510333  0.42643496  1
  Te  Te83  1  0.42721501  0.10149473  0.74685680  1
  Te  Te84  1  0.45311381  0.38661651  0.06162472  1
  Te  Te85  1  0.41594656  0.39670746  0.42560744  1
  Te  Te86  1  0.43506895  0.44261373  0.72834667  1
  Te  Te87  1  0.40871737  0.76579953  0.09932448  1
  Te  Te88  1  0.43921597  0.73133922  0.43086095  1
  Te  Te89  1  0.41789913  0.74564385  0.75114025  1
  Te  Te90  1  0.75808358  0.08348331  0.09005271  1
  Te  Te91  1  0.75638982  0.08741188  0.40577953  1
  Te  Te92  1  0.75162151  0.07901300  0.75610268  1
  Te  Te93  1  0.76416644  0.41323376  0.06852140  1
  Te  Te94  1  0.72577943  0.44505227  0.43534220  1
  Te  Te95  1  0.71504648  0.42911172  0.74253743  1
  Te  Te96  1  0.73775116  0.73651602  0.06519523  1
  Te  Te97  1  0.76058264  0.73739329  0.42404232  1
  Te  Te98  1  0.76363348  0.73479507  0.74477918  1
  Te  Te99  1  0.05806706  0.23288362  0.23276376  1
  Te  Te100  1  0.09286656  0.23996785  0.58181954  1
  Te  Te101  1  0.09150157  0.24452299  0.93169506  1
  Te  Te102  1  0.06181884  0.60037288  0.28001526  1
  Te  Te103  1  0.08777339  0.59405184  0.58468068  1
  Te  Te104  1  0.06484303  0.56905382  0.90454407  1
  Te  Te105  1  0.10515364  0.88145378  0.27527062  1
  Te  Te106  1  0.07288727  0.89396720  0.56415587  1
  Te  Te107  1  0.07251152  0.91734419  0.90485938  1
  Te  Te108  1  0.41318742  0.26181308  0.25071762  1
  Te  Te109  1  0.42676419  0.26544046  0.57131417  1
  Te  Te110  1  0.42509328  0.26472796  0.92283590  1
  Te  Te111  1  0.40167326  0.57737690  0.23876470  1
  Te  Te112  1  0.44415885  0.57383720  0.57880382  1
  Te  Te113  1  0.42904921  0.55934883  0.93718175  1
  Te  Te114  1  0.43398396  0.89923595  0.26863931  1
  Te  Te115  1  0.42876470  0.91266783  0.59317970  1
  Te  Te116  1  0.40324548  0.93614826  0.91948279  1
  Te  Te117  1  0.75830548  0.23397045  0.27129024  1
  Te  Te118  1  0.73735501  0.28042166  0.57622240  1
  Te  Te119  1  0.76159300  0.23799650  0.93136954  1
  Te  Te120  1  0.74681565  0.58288797  0.25079687  1
  Te  Te121  1  0.75619032  0.58012702  0.55888032  1
  Te  Te122  1  0.70252139  0.55360646  0.92813629  1
  Te  Te123  1  0.75144554  0.92775783  0.25679945  1
  Te  Te124  1  0.76098360  0.89733165  0.58396406  1
  Te  Te125  1  0.75048696  0.91851249  0.90670498  1
  Te  Te126  1  0.25236679  0.25731572  0.07544365  1
  Te  Te127  1  0.22972032  0.23628797  0.39102904  1
  Te  Te128  1  0.24560584  0.23842869  0.74362554  1
  Te  Te129  1  0.24180510  0.58510761  0.09639075  1
  Te  Te130  1  0.24544373  0.58821418  0.41770206  1
  Te  Te131  1  0.24981897  0.58114541  0.74393827  1
  Te  Te132  1  0.26355666  0.92901480  0.10080666  1
  Te  Te133  1  0.24479630  0.91511311  0.41522603  1
  Te  Te134  1  0.23625279  0.90612954  0.72717807  1
  Te  Te135  1  0.55807665  0.27670012  0.10956568  1
  Te  Te136  1  0.57520680  0.26002981  0.42273327  1
  Te  Te137  1  0.57927484  0.25331201  0.71661576  1
  Te  Te138  1  0.58694981  0.58051207  0.06546009  1
  Te  Te139  1  0.58404176  0.56159351  0.45245172  1
  Te  Te140  1  0.59745941  0.57464568  0.74369140  1
  Te  Te141  1  0.58956419  0.90916775  0.08413169  1
  Te  Te142  1  0.59826098  0.91919953  0.39572339  1
  Te  Te143  1  0.56162035  0.91793881  0.75097955  1
  Te  Te144  1  0.92617309  0.23036407  0.09124867  1
  Te  Te145  1  0.89052348  0.25973002  0.43032589  1
  Te  Te146  1  0.91438098  0.25396352  0.75651639  1
  Te  Te147  1  0.90170384  0.57623878  0.06470625  1
  Te  Te148  1  0.92032108  0.60798740  0.41970541  1
  Te  Te149  1  0.91891946  0.58471092  0.74120561  1
  Te  Te150  1  0.92392796  0.91302482  0.11658229  1
  Te  Te151  1  0.94284464  0.91481346  0.42159311  1
  Te  Te152  1  0.90631251  0.88989716  0.72734821  1
  Te  Te153  1  0.23803921  0.09784331  0.26039234  1
  Te  Te154  1  0.24607364  0.09029185  0.58343274  1
  Te  Te155  1  0.24845399  0.08812924  0.93845523  1
  Te  Te156  1  0.27672116  0.40536973  0.25812304  1
  Te  Te157  1  0.24142248  0.42122625  0.59829794  1
  Te  Te158  1  0.26135675  0.39795594  0.92285225  1
  Te  Te159  1  0.24672689  0.78223495  0.25885974  1
  Te  Te160  1  0.24857184  0.74858419  0.56979601  1
  Te  Te161  1  0.24471148  0.74238173  0.92112613  1
  Te  Te162  1  0.59678208  0.07869672  0.25868258  1
  Te  Te163  1  0.58028557  0.09198448  0.59538405  1
  Te  Te164  1  0.57813862  0.07841591  0.88777122  1
  Te  Te165  1  0.57210414  0.42259965  0.25560535  1
  Te  Te166  1  0.62405962  0.37895682  0.62910245  1
  Te  Te167  1  0.60273258  0.43463706  0.90207952  1
  Te  Te168  1  0.57702020  0.74690227  0.26545805  1
  Te  Te169  1  0.56279627  0.75558594  0.58840772  1
  Te  Te170  1  0.58806217  0.74443042  0.91575075  1
  Te  Te171  1  0.96105778  0.09758191  0.27755480  1
  Te  Te172  1  0.91454596  0.08419456  0.59733979  1
  Te  Te173  1  0.90752564  0.08614542  0.93878368  1
  Te  Te174  1  0.91441016  0.42152881  0.24503037  1
  Te  Te175  1  0.90681716  0.39682741  0.57093173  1
  Te  Te176  1  0.91279814  0.42467359  0.90523577  1
  Te  Te177  1  0.92886173  0.75671403  0.24632376  1
  Te  Te178  1  0.89377885  0.79556325  0.57510554  1
  Te  Te179  1  0.90003858  0.74171650  0.92177298  1
