# generated using pymatgen
data_In2Te3
_symmetry_space_group_name_H-M   'P 1'
_cell_length_a   18.81587397
_cell_length_b   18.79742712
_cell_length_c   18.81447346
_cell_angle_alpha   90.04434387
_cell_angle_beta   90.01057980
_cell_angle_gamma   90.04923886
_symmetry_Int_Tables_number   1
_chemical_formula_structural   In2Te3
_chemical_formula_sum   'In72 Te108'
_cell_volume   6654.48692417
_cell_formula_units_Z   36
loop_
 _symmetry_equiv_pos_site_id
 _symmetry_equiv_pos_as_xyz
  1  'x, y, z'
loop_
 _atom_site_type_symbol
 _atom_site_label
 _atom_site_symmetry_multiplicity
 _atom_site_fract_x
 _atom_site_fract_y
 _atom_site_fract_z
 _atom_site_occupancy
  In  In0  1  0.17819971  0.35739574  0.49112785  1
  In  In1  1  0.16385760  0.82915825  0.33494887  1
  In  In2  1  0.50512314  0.63280687  0.81999988  1
  In  In3  1  0.33050441  0.00195545  0.34347214  1
  In  In4  1  0.14298735  0.47416326  0.01245750  1
  In  In5  1  0.85052186  0.82297672  0.69130754  1
  In  In6  1  0.65806525  0.50784767  0.51481658  1
  In  In7  1  0.46805310  0.34905843  0.48190563  1
  In  In8  1  0.15919933  0.15949143  0.67601638  1
  In  In9  1  0.69019352  0.83334927  0.54628340  1
  In  In10  1  0.82625170  0.32666176  0.51470767  1
  In  In11  1  0.34078129  0.33511887  -0.02154964  1
  In  In12  1  0.85092000  0.83283051  0.34628928  1
  In  In13  1  0.83591638  0.34333012  0.83636541  1
  In  In14  1  0.53953043  0.04000309  0.84726237  1
  In  In15  1  0.81026367  0.18623263  0.32213573  1
  In  In16  1  0.48278569  0.00873748  0.13485359  1
  In  In17  1  0.48391596  0.81857484  -0.02111851  1
  In  In18  1  0.18303734  0.16885996  0.00262313  1
  In  In19  1  0.47443212  0.16914494  0.31019915  1
  In  In20  1  0.67610164  0.16788421  0.50471156  1
  In  In21  1  0.50605513  0.85319546  0.66940824  1
  In  In22  1  0.32955677  0.17928487  0.16524126  1
  In  In23  1  0.49594427  0.64591055  0.14154630  1
  In  In24  1  0.16815519  0.65780313  0.49675196  1
  In  In25  1  0.49702081  0.33063288  0.16289375  1
  In  In26  1  0.52098304  0.47177836  -0.03047008  1
  In  In27  1  0.68502227  0.00871097  0.33929936  1
  In  In28  1  -0.00599092  0.47184808  0.48199930  1
  In  In29  1  0.14551259  0.64151587  0.17333194  1
  In  In30  1  0.85561712  0.84593860  -0.03428294  1
  In  In31  1  0.30906777  0.80002222  0.49914474  1
  In  In32  1  -0.00499936  0.67472340  -0.00737052  1
  In  In33  1  0.28582164  0.61598275  0.31740748  1
  In  In34  1  0.00142411  0.81576901  0.17539245  1
  In  In35  1  0.01727051  0.15483141  0.83731024  1
  In  In36  1  0.00575567  0.34411143  0.32963973  1
  In  In37  1  0.65762501  0.32121212  0.30925183  1
  In  In38  1  0.66582723  0.18539530  0.16543267  1
  In  In39  1  0.67994409  0.34305483  0.68748773  1
  In  In40  1  0.83088639  0.64672103  0.15804921  1
  In  In41  1  0.84357580  0.03105728  0.16659323  1
  In  In42  1  0.18802573  0.50159693  0.67554423  1
  In  In43  1  0.01965084  0.84791841  0.52063396  1
  In  In44  1  0.52017927  0.18854739  0.66227839  1
  In  In45  1  -0.01117067  0.51963063  0.83652118  1
  In  In46  1  0.49398891  0.85044442  0.31833548  1
  In  In47  1  0.83280846  0.00081623  0.81823385  1
  In  In48  1  0.17083353  0.31435231  0.83755959  1
  In  In49  1  0.02440227  -0.02632281  -0.02228503  1
  In  In50  1  0.69563101  0.00381196  0.67822146  1
  In  In51  1  0.32093112  0.66670872  0.01015786  1
  In  In52  1  0.84903114  0.48357824  0.32548191  1
  In  In53  1  0.31476750  0.00574801  -0.00708293  1
  In  In54  1  0.31609239  0.84721067  0.82058241  1
  In  In55  1  0.81530799  0.48315344  0.01156579  1
  In  In56  1  0.67246480  0.64557150  -0.01632672  1
  In  In57  1  0.34323982  0.15928633  0.84242557  1
  In  In58  1  -0.00074052  0.18930266  0.17460835  1
  In  In59  1  0.31835324  0.00875789  0.65485326  1
  In  In60  1  0.17030252  -0.01674980  0.16293652  1
  In  In61  1  0.47473921  0.64054915  0.50275729  1
  In  In62  1  0.13752392  0.18026438  0.36144449  1
  In  In63  1  0.49721512  0.00046367  0.46795936  1
  In  In64  1  0.67635630  0.64995716  0.34463004  1
  In  In65  1  -0.01130413  0.14005140  0.52871173  1
  In  In66  1  0.01794436  0.67567502  0.68278005  1
  In  In67  1  0.33370137  0.65350841  0.65893916  1
  In  In68  1  0.82442115  0.18683674  0.00191086  1
  In  In69  1  0.67095294  0.65794592  0.68002367  1
  In  In70  1  0.65590867  0.82933065  0.15198791  1
  In  In71  1  -0.01846731  0.33141541  0.66895073  1
  Te  Te72  1  0.08121107  0.08349076  0.08603733  1
  Te  Te73  1  0.08188448  0.06808986  0.43907486  1
  Te  Te74  1  0.05974159  0.06067937  0.72917816  1
  Te  Te75  1  0.08596339  0.40307302  0.12843434  1
  Te  Te76  1  0.11194484  0.45343447  0.38040537  1
  Te  Te77  1  0.07814710  0.41044757  0.75661926  1
  Te  Te78  1  0.09582338  0.75304839  0.07641155  1
  Te  Te79  1  0.07175169  0.73969325  0.41448760  1
  Te  Te80  1  0.04765486  0.77154578  0.79434230  1
  Te  Te81  1  0.40764569  0.11285149  0.05254523  1
  Te  Te82  1  0.39799863  0.10855231  0.42973224  1
  Te  Te83  1  0.43028691  0.07733975  0.73681589  1
  Te  Te84  1  0.41721480  0.42580338  0.07419249  1
  Te  Te85  1  0.37198608  0.44357943  0.41423922  1
  Te  Te86  1  0.44118190  0.49893095  0.76168154  1
  Te  Te87  1  0.40760569  0.76138648  0.09693001  1
  Te  Te88  1  0.41800372  0.74886787  0.40298074  1
  Te  Te89  1  0.42282684  0.75138901  0.74805763  1
  Te  Te90  1  0.73468334  0.08034552  0.07597903  1
  Te  Te91  1  0.77947972  0.08199601  0.43143004  1
  Te  Te92  1  0.73498519  0.10557721  0.77740203  1
  Te  Te93  1  0.73891282  0.39487268  0.09993213  1
  Te  Te94  1  0.74071719  0.40440787  0.41576732  1
  Te  Te95  1  0.76458546  0.44582947  0.75456717  1
  Te  Te96  1  0.75920674  0.74976857  0.06951123  1
  Te  Te97  1  0.75371057  0.74967892  0.43038170  1
  Te  Te98  1  0.73428032  0.76413863  0.76153931  1
  Te  Te99  1  0.11193048  0.27349798  0.23899116  1
  Te  Te100  1  0.07987117  0.26314033  0.57529257  1
  Te  Te101  1  0.07437086  0.25541478  0.93842445  1
  Te  Te102  1  0.07995609  0.57331458  0.28470839  1
  Te  Te103  1  0.07912691  0.56134788  0.58241688  1
  Te  Te104  1  0.09746371  0.58768454  0.91849529  1
  Te  Te105  1  0.06924671  0.92357538  0.26007529  1
  Te  Te106  1  0.11301023  0.91411926  0.61275885  1
  Te  Te107  1  0.09892304  0.87597431  0.89903080  1
  Te  Te108  1  0.38739134  0.28269206  0.26189172  1
  Te  Te109  1  0.41409715  0.25854700  0.58694612  1
  Te  Te110  1  0.43062417  0.27584922  0.87606595  1
  Te  Te111  1  0.41472283  0.57178176  0.24205794  1
  Te  Te112  1  0.42825226  0.54455352  0.61049274  1
  Te  Te113  1  0.41161011  0.57584791  0.92744033  1
  Te  Te114  1  0.39472115  0.92385524  0.22872218  1
  Te  Te115  1  0.41031697  0.90795928  0.56322596  1
  Te  Te116  1  0.41995325  0.93390812  0.89899277  1
  Te  Te117  1  0.77905934  0.28881448  0.20855744  1
  Te  Te118  1  0.75914738  0.23290117  0.61388589  1
  Te  Te119  1  0.73197191  0.28611517  0.93274490  1
  Te  Te120  1  0.74101751  0.55732358  0.24206657  1
  Te  Te121  1  0.75528441  0.60056491  0.57319487  1
  Te  Te122  1  0.75598289  0.55927204  0.89779363  1
  Te  Te123  1  0.75371410  0.91101320  0.24076718  1
  Te  Te124  1  0.79706930  0.93837982  0.58090138  1
  Te  Te125  1  0.74718685  0.93203564  0.91868686  1
  Te  Te126  1  0.24666558  0.28044203  0.08553446  1
  Te  Te127  1  0.25228893  0.26007335  0.40740554  1
  Te  Te128  1  0.26703592  0.24803835  0.74191168  1
  Te  Te129  1  0.24519407  0.56138271  0.09034604  1
  Te  Te130  1  0.28401407  0.56601823  0.46216773  1
  Te  Te131  1  0.23958702  0.60802656  0.76344575  1
  Te  Te132  1  0.24122947  0.90075427  0.06458808  1
  Te  Te133  1  0.23851059  0.91954839  0.43261317  1
  Te  Te134  1  0.22002171  0.91977332  0.72814298  1
  Te  Te135  1  0.56955858  0.24227029  0.06374257  1
  Te  Te136  1  0.57705288  0.23509284  0.41088256  1
  Te  Te137  1  0.57138269  0.27906221  0.77214262  1
  Te  Te138  1  0.59849035  0.55396251  0.07891647  1
  Te  Te139  1  0.56567625  0.56331836  0.40628979  1
  Te  Te140  1  0.58999007  0.54096325  0.73500796  1
  Te  Te141  1  0.57748570  0.91745368  0.05701670  1
  Te  Te142  1  0.60642482  0.90005967  0.41976146  1
  Te  Te143  1  0.59888559  0.92199937  0.76695558  1
  Te  Te144  1  0.92398332  0.26865000  0.07587390  1
  Te  Te145  1  0.91959038  0.25273789  0.41840814  1
  Te  Te146  1  0.91059055  0.23250215  0.75919733  1
  Te  Te147  1  0.93264595  0.56730902  0.07932266  1
  Te  Te148  1  0.91174458  0.57715127  0.41990012  1
  Te  Te149  1  0.90766821  0.59339067  0.73856762  1
  Te  Te150  1  0.91839364  0.91750415  0.09314769  1
  Te  Te151  1  0.93810732  0.92404855  0.42074792  1
  Te  Te152  1  0.94325851  0.92196644  0.75467337  1
  Te  Te153  1  0.24097587  0.08903651  0.25177116  1
  Te  Te154  1  0.24156856  0.09945140  0.56884327  1
  Te  Te155  1  0.22467911  0.07414449  0.88977852  1
  Te  Te156  1  0.29203717  0.47005043  0.27942841  1
  Te  Te157  1  0.26474745  0.39701143  0.60576011  1
  Te  Te158  1  0.24772243  0.42781397  0.90206065  1
  Te  Te159  1  0.24669515  0.74421219  0.24246031  1
  Te  Te160  1  0.21850046  0.74855018  0.60961091  1
  Te  Te161  1  0.24924461  0.75097684  0.91043357  1
  Te  Te162  1  0.57711102  0.06917409  0.24773379  1
  Te  Te163  1  0.58305067  0.06395803  0.57878043  1
  Te  Te164  1  0.58103438  0.12953559  0.95355370  1
  Te  Te165  1  0.56503868  0.42200903  0.25746485  1
  Te  Te166  1  0.58427211  0.38979518  0.57479000  1
  Te  Te167  1  0.61857664  0.38889413  0.89519597  1
  Te  Te168  1  0.58369289  0.73636766  0.24941342  1
  Te  Te169  1  0.56706247  0.73980144  0.57749557  1
  Te  Te170  1  0.58930295  0.74268231  0.90145989  1
  Te  Te171  1  0.92792760  0.09615084  0.27316316  1
  Te  Te172  1  0.88988794  0.06409876  0.60403166  1
  Te  Te173  1  0.92243949  0.08055012  0.93613306  1
  Te  Te174  1  0.95152836  0.43637654  0.22373622  1
  Te  Te175  1  0.89616942  0.43385697  0.59634070  1
  Te  Te176  1  0.93246300  0.41426004  0.93008130  1
  Te  Te177  1  0.91623350  0.72253101  0.25978483  1
  Te  Te178  1  0.92380348  0.74549142  0.58300443  1
  Te  Te179  1  0.90949416  0.73364331  0.88379594  1
