# generated using pymatgen
data_In2Te3
_symmetry_space_group_name_H-M   'P 1'
_cell_length_a   18.94143221
_cell_length_b   18.96289349
_cell_length_c   18.95641794
_cell_angle_alpha   89.92174000
_cell_angle_beta   89.95251514
_cell_angle_gamma   90.00966861
_symmetry_Int_Tables_number   1
_chemical_formula_structural   In2Te3
_chemical_formula_sum   'In72 Te108'
_cell_volume   6808.84008346
_cell_formula_units_Z   36
loop_
 _symmetry_equiv_pos_site_id
 _symmetry_equiv_pos_as_xyz
  1  'x, y, z'
loop_
 _atom_site_type_symbol
 _atom_site_label
 _atom_site_symmetry_multiplicity
 _atom_site_fract_x
 _atom_site_fract_y
 _atom_site_fract_z
 _atom_site_occupancy
  In  In0  1  0.14467006  0.50708191  0.32242071  1
  In  In1  1  0.67632926  0.85926415  0.50244839  1
  In  In2  1  0.30604270  -0.04725029  0.01612152  1
  In  In3  1  0.52458879  0.34462860  0.17417239  1
  In  In4  1  0.81835105  0.50560440  -0.03099980  1
  In  In5  1  0.52551832  0.48945217  0.00511943  1
  In  In6  1  0.03817337  0.59421897  0.68628276  1
  In  In7  1  0.33718270  0.31834600  0.02767650  1
  In  In8  1  0.30279133  0.52137776  0.17362915  1
  In  In9  1  -0.00809705  0.80496173  0.84952331  1
  In  In10  1  0.51849369  -0.00173122  0.83922113  1
  In  In11  1  0.00986061  0.49379948  0.16605441  1
  In  In12  1  0.68437365  0.84546677  0.85592902  1
  In  In13  1  0.65654455  0.11824439  0.18082425  1
  In  In14  1  0.48590762  0.50579678  0.66150589  1
  In  In15  1  0.01915170  -0.01021169  0.32424396  1
  In  In16  1  0.67368966  0.68469082  0.34979818  1
  In  In17  1  0.84649317  0.50178540  0.67307853  1
  In  In18  1  0.66478813  0.31869631  -0.01050041  1
  In  In19  1  0.30922604  0.65536000  0.34034904  1
  In  In20  1  0.16315246  0.18577721  0.30880959  1
  In  In21  1  -0.00123771  0.16045077  0.13269279  1
  In  In22  1  0.83182208  0.83293038  0.66819866  1
  In  In23  1  0.35748529  0.35184345  0.34136728  1
  In  In24  1  0.17980117  0.17860371  0.67585265  1
  In  In25  1  0.48726768  0.85790422  0.68379202  1
  In  In26  1  -0.03623623  0.15493955  0.52193641  1
  In  In27  1  0.68983152  0.51779960  0.19445709  1
  In  In28  1  0.34381291  0.15140124  0.16627281  1
  In  In29  1  0.84090284  0.32944841  0.15691230  1
  In  In30  1  0.51104393  0.85159133  0.01766975  1
  In  In31  1  0.69293348  0.34723273  0.35505394  1
  In  In32  1  0.82830696  0.32675714  0.83918659  1
  In  In33  1  0.35367660  -0.01143661  0.66899877  1
  In  In34  1  0.35858159  -0.00545855  0.32150845  1
  In  In35  1  0.49412711  0.32325749  0.49913919  1
  In  In36  1  0.13376152  0.84307222  0.66727002  1
  In  In37  1  0.32277110  0.18021539  0.82448299  1
  In  In38  1  0.82570439  0.17796998  0.33529715  1
  In  In39  1  0.34331070  0.82544102  0.52350694  1
  In  In40  1  0.16910901  0.02296205  0.83151303  1
  In  In41  1  0.16724988  0.66576448  0.15901276  1
  In  In42  1  0.87244885  0.82609465  0.31815408  1
  In  In43  1  0.34461406  0.48755985  0.85080827  1
  In  In44  1  0.34510448  0.14117019  0.47808842  1
  In  In45  1  0.87297472  0.64960944  0.49110035  1
  In  In46  1  0.15170193  0.34654666  0.49173688  1
  In  In47  1  0.71066246  0.29245064  0.68117230  1
  In  In48  1  0.68787793  0.48512435  0.51570303  1
  In  In49  1  -0.00929298  0.84423580  0.49381859  1
  In  In50  1  0.00468747  0.18601769  0.84237348  1
  In  In51  1  0.30022938  0.35200699  0.65897611  1
  In  In52  1  0.15032475  0.51074931  0.01638967  1
  In  In53  1  -0.00519853  -0.01390732  0.00060779  1
  In  In54  1  0.52314867  0.19078848  0.64664540  1
  In  In55  1  0.84227898  -0.01248973  0.15709296  1
  In  In56  1  0.68429404  0.16664990  0.50900098  1
  In  In57  1  0.48896477  0.14095937  -0.01264195  1
  In  In58  1  0.15727785  0.82589056  0.31928419  1
  In  In59  1  0.49624013  0.67677031  0.81648804  1
  In  In60  1  0.30414714  0.80492801  0.85887827  1
  In  In61  1  0.14729525  0.32375100  0.14730135  1
  In  In62  1  0.50592676  0.65041897  0.51787313  1
  In  In63  1  -0.00775475  0.66225107  0.01371581  1
  In  In64  1  0.15738180  -0.01251445  0.48850622  1
  In  In65  1  0.47484409  0.67322046  0.16148493  1
  In  In66  1  0.69423316  0.80728836  0.12928966  1
  In  In67  1  0.67113685  0.69037886  0.68724485  1
  In  In68  1  0.82830979  0.00998296  0.81509476  1
  In  In69  1  0.27314621  0.66009063  0.66722640  1
  In  In70  1  0.02784627  0.37773095  0.69235016  1
  In  In71  1  0.50758488  0.84689112  0.33775321  1
  Te  Te72  1  0.09465464  0.06810673  0.07293388  1
  Te  Te73  1  0.08558918  0.09959140  0.41462716  1
  Te  Te74  1  0.07362351  0.09027579  0.73752190  1
  Te  Te75  1  0.05387222  0.39672997  0.05579788  1
  Te  Te76  1  0.06105291  0.40799922  0.39295297  1
  Te  Te77  1  0.09315188  0.48107291  0.77604931  1
  Te  Te78  1  0.10619345  0.76157375  0.05626642  1
  Te  Te79  1  0.06970884  0.75265097  0.41099661  1
  Te  Te80  1  0.08242954  0.73093028  0.75274439  1
  Te  Te81  1  0.41257157  0.04835243  0.08019589  1
  Te  Te82  1  0.44921712  0.09987142  0.37872647  1
  Te  Te83  1  0.42606007  0.09310823  0.75123559  1
  Te  Te84  1  0.41448184  0.42793975  0.10491404  1
  Te  Te85  1  0.41039069  0.43331473  0.44959868  1
  Te  Te86  1  0.41458008  0.40175499  0.74612347  1
  Te  Te87  1  0.40559493  0.76382297  0.06961676  1
  Te  Te88  1  0.42070361  0.73785344  0.41886943  1
  Te  Te89  1  0.39307269  0.74633501  0.72848723  1
  Te  Te90  1  0.77216232  0.10114648  0.09432696  1
  Te  Te91  1  0.74031757  0.08077467  0.40232676  1
  Te  Te92  1  0.76610580  0.10203001  0.71756623  1
  Te  Te93  1  0.73295053  0.41900828  0.08379589  1
  Te  Te94  1  0.78392338  0.45845832  0.40184244  1
  Te  Te95  1  0.74529625  0.42221705  0.75240563  1
  Te  Te96  1  0.75795661  0.71318827  0.03303924  1
  Te  Te97  1  0.77266544  0.75916188  0.43949992  1
  Te  Te98  1  0.77385962  0.74616862  0.78111601  1
  Te  Te99  1  0.05004356  0.25900424  0.24363928  1
  Te  Te100  1  0.08187040  0.24057069  0.57699132  1
  Te  Te101  1  0.12921124  0.23638201  0.89634959  1
  Te  Te102  1  0.06046341  0.61571490  0.25443476  1
  Te  Te103  1  0.11105783  0.56663276  0.56090741  1
  Te  Te104  1  0.06443256  0.57714522  0.91535787  1
  Te  Te105  1  0.08186914  0.90589575  0.21901232  1
  Te  Te106  1  0.05245936  0.94564610  0.58910810  1
  Te  Te107  1  0.08633750  0.91701789  0.89902764  1
  Te  Te108  1  0.42394088  0.25493426  0.24722484  1
  Te  Te109  1  0.38305741  0.24363709  0.58973988  1
  Te  Te110  1  0.41816766  0.25597553  0.91583271  1
  Te  Te111  1  0.41300330  0.57580196  0.26344513  1
  Te  Te112  1  0.38440162  0.58921671  0.58572918  1
  Te  Te113  1  0.43657961  0.58505432  0.92153483  1
  Te  Te114  1  0.42265541  0.90000029  0.23046658  1
  Te  Te115  1  0.44196837  0.93542521  0.55668267  1
  Te  Te116  1  0.40962682  0.90865170  0.89965968  1
  Te  Te117  1  0.72869076  0.25325388  0.23956558  1
  Te  Te118  1  0.77505960  0.27947390  0.55034884  1
  Te  Te119  1  0.73987065  0.22660455  0.90269411  1
  Te  Te120  1  0.77695270  0.62555824  0.25635122  1
  Te  Te121  1  0.75020799  0.60480982  0.58720307  1
  Te  Te122  1  0.71882988  0.60447778  0.93187542  1
  Te  Te123  1  0.76019866  0.89163943  0.24252914  1
  Te  Te124  1  0.76612491  0.94062470  0.58904849  1
  Te  Te125  1  0.75877406  0.94706891  0.92925603  1
  Te  Te126  1  0.23564718  0.21931408  0.08148486  1
  Te  Te127  1  0.25477459  0.25550499  0.41515071  1
  Te  Te128  1  0.21636748  0.28842772  0.77943354  1
  Te  Te129  1  0.26556994  0.60624181  0.05497980  1
  Te  Te130  1  0.21957340  0.57858976  0.42916651  1
  Te  Te131  1  0.24242670  0.56998860  0.78005146  1
  Te  Te132  1  0.19549973  0.89748586  0.09378850  1
  Te  Te133  1  0.26419746  0.90867921  0.41525672  1
  Te  Te134  1  0.24706492  0.91035952  0.74529615  1
  Te  Te135  1  0.56925689  0.23200899  0.08472132  1
  Te  Te136  1  0.59096045  0.25042013  0.41254311  1
  Te  Te137  1  0.59679181  0.24485142  0.75954913  1
  Te  Te138  1  0.58650026  0.58664239  0.10360362  1
  Te  Te139  1  0.59766791  0.57596116  0.42552989  1
  Te  Te140  1  0.58874416  0.57796365  0.74846859  1
  Te  Te141  1  0.61946364  0.92474197  0.08272578  1
  Te  Te142  1  0.61156762  0.93549609  0.39372200  1
  Te  Te143  1  0.60827897  0.92273720  0.74310669  1
  Te  Te144  1  0.90351132  0.24249479  0.05694199  1
  Te  Te145  1  0.89935948  0.25825277  0.43737981  1
  Te  Te146  1  0.93257966  0.27042632  0.73909842  1
  Te  Te147  1  0.90239265  0.56425494  0.08427510  1
  Te  Te148  1  0.92263172  0.52740866  0.42818552  1
  Te  Te149  1  0.90951514  0.60336203  0.75699792  1
  Te  Te150  1  0.91996275  0.88611597  0.08226272  1
  Te  Te151  1  0.90642467  0.94025450  0.41274469  1
  Te  Te152  1  0.92823821  0.90829813  0.75779769  1
  Te  Te153  1  0.24434750  0.07267195  0.25166780  1
  Te  Te154  1  0.24746143  0.06793563  0.58524996  1
  Te  Te155  1  0.27636106  0.07435959  0.92245449  1
  Te  Te156  1  0.23963723  0.40008933  0.24264510  1
  Te  Te157  1  0.20705805  0.44699575  0.59067267  1
  Te  Te158  1  0.25304174  0.41602913  0.94925132  1
  Te  Te159  1  0.26405665  0.75485622  0.23744118  1
  Te  Te160  1  0.21457724  0.76003819  0.56707449  1
  Te  Te161  1  0.20396101  0.73592697  0.93654355  1
  Te  Te162  1  0.55432243  0.06406616  0.26666497  1
  Te  Te163  1  0.57928308  0.08149185  0.57107398  1
  Te  Te164  1  0.60597598  0.08591310  0.91663527  1
  Te  Te165  1  0.59128844  0.43215827  0.27675275  1
  Te  Te166  1  0.58178144  0.40816044  0.59313429  1
  Te  Te167  1  0.58021810  0.40269232  0.90277617  1
  Te  Te168  1  0.58790729  0.74963650  0.24090873  1
  Te  Te169  1  0.57793097  0.76400450  0.58852111  1
  Te  Te170  1  0.57635891  0.75750109  0.91638654  1
  Te  Te171  1  0.92341391  0.08483120  0.25215378  1
  Te  Te172  1  0.86371778  0.08012874  0.60461041  1
  Te  Te173  1  0.91779122  0.08719032  0.91524147  1
  Te  Te174  1  0.90778217  0.42361627  0.24664282  1
  Te  Te175  1  0.94391177  0.43462103  0.58439866  1
  Te  Te176  1  0.91862136  0.41367375  0.91503224  1
  Te  Te177  1  0.91175763  0.70566838  0.24649482  1
  Te  Te178  1  0.93200570  0.74471170  0.59330158  1
  Te  Te179  1  0.89539220  0.76639883  0.95973452  1
