# generated using pymatgen
data_In2Te3
_symmetry_space_group_name_H-M   'P 1'
_cell_length_a   18.79391893
_cell_length_b   18.78251889
_cell_length_c   18.78813434
_cell_angle_alpha   90.00128784
_cell_angle_beta   90.01404358
_cell_angle_gamma   90.00826149
_symmetry_Int_Tables_number   1
_chemical_formula_structural   In2Te3
_chemical_formula_sum   'In72 Te108'
_cell_volume   6632.15736924
_cell_formula_units_Z   36
loop_
 _symmetry_equiv_pos_site_id
 _symmetry_equiv_pos_as_xyz
  1  'x, y, z'
loop_
 _atom_site_type_symbol
 _atom_site_label
 _atom_site_symmetry_multiplicity
 _atom_site_fract_x
 _atom_site_fract_y
 _atom_site_fract_z
 _atom_site_occupancy
  In  In0  1  0.46219053  0.78955743  0.70082848  1
  In  In1  1  0.18590182  -0.01009207  0.85234743  1
  In  In2  1  0.34219472  0.01863958  -0.00452595  1
  In  In3  1  0.51357628  0.01190959  0.84581167  1
  In  In4  1  0.67817632  0.16919643  0.84399003  1
  In  In5  1  0.15094607  0.01555564  0.15665745  1
  In  In6  1  0.49095412  0.50634423  -0.00709550  1
  In  In7  1  0.00848213  0.18193220  0.85287961  1
  In  In8  1  0.85354725  0.82700931  0.32745527  1
  In  In9  1  0.30103937  0.47998805  0.16467956  1
  In  In10  1  0.17680175  0.33371288  0.84538347  1
  In  In11  1  0.00470450  0.48101373  0.19588603  1
  In  In12  1  0.31812260  0.82645713  0.50764679  1
  In  In13  1  0.52656956  0.47205446  0.30915771  1
  In  In14  1  0.66997794  0.47386463  0.85429131  1
  In  In15  1  0.49836448  0.83128941  -0.00095130  1
  In  In16  1  -0.02759679  0.18811830  0.46529122  1
  In  In17  1  0.83321253  0.65851314  0.16458393  1
  In  In18  1  0.67412944  0.00093122  0.69274442  1
  In  In19  1  0.16381469  0.49712788  0.68741424  1
  In  In20  1  0.17249356  0.65409356  0.85397890  1
  In  In21  1  0.84419825  0.50722538  0.66217168  1
  In  In22  1  0.67158655  0.81771672  0.84183035  1
  In  In23  1  -0.01290325  0.66946853  0.66595587  1
  In  In24  1  0.16433676  0.49199328  0.01796828  1
  In  In25  1  0.31006583  0.18822267  0.50092980  1
  In  In26  1  0.49537791  0.33803054  0.49713705  1
  In  In27  1  0.49435025  0.66873650  0.49423502  1
  In  In28  1  0.31700176  0.50757889  0.49782872  1
  In  In29  1  0.33412284  -0.00959193  0.68902782  1
  In  In30  1  0.01609928  0.83491370  0.84222537  1
  In  In31  1  0.31558668  0.65702614  0.35351910  1
  In  In32  1  0.82887648  0.85168099  0.00220598  1
  In  In33  1  0.02055543  0.19665533  0.17529445  1
  In  In34  1  0.13321905  0.00658726  0.50453166  1
  In  In35  1  0.81352687  0.64564005  0.83122455  1
  In  In36  1  0.51160214  0.02896727  0.17075084  1
  In  In37  1  0.67534630  0.85131850  0.49579670  1
  In  In38  1  0.65675997  0.66259232  0.68436734  1
  In  In39  1  0.48124191  0.51263541  0.68804696  1
  In  In40  1  0.69039833  0.20262623  0.49213516  1
  In  In41  1  0.49166286  0.35113673  0.84487505  1
  In  In42  1  0.33919586  0.00914869  0.30806551  1
  In  In43  1  0.17288211  0.66855933  0.49413113  1
  In  In44  1  0.69651656  0.47416680  0.14114456  1
  In  In45  1  -0.00332649  0.01212724  0.32967947  1
  In  In46  1  0.67926543  0.46688093  0.47255129  1
  In  In47  1  0.00069131  0.66080745  0.00930586  1
  In  In48  1  0.85983971  0.64119725  0.49474168  1
  In  In49  1  0.83319572  0.01543001  0.83244617  1
  In  In50  1  0.48583955  0.16541283  0.29583642  1
  In  In51  1  0.33275968  0.32955448  0.00126220  1
  In  In52  1  0.00267287  0.31850251  0.66928821  1
  In  In53  1  0.83359671  0.00737436  0.14206753  1
  In  In54  1  0.16301209  0.34713246  0.48086007  1
  In  In55  1  0.30823150  0.19749807  0.16799151  1
  In  In56  1  0.67432367  0.66782147  0.30195237  1
  In  In57  1  0.15916945  0.81729098  0.00453693  1
  In  In58  1  0.67476982  0.84133578  0.16500250  1
  In  In59  1  0.69814222  0.32991021  0.31465557  1
  In  In60  1  0.68178890  0.33175112  0.66135659  1
  In  In61  1  -0.00191304  0.49586682  0.46776360  1
  In  In62  1  0.48629556  0.64849531  0.15474408  1
  In  In63  1  0.84552586  0.18953324  0.01452820  1
  In  In64  1  0.83490887  0.00750991  0.49396914  1
  In  In65  1  0.64564693  0.02656397  0.33071555  1
  In  In66  1  0.16780078  0.82353303  0.33898305  1
  In  In67  1  0.49477463  0.14656855  0.66252364  1
  In  In68  1  0.51010754  -0.00422648  0.49177395  1
  In  In69  1  0.00437155  -0.01408402  0.65115731  1
  In  In70  1  0.16754695  0.17652930  0.69041573  1
  In  In71  1  0.32797278  0.81520969  0.17399827  1
  Te  Te72  1  0.07042326  0.10289352  0.07055194  1
  Te  Te73  1  0.08883395  0.11123654  0.40202049  1
  Te  Te74  1  0.07732626  0.07319195  0.75745273  1
  Te  Te75  1  0.06227347  0.40121899  0.08071450  1
  Te  Te76  1  0.05269862  0.38162204  0.38267740  1
  Te  Te77  1  0.06732234  0.41262304  0.76992025  1
  Te  Te78  1  0.07957292  0.74308829  0.10346683  1
  Te  Te79  1  0.07397652  0.75800269  0.43149066  1
  Te  Te80  1  0.09164442  0.74009131  0.75144347  1
  Te  Te81  1  0.42080964  0.11912885  0.08116190  1
  Te  Te82  1  0.41729371  0.09503317  0.42246945  1
  Te  Te83  1  0.40520565  0.09487671  0.77425509  1
  Te  Te84  1  0.41984192  0.41584926  0.09463739  1
  Te  Te85  1  0.41308597  0.42723933  0.40718906  1
  Te  Te86  1  0.39615692  0.40816985  0.74701666  1
  Te  Te87  1  0.39788282  0.73411852  0.06506807  1
  Te  Te88  1  0.41350948  0.76301742  0.40509377  1
  Te  Te89  1  0.39487528  0.71334712  0.80715659  1
  Te  Te90  1  0.74331476  0.09084973  0.06177624  1
  Te  Te91  1  0.76043471  0.10113481  0.40084831  1
  Te  Te92  1  0.76916252  0.11270765  0.73254266  1
  Te  Te93  1  0.78405961  0.37484739  0.06698752  1
  Te  Te94  1  0.79571073  0.41376058  0.39823412  1
  Te  Te95  1  0.77060137  0.41144963  0.75641336  1
  Te  Te96  1  0.74456086  0.74328020  0.07203146  1
  Te  Te97  1  0.74857715  0.74109938  0.41504099  1
  Te  Te98  1  0.76503595  0.75669552  0.73669780  1
  Te  Te99  1  0.10416547  0.28512140  0.26390958  1
  Te  Te100  1  0.09097138  0.23794984  0.57132273  1
  Te  Te101  1  0.08191056  0.27397445  0.94487527  1
  Te  Te102  1  0.07194053  0.57750303  0.28645144  1
  Te  Te103  1  0.07715551  0.57034210  0.58098658  1
  Te  Te104  1  0.06948539  0.56092495  0.91764272  1
  Te  Te105  1  0.08186886  0.91518154  0.24839974  1
  Te  Te106  1  0.10079006  0.89183539  0.58990978  1
  Te  Te107  1  0.07672800  0.93035200  0.94346832  1
  Te  Te108  1  0.40738389  0.27801132  0.24374267  1
  Te  Te109  1  0.41109750  0.25646063  0.59419076  1
  Te  Te110  1  0.41943976  0.24423597  0.91593033  1
  Te  Te111  1  0.41412891  0.57201163  0.26502327  1
  Te  Te112  1  0.39944673  0.59921530  0.59095121  1
  Te  Te113  1  0.41520080  0.58409488  0.89423439  1
  Te  Te114  1  0.42923409  0.91225115  0.23586732  1
  Te  Te115  1  0.42432604  0.91371105  0.58734596  1
  Te  Te116  1  0.41067053  0.91618165  0.90603021  1
  Te  Te117  1  0.79343044  0.24135239  0.24306173  1
  Te  Te118  1  0.78787308  0.27605379  0.57345616  1
  Te  Te119  1  0.75537704  0.27069447  0.92261669  1
  Te  Te120  1  0.76191377  0.55494013  0.25480973  1
  Te  Te121  1  0.73655302  0.58221714  0.57970946  1
  Te  Te122  1  0.75307963  0.56612658  0.94363443  1
  Te  Te123  1  0.75343718  0.92713397  0.26558542  1
  Te  Te124  1  0.76506657  0.91954422  0.59820842  1
  Te  Te125  1  0.73319286  0.93585989  0.91716441  1
  Te  Te126  1  0.21979483  0.25131692  0.06151257  1
  Te  Te127  1  0.26297674  0.27810932  0.39278386  1
  Te  Te128  1  0.26953603  0.25787856  0.75672089  1
  Te  Te129  1  0.24756292  0.59304089  0.08748723  1
  Te  Te130  1  0.21074008  0.55108523  0.39289223  1
  Te  Te131  1  0.26323359  0.57680124  0.76291420  1
  Te  Te132  1  0.25981165  0.92574956  0.09040300  1
  Te  Te133  1  0.25343579  0.93423207  0.41206241  1
  Te  Te134  1  0.23929823  0.89686048  0.75090591  1
  Te  Te135  1  0.56375106  0.18805584  0.08840344  1
  Te  Te136  1  0.57990134  0.25535376  0.40074016  1
  Te  Te137  1  0.58198003  0.24812294  0.74207893  1
  Te  Te138  1  0.59687651  0.57769044  0.08063120  1
  Te  Te139  1  0.58512275  0.58060597  0.40790628  1
  Te  Te140  1  0.57791935  0.58106011  0.78473181  1
  Te  Te141  1  0.58633050  0.93040056  0.07820949  1
  Te  Te142  1  0.57627270  0.90219127  0.39175658  1
  Te  Te143  1  0.57026322  0.90332978  0.74849051  1
  Te  Te144  1  0.93213857  0.28905509  0.09054206  1
  Te  Te145  1  0.90041234  0.26492982  0.35591166  1
  Te  Te146  1  0.91265415  0.25439104  0.76702999  1
  Te  Te147  1  0.91912097  0.55907541  0.08787445  1
  Te  Te148  1  0.93873336  0.59732262  0.37303675  1
  Te  Te149  1  0.93167357  0.57147948  0.76961415  1
  Te  Te150  1  0.92832830  0.90419841  0.09745366  1
  Te  Te151  1  0.93358697  0.91217793  0.42719164  1
  Te  Te152  1  0.91739980  0.91342311  0.75473733  1
  Te  Te153  1  0.23027388  0.10092515  0.25738900  1
  Te  Te154  1  0.25057396  0.07548338  0.58889729  1
  Te  Te155  1  0.24345355  0.10373832  0.92566163  1
  Te  Te156  1  0.22276579  0.38582115  0.24576075  1
  Te  Te157  1  0.24780890  0.40928343  0.59217642  1
  Te  Te158  1  0.26439926  0.43726574  0.91669050  1
  Te  Te159  1  0.23008468  0.72142161  0.24322482  1
  Te  Te160  1  0.25517616  0.73172240  0.60052261  1
  Te  Te161  1  0.25958301  0.76332614  0.91037937  1
  Te  Te162  1  0.62536579  0.13297643  0.21648650  1
  Te  Te163  1  0.60783651  0.08259826  0.57173733  1
  Te  Te164  1  0.58048657  0.10656553  0.93997808  1
  Te  Te165  1  0.59619679  0.37926003  0.21054747  1
  Te  Te166  1  0.57831510  0.43067050  0.58805125  1
  Te  Te167  1  0.59022374  0.39027984  0.95404772  1
  Te  Te168  1  0.56905048  0.75221574  0.23430067  1
  Te  Te169  1  0.58406896  0.75690998  0.58346072  1
  Te  Te170  1  0.58691123  0.73548680  0.92883418  1
  Te  Te171  1  0.91386850  0.09726818  0.23555917  1
  Te  Te172  1  0.92427870  0.09744397  0.57920459  1
  Te  Te173  1  0.92375767  0.08209875  0.93324694  1
  Te  Te174  1  0.89988273  0.39460772  0.26417287  1
  Te  Te175  1  0.92433987  0.41184917  0.57405277  1
  Te  Te176  1  0.84093886  0.43750879  0.94250477  1
  Te  Te177  1  0.93172530  0.74807273  0.23139473  1
  Te  Te178  1  0.90913264  0.75451402  0.57449072  1
  Te  Te179  1  0.90770077  0.74711558  0.91235677  1
