# generated using pymatgen
data_In2Te3
_symmetry_space_group_name_H-M   'P 1'
_cell_length_a   18.78125765
_cell_length_b   18.77465719
_cell_length_c   18.77413318
_cell_angle_alpha   90.00780182
_cell_angle_beta   90.05723503
_cell_angle_gamma   89.92458472
_symmetry_Int_Tables_number   1
_chemical_formula_structural   In2Te3
_chemical_formula_sum   'In72 Te108'
_cell_volume   6619.96942882
_cell_formula_units_Z   36
loop_
 _symmetry_equiv_pos_site_id
 _symmetry_equiv_pos_as_xyz
  1  'x, y, z'
loop_
 _atom_site_type_symbol
 _atom_site_label
 _atom_site_symmetry_multiplicity
 _atom_site_fract_x
 _atom_site_fract_y
 _atom_site_fract_z
 _atom_site_occupancy
  In  In0  1  0.33920242  0.34066192  0.67710600  1
  In  In1  1  0.18547192  0.17079214  0.33793335  1
  In  In2  1  0.30268300  0.19859083  0.52316396  1
  In  In3  1  0.33280469  -0.00515692  0.33460411  1
  In  In4  1  0.68329732  0.82466460  0.50420539  1
  In  In5  1  0.53107879  0.17456393  0.67699277  1
  In  In6  1  0.48199168  0.80683967  0.33142461  1
  In  In7  1  0.67897180  0.31847937  0.68141473  1
  In  In8  1  0.49675061  0.81544579  0.69523331  1
  In  In9  1  0.31517039  0.66358771  -0.02714745  1
  In  In10  1  0.66986945  0.17789023  0.83337460  1
  In  In11  1  0.00216506  0.80336355  0.50414085  1
  In  In12  1  0.48591786  0.66178241  0.84327534  1
  In  In13  1  0.83277670  0.81486153  0.34806914  1
  In  In14  1  0.84388374  0.49737707  0.00451680  1
  In  In15  1  0.01603880  0.65776730  -0.00828672  1
  In  In16  1  0.68431125  0.65599030  0.64366108  1
  In  In17  1  -0.00761861  0.16744980  0.15291825  1
  In  In18  1  0.82430780  0.17984410  0.00551448  1
  In  In19  1  0.64643401  0.48603180  0.84925134  1
  In  In20  1  0.83569327  0.17461613  0.67386192  1
  In  In21  1  0.84678336  0.35073534  0.81695375  1
  In  In22  1  -0.00101854  0.63832873  0.35076351  1
  In  In23  1  0.01298133  0.84018267  0.14954441  1
  In  In24  1  0.50764880  0.34062412  0.17583890  1
  In  In25  1  0.15937585  0.36215952  0.52251266  1
  In  In26  1  0.14694968  0.67292001  0.18698046  1
  In  In27  1  0.83271539  0.65644052  0.16143012  1
  In  In28  1  0.84938259  0.49852501  0.34022780  1
  In  In29  1  0.16118389  0.00676141  0.48022841  1
  In  In30  1  0.85317399  -0.02717294  0.83734994  1
  In  In31  1  0.66599533  0.49323228  0.17103564  1
  In  In32  1  0.14474532  0.17571606  0.65318695  1
  In  In33  1  0.48981841  -0.00896611  0.83888642  1
  In  In34  1  0.82892900  -0.00276032  0.50715828  1
  In  In35  1  0.67927748  0.50311004  0.49728107  1
  In  In36  1  0.86063777  0.00124866  0.16205514  1
  In  In37  1  0.67221359  0.19535900  0.51132683  1
  In  In38  1  0.02503478  0.17280432  0.83382419  1
  In  In39  1  0.31781060  0.34305070  -0.01285503  1
  In  In40  1  -0.00006186  0.64920320  0.65556814  1
  In  In41  1  0.68697392  0.00705462  -0.02238905  1
  In  In42  1  0.48986885  0.02572085  0.15842502  1
  In  In43  1  0.48838762  0.62307673  0.50611241  1
  In  In44  1  0.49020734  0.81806511  -0.01096707  1
  In  In45  1  0.32242179  0.81986658  0.50849040  1
  In  In46  1  0.69528575  0.21450700  0.20198208  1
  In  In47  1  0.50632984  0.02994675  0.50635908  1
  In  In48  1  0.01360011  -0.00194233  0.00017722  1
  In  In49  1  0.01882908  0.00988635  0.31682800  1
  In  In50  1  -0.00698151  0.34878284  0.34128749  1
  In  In51  1  0.34882772  0.16332742  0.15790482  1
  In  In52  1  0.30000829  0.15429092  0.84638931  1
  In  In53  1  0.50386734  0.64711882  0.17138291  1
  In  In54  1  0.48076450  0.18789599  0.02938926  1
  In  In55  1  0.28502873  0.83214913  0.13776335  1
  In  In56  1  0.17511272  0.64649168  0.48309086  1
  In  In57  1  0.47689836  0.36981491  0.47539702  1
  In  In58  1  -0.00747805  0.02041375  0.69005721  1
  In  In59  1  0.17646296  0.48585479  -0.00749920  1
  In  In60  1  0.64821749  0.82581123  0.16219603  1
  In  In61  1  0.15724056  0.82629146  0.66372717  1
  In  In62  1  0.33291338  0.49153107  0.17618570  1
  In  In63  1  0.00440580  0.82392436  0.82910954  1
  In  In64  1  0.18465575  0.34393903  0.16879795  1
  In  In65  1  0.33181494  -0.02732701  0.69326205  1
  In  In66  1  0.84281802  0.66382200  0.80642430  1
  In  In67  1  0.48672879  0.49073102  0.66763059  1
  In  In68  1  0.49699909  0.19113621  0.31574888  1
  In  In69  1  0.67599171  -0.00572342  0.35215398  1
  In  In70  1  0.65290098  0.67207465  0.00604168  1
  In  In71  1  -0.00293881  0.31587910  -0.00200978  1
  Te  Te72  1  0.09524598  0.08999682  0.08188183  1
  Te  Te73  1  0.07082089  0.11315784  0.42127346  1
  Te  Te74  1  0.11315841  0.06918940  0.76535590  1
  Te  Te75  1  0.07905760  0.41487042  0.08507069  1
  Te  Te76  1  0.06997922  0.44184703  0.43091683  1
  Te  Te77  1  0.10258902  0.44009221  0.70499029  1
  Te  Te78  1  0.10762495  0.75714719  0.06209420  1
  Te  Te79  1  0.09503960  0.74896417  0.39893801  1
  Te  Te80  1  0.09343677  0.72166368  0.75676464  1
  Te  Te81  1  0.39144667  0.05995615  0.04560455  1
  Te  Te82  1  0.40731163  0.10408472  0.41244605  1
  Te  Te83  1  0.41279573  0.09708628  0.74076556  1
  Te  Te84  1  0.41928789  0.41621865  0.07440337  1
  Te  Te85  1  0.38761171  0.46774725  0.40762895  1
  Te  Te86  1  0.40262580  0.43289501  0.77706429  1
  Te  Te87  1  0.41036118  0.74100233  0.09371403  1
  Te  Te88  1  0.39668688  0.71982751  0.41996274  1
  Te  Te89  1  0.38763160  0.73591490  0.75620013  1
  Te  Te90  1  0.74384590  0.08674426  0.09730662  1
  Te  Te91  1  0.75667572  0.10235861  0.42012663  1
  Te  Te92  1  0.76097143  0.07824595  0.76469197  1
  Te  Te93  1  0.75776150  0.41061672  0.08838798  1
  Te  Te94  1  0.75659351  0.40182638  0.41458089  1
  Te  Te95  1  0.74775508  0.44017572  0.74240528  1
  Te  Te96  1  0.75673758  0.75902631  0.07708002  1
  Te  Te97  1  0.74558255  0.72169076  0.42024200  1
  Te  Te98  1  0.74353100  0.75078929  0.74045909  1
  Te  Te99  1  0.08746832  0.25113331  0.24685692  1
  Te  Te100  1  0.06113386  0.25763994  0.56460297  1
  Te  Te101  1  0.10863755  0.25889379  0.91921812  1
  Te  Te102  1  0.08578502  0.55740785  0.26007482  1
  Te  Te103  1  0.08257369  0.55823183  0.56645618  1
  Te  Te104  1  0.10012039  0.57785010  0.89654998  1
  Te  Te105  1  0.10247599  0.91880270  0.23730664  1
  Te  Te106  1  0.07499356  0.92588021  0.57895912  1
  Te  Te107  1  0.09219118  0.90822346  0.91350438  1
  Te  Te108  1  0.38960149  0.27830720  0.25316633  1
  Te  Te109  1  0.43571043  0.24954897  0.57503203  1
  Te  Te110  1  0.40565106  0.24561356  0.90798589  1
  Te  Te111  1  0.42743970  0.56285270  0.26850551  1
  Te  Te112  1  0.38200445  0.57334548  0.59931283  1
  Te  Te113  1  0.40933109  0.56147655  0.92008854  1
  Te  Te114  1  0.41956786  0.91332350  0.23667398  1
  Te  Te115  1  0.41767304  0.91967837  0.57674499  1
  Te  Te116  1  0.39500403  0.89232585  0.90043224  1
  Te  Te117  1  0.77464329  0.29388673  0.29772979  1
  Te  Te118  1  0.78396628  0.28130055  0.57650389  1
  Te  Te119  1  0.75132106  0.27926256  0.91558326  1
  Te  Te120  1  0.74709283  0.58674559  0.26292529  1
  Te  Te121  1  0.78628783  0.56800403  0.57843808  1
  Te  Te122  1  0.74963995  0.58578817  0.91814011  1
  Te  Te123  1  0.75365603  0.91463593  0.24700793  1
  Te  Te124  1  0.75019237  0.91406018  0.59893699  1
  Te  Te125  1  0.74812705  0.89495586  0.90569364  1
  Te  Te126  1  0.24474452  0.24143499  0.07375334  1
  Te  Te127  1  0.25095506  0.28561126  0.41320770  1
  Te  Te128  1  0.23416991  0.25409486  0.74793169  1
  Te  Te129  1  0.24514065  0.58786719  0.08922878  1
  Te  Te130  1  0.25273938  0.54856925  0.40067939  1
  Te  Te131  1  0.17383886  0.55977898  0.75470350  1
  Te  Te132  1  0.24840848  0.94288201  0.05074198  1
  Te  Te133  1  0.23835529  0.89811744  0.40575759  1
  Te  Te134  1  0.23373352  0.89533370  0.77498225  1
  Te  Te135  1  0.60253240  0.26041976  0.08726842  1
  Te  Te136  1  0.57976552  0.27296818  0.41416835  1
  Te  Te137  1  0.56269791  0.28670874  0.77984966  1
  Te  Te138  1  0.57204491  0.55970227  0.06571016  1
  Te  Te139  1  0.57790455  0.56023774  0.40540244  1
  Te  Te140  1  0.58472388  0.58716142  0.74311871  1
  Te  Te141  1  0.57806429  0.92680282  0.07056045  1
  Te  Te142  1  0.56526101  0.91085468  0.41561113  1
  Te  Te143  1  0.58156561  0.92469080  0.74518645  1
  Te  Te144  1  0.89278002  0.27302715  0.10485640  1
  Te  Te145  1  0.88797866  0.26474698  0.40349082  1
  Te  Te146  1  0.94443975  0.26228515  0.73935565  1
  Te  Te147  1  0.94207187  0.57381879  0.09542645  1
  Te  Te148  1  0.90885681  0.57900111  0.45291381  1
  Te  Te149  1  0.92740278  0.55228570  0.74990129  1
  Te  Te150  1  0.90672455  0.90305880  0.05699671  1
  Te  Te151  1  0.92571944  0.92013797  0.41073229  1
  Te  Te152  1  0.91740749  0.89264831  0.72342342  1
  Te  Te153  1  0.24787649  0.07527739  0.23676512  1
  Te  Te154  1  0.25535382  0.06666825  0.58569755  1
  Te  Te155  1  0.24525906  0.05649150  0.94094504  1
  Te  Te156  1  0.21981872  0.45111199  0.27099350  1
  Te  Te157  1  0.27393115  0.43858843  0.58521977  1
  Te  Te158  1  0.25142539  0.42322873  0.87930020  1
  Te  Te159  1  0.26294625  0.73998866  0.24975287  1
  Te  Te160  1  0.24684640  0.72203609  0.59742016  1
  Te  Te161  1  0.27343654  0.77220667  0.88314729  1
  Te  Te162  1  0.59395932  0.08857782  0.25430695  1
  Te  Te163  1  0.61914648  0.07792914  0.59761036  1
  Te  Te164  1  0.57417843  0.09952847  0.92354625  1
  Te  Te165  1  0.58180654  0.42378108  0.27277302  1
  Te  Te166  1  0.58677718  0.40711732  0.58668027  1
  Te  Te167  1  0.58801080  0.36919978  0.91471339  1
  Te  Te168  1  0.59653294  0.72858462  0.26603069  1
  Te  Te169  1  0.56435813  0.74392871  0.57603002  1
  Te  Te170  1  0.59424092  0.75860242  0.89482966  1
  Te  Te171  1  0.90774019  0.10262424  0.26400400  1
  Te  Te172  1  0.92464954  0.09539377  0.57699913  1
  Te  Te173  1  0.91423799  0.09769251  0.91396781  1
  Te  Te174  1  0.92309287  0.42611548  0.23403267  1
  Te  Te175  1  0.96601210  0.43754811  0.64810898  1
  Te  Te176  1  0.94186988  0.42836826  0.90872633  1
  Te  Te177  1  0.92798487  0.74871994  0.24578125  1
  Te  Te178  1  0.90121051  0.74049991  0.58847116  1
  Te  Te179  1  0.91187338  0.74227710  0.91909325  1
