# generated using pymatgen
data_In2Te3
_symmetry_space_group_name_H-M   'P 1'
_cell_length_a   18.95154155
_cell_length_b   18.95851702
_cell_length_c   18.94625500
_cell_angle_alpha   89.99726117
_cell_angle_beta   89.96207937
_cell_angle_gamma   90.03583859
_symmetry_Int_Tables_number   1
_chemical_formula_structural   In2Te3
_chemical_formula_sum   'In72 Te108'
_cell_volume   6807.25629999
_cell_formula_units_Z   36
loop_
 _symmetry_equiv_pos_site_id
 _symmetry_equiv_pos_as_xyz
  1  'x, y, z'
loop_
 _atom_site_type_symbol
 _atom_site_label
 _atom_site_symmetry_multiplicity
 _atom_site_fract_x
 _atom_site_fract_y
 _atom_site_fract_z
 _atom_site_occupancy
  In  In0  1  0.34881484  0.50792993  0.87112743  1
  In  In1  1  0.64624509  0.79487840  0.85444690  1
  In  In2  1  0.48479411  0.16177275  0.32853488  1
  In  In3  1  0.66371206  0.34713808  -0.00467474  1
  In  In4  1  0.85673184  -0.00682873  0.49802453  1
  In  In5  1  0.20511002  0.68829836  0.86982139  1
  In  In6  1  0.67029257  0.16927563  0.81563551  1
  In  In7  1  0.82154765  0.65639126  0.82964293  1
  In  In8  1  0.19713527  0.83963126  0.67615147  1
  In  In9  1  0.50116258  -0.00681829  0.48197448  1
  In  In10  1  0.81929876  0.50569323  0.32480130  1
  In  In11  1  0.12438081  0.85628710  0.30638366  1
  In  In12  1  0.47509312  0.00472222  0.84010749  1
  In  In13  1  0.34496238  0.32612170  0.68825417  1
  In  In14  1  0.16605102  -0.01829748  0.83161903  1
  In  In15  1  0.15901308  0.13324839  0.33095722  1
  In  In16  1  0.85911865  0.32815983  0.85094871  1
  In  In17  1  0.15915705  0.45883165  0.68340248  1
  In  In18  1  0.15821185  0.49146534  -0.01504762  1
  In  In19  1  0.01729743  0.16200599  0.51129666  1
  In  In20  1  0.17448990  0.33922770  0.48211952  1
  In  In21  1  0.67573243  -0.00790079  0.01730501  1
  In  In22  1  0.85106579  0.82839715  0.00727672  1
  In  In23  1  0.01153140  0.15633489  0.17332602  1
  In  In24  1  0.65928837  0.00180883  0.66935979  1
  In  In25  1  0.84301234  0.13861640  0.01013463  1
  In  In26  1  -0.02149573  0.84522751  0.48183172  1
  In  In27  1  0.16431953  0.50354651  0.29594389  1
  In  In28  1  0.50160434  0.67152497  0.51866009  1
  In  In29  1  0.17635302  0.31322024  0.17284603  1
  In  In30  1  0.33737490  0.83473230  0.17809487  1
  In  In31  1  0.01112496  0.00544592  0.65281310  1
  In  In32  1  0.51264083  0.18769785  -0.00181891  1
  In  In33  1  -0.03228832  0.49669323  0.16080233  1
  In  In34  1  0.81206967  0.32985864  0.49929368  1
  In  In35  1  0.33961092  0.47058832  0.12430932  1
  In  In36  1  0.33457104  0.65751954  0.70540723  1
  In  In37  1  0.82965112  0.84574030  0.68365076  1
  In  In38  1  0.33501006  0.66850760  0.34483248  1
  In  In39  1  0.81507228  0.65716181  0.50666275  1
  In  In40  1  0.33579690  0.16949730  0.50610315  1
  In  In41  1  0.49292602  0.82916501  0.66026381  1
  In  In42  1  0.14398047  0.69902434  0.49897307  1
  In  In43  1  0.33176126  0.85044257  0.50464965  1
  In  In44  1  -0.00166731  0.32194036  0.67535564  1
  In  In45  1  -0.00719706  0.51153213  0.49229113  1
  In  In46  1  0.67171577  0.17206612  0.51184608  1
  In  In47  1  0.02784531  0.00406662  0.00680580  1
  In  In48  1  0.31957805  -0.03100205  0.00928902  1
  In  In49  1  0.65436025  -0.01305652  0.33164445  1
  In  In50  1  0.34838631  0.50806042  0.47580782  1
  In  In51  1  0.02735175  0.31996970  -0.01691149  1
  In  In52  1  0.65393783  0.67429394  0.33166461  1
  In  In53  1  0.65045338  0.51145380  0.83365431  1
  In  In54  1  0.00589693  0.66763582  0.68782499  1
  In  In55  1  0.32694208  0.15939137  0.83419265  1
  In  In56  1  0.17841577  0.01056035  0.50423139  1
  In  In57  1  0.85943306  -0.00416111  0.85411185  1
  In  In58  1  0.52439099  0.37260672  0.51534984  1
  In  In59  1  0.15355392  0.67532547  0.14565957  1
  In  In60  1  0.80476775  0.49435008  0.67794517  1
  In  In61  1  0.81744557  0.32872092  0.16328345  1
  In  In62  1  0.51735922  0.34440831  0.83579888  1
  In  In63  1  0.65741110  0.35290477  0.32514323  1
  In  In64  1  0.85748132  0.17620693  0.34358909  1
  In  In65  1  0.00269647  0.69469512  0.00791173  1
  In  In66  1  0.50060339  0.49728298  0.31358991  1
  In  In67  1  0.83715257  0.70079641  0.18984169  1
  In  In68  1  0.65459793  0.83140005  0.16826990  1
  In  In69  1  0.48869269  0.66459562  0.13909151  1
  In  In70  1  0.49890044  -0.01413036  0.15667472  1
  In  In71  1  0.32366971  0.16601653  0.16305079  1
  Te  Te72  1  0.10659434  0.11094799  0.07183991  1
  Te  Te73  1  0.06148599  0.05259565  0.41682614  1
  Te  Te74  1  0.09754190  0.07895534  0.74317984  1
  Te  Te75  1  0.08401203  0.41736106  0.10113281  1
  Te  Te76  1  0.08054945  0.42732586  0.40154650  1
  Te  Te77  1  0.06404482  0.40506676  0.78503170  1
  Te  Te78  1  0.10990857  0.78725345  0.05649529  1
  Te  Te79  1  0.05288868  0.74905672  0.38971624  1
  Te  Te80  1  0.11131556  0.74886356  0.76170446  1
  Te  Te81  1  0.42222536  0.07670565  0.06184824  1
  Te  Te82  1  0.39373551  0.06919594  0.40650638  1
  Te  Te83  1  0.44240854  0.11681874  0.75079761  1
  Te  Te84  1  0.45133513  0.39598058  0.06978919  1
  Te  Te85  1  0.42280885  0.40059975  0.40315696  1
  Te  Te86  1  0.42260777  0.43528459  0.75729572  1
  Te  Te87  1  0.38221005  0.74362735  0.06758081  1
  Te  Te88  1  0.42294981  0.76269530  0.42111135  1
  Te  Te89  1  0.44112538  0.73910960  0.76852323  1
  Te  Te90  1  0.75804086  0.07116178  0.10915593  1
  Te  Te91  1  0.75297269  0.08242646  0.42124460  1
  Te  Te92  1  0.76614896  0.06840150  0.75436632  1
  Te  Te93  1  0.75290139  0.42883681  0.07890697  1
  Te  Te94  1  0.73221210  0.43650585  0.42814289  1
  Te  Te95  1  0.74313825  0.40232456  0.77995818  1
  Te  Te96  1  0.74423327  0.74721853  0.07745934  1
  Te  Te97  1  0.76014772  0.74831474  0.40413468  1
  Te  Te98  1  0.73344438  0.74283113  0.74051091  1
  Te  Te99  1  0.08084179  0.24998655  0.27176179  1
  Te  Te100  1  0.10741976  0.25488910  0.58923791  1
  Te  Te101  1  0.10786869  0.27936426  0.86721959  1
  Te  Te102  1  0.05950240  0.59419151  0.23564237  1
  Te  Te103  1  0.08716187  0.57718360  0.59342443  1
  Te  Te104  1  0.08364163  0.60341015  0.91590553  1
  Te  Te105  1  0.03051115  0.92407099  0.21428570  1
  Te  Te106  1  0.09129739  0.89166200  0.57892528  1
  Te  Te107  1  0.08826411  0.89576544  0.92536930  1
  Te  Te108  1  0.42262816  0.25013757  0.23096218  1
  Te  Te109  1  0.42858319  0.26823144  0.57590880  1
  Te  Te110  1  0.41496442  0.26003554  0.91105044  1
  Te  Te111  1  0.39647298  0.58193760  0.23654502  1
  Te  Te112  1  0.40912421  0.57866621  0.59439808  1
  Te  Te113  1  0.43366773  0.62752863  0.88858659  1
  Te  Te114  1  0.41959317  0.92252249  0.26170318  1
  Te  Te115  1  0.41057956  0.93881721  0.59680467  1
  Te  Te116  1  0.41321368  0.89358100  0.91809812  1
  Te  Te117  1  0.74578725  0.24231480  0.26547671  1
  Te  Te118  1  0.73649865  0.26402507  0.60500238  1
  Te  Te119  1  0.75293714  0.23196212  0.92849358  1
  Te  Te120  1  0.73432856  0.59061397  0.23415670  1
  Te  Te121  1  0.71851457  0.57809321  0.58904129  1
  Te  Te122  1  0.75160358  0.56799642  0.92236910  1
  Te  Te123  1  0.74735130  0.91947765  0.23872828  1
  Te  Te124  1  0.74973485  0.91848291  0.57933036  1
  Te  Te125  1  0.74826534  0.90379517  0.90806305  1
  Te  Te126  1  0.25020661  0.24874502  0.06506123  1
  Te  Te127  1  0.25057720  0.23758018  0.40045232  1
  Te  Te128  1  0.23681822  0.25619460  0.76184003  1
  Te  Te129  1  0.24770198  0.58029760  0.07177909  1
  Te  Te130  1  0.22708129  0.58083516  0.41517603  1
  Te  Te131  1  0.23078563  0.56569889  0.76834684  1
  Te  Te132  1  0.23013931  0.91537840  0.11455556  1
  Te  Te133  1  0.23152450  0.90657185  0.40763670  1
  Te  Te134  1  0.28192508  0.92087476  0.76107108  1
  Te  Te135  1  0.61920936  0.23833876  0.08352694  1
  Te  Te136  1  0.58247466  0.25038402  0.41644174  1
  Te  Te137  1  0.56826679  0.24318604  0.73955516  1
  Te  Te138  1  0.57168110  0.58415328  0.04942385  1
  Te  Te139  1  0.57278865  0.57992696  0.41838604  1
  Te  Te140  1  0.59633633  0.57453712  0.71257083  1
  Te  Te141  1  0.56856894  0.89204112  0.05863016  1
  Te  Te142  1  0.59124883  0.89274162  0.42549684  1
  Te  Te143  1  0.58520771  0.91248317  0.76795929  1
  Te  Te144  1  0.92476553  0.25374723  0.07980584  1
  Te  Te145  1  0.93515842  0.26679485  0.43642414  1
  Te  Te146  1  0.90862223  0.23456698  0.75004341  1
  Te  Te147  1  0.90303398  0.60757324  0.08277809  1
  Te  Te148  1  0.91108430  0.59969029  0.40085648  1
  Te  Te149  1  0.91813674  0.56435424  0.75440587  1
  Te  Te150  1  0.91523414  0.93845147  0.08346286  1
  Te  Te151  1  0.87314763  0.89178510  0.39069734  1
  Te  Te152  1  0.94263558  0.91422939  0.75497350  1
  Te  Te153  1  0.24133104  0.06372177  0.23156798  1
  Te  Te154  1  0.25439416  0.09010363  0.59895908  1
  Te  Te155  1  0.24438178  0.07292767  0.92702864  1
  Te  Te156  1  0.26923042  0.40739184  0.24877377  1
  Te  Te157  1  0.26594040  0.41836784  0.57717621  1
  Te  Te158  1  0.26049216  0.40514764  0.92615627  1
  Te  Te159  1  0.23129473  0.74382184  0.26382941  1
  Te  Te160  1  0.27046752  0.73092035  0.58396053  1
  Te  Te161  1  0.29571514  0.78057296  0.93992167  1
  Te  Te162  1  0.58073023  0.08329000  0.24093063  1
  Te  Te163  1  0.56825152  0.08612058  0.58215865  1
  Te  Te164  1  0.59455178  0.07492060  0.91620810  1
  Te  Te165  1  0.58613876  0.42494250  0.21958205  1
  Te  Te166  1  0.58950583  0.44983827  0.62077402  1
  Te  Te167  1  0.54144959  0.44483248  0.95566781  1
  Te  Te168  1  0.55312981  0.75060088  0.24691813  1
  Te  Te169  1  0.59505417  0.77204817  0.57182558  1
  Te  Te170  1  0.57469979  0.68769227  0.93239134  1
  Te  Te171  1  0.92616309  0.07571851  0.26249257  1
  Te  Te172  1  0.90640892  0.09970549  0.59411806  1
  Te  Te173  1  0.95030324  0.10138140  0.91046051  1
  Te  Te174  1  0.90939093  0.40133410  0.26306896  1
  Te  Te175  1  0.91484153  0.42323487  0.58797915  1
  Te  Te176  1  0.92675784  0.41937008  0.94341769  1
  Te  Te177  1  0.95428336  0.79350673  0.18936330  1
  Te  Te178  1  0.91707967  0.74827220  0.59161154  1
  Te  Te179  1  0.91946507  0.75493089  0.89459218  1
