# generated using pymatgen
data_In2Te3
_symmetry_space_group_name_H-M   'P 1'
_cell_length_a   18.85385225
_cell_length_b   18.85240106
_cell_length_c   18.85854747
_cell_angle_alpha   90.00985986
_cell_angle_beta   90.11290912
_cell_angle_gamma   90.00541407
_symmetry_Int_Tables_number   1
_chemical_formula_structural   In2Te3
_chemical_formula_sum   'In72 Te108'
_cell_volume   6703.07620949
_cell_formula_units_Z   36
loop_
 _symmetry_equiv_pos_site_id
 _symmetry_equiv_pos_as_xyz
  1  'x, y, z'
loop_
 _atom_site_type_symbol
 _atom_site_label
 _atom_site_symmetry_multiplicity
 _atom_site_fract_x
 _atom_site_fract_y
 _atom_site_fract_z
 _atom_site_occupancy
  In  In0  1  0.32218803  0.46729193  0.16150796  1
  In  In1  1  0.17065039  0.32571680  0.49441320  1
  In  In2  1  0.00914548  0.01738508  0.33683266  1
  In  In3  1  0.65768941  0.47907703  0.51831545  1
  In  In4  1  0.48115510  0.64641449  0.14375835  1
  In  In5  1  0.53033612  0.84599866  0.33357364  1
  In  In6  1  0.16625716  0.51123842  0.32226254  1
  In  In7  1  0.37818053  0.01040030  0.65732652  1
  In  In8  1  0.82189582  0.19122130  0.68033702  1
  In  In9  1  0.52081870  0.30828490  0.17950879  1
  In  In10  1  0.51684577  0.01237387  0.83979641  1
  In  In11  1  0.33805792  0.15637871  0.83420889  1
  In  In12  1  0.80085766  0.04099197  0.48175767  1
  In  In13  1  0.33804387  0.84339202  0.82439189  1
  In  In14  1  0.33565581  0.31959560  0.00833856  1
  In  In15  1  -0.01757441  0.83174835  0.49508492  1
  In  In16  1  0.52783037  0.01060506  0.16401573  1
  In  In17  1  -0.03310667  0.34049058  0.33623883  1
  In  In18  1  0.17211728  0.83179220  0.68953494  1
  In  In19  1  0.81250336  0.67488980  0.50407621  1
  In  In20  1  0.66747621  0.63445662  0.66691315  1
  In  In21  1  0.65137860  0.85591663  0.50644089  1
  In  In22  1  0.17083287  0.49727154  0.65976548  1
  In  In23  1  0.16441651  0.66975926  0.81877101  1
  In  In24  1  0.52052738  0.48060887  0.65369279  1
  In  In25  1  0.79728119  0.47482280  0.00711530  1
  In  In26  1  0.16657247  0.48665801  0.02751412  1
  In  In27  1  0.35622430  0.67295516  0.34280114  1
  In  In28  1  0.34628215  0.49648060  0.50226698  1
  In  In29  1  0.48616393  0.16720843  0.35790612  1
  In  In30  1  0.13146104  0.66660071  0.19236469  1
  In  In31  1  -0.00175235  -0.00757385  0.00572635  1
  In  In32  1  0.66314080  0.17990970  0.83650286  1
  In  In33  1  0.67252060  0.67782900  -0.01745494  1
  In  In34  1  0.16042023  0.33125059  0.83855090  1
  In  In35  1  -0.01851412  0.20734618  0.83266713  1
  In  In36  1  0.16479673  0.67841709  0.54600578  1
  In  In37  1  0.16990470  0.85416648  0.35898386  1
  In  In38  1  -0.03296375  0.45953502  0.52944839  1
  In  In39  1  0.32823672  0.01243488  0.00928588  1
  In  In40  1  0.67755594  0.86337791  0.18225958  1
  In  In41  1  0.84524776  0.66639676  0.82405246  1
  In  In42  1  0.35543048  0.49707508  0.81137807  1
  In  In43  1  -0.02663865  0.82642453  0.14779922  1
  In  In44  1  0.32884458  0.84966365  0.16940220  1
  In  In45  1  0.48956187  0.67259598  0.81367387  1
  In  In46  1  0.50260141  0.67983523  0.49793412  1
  In  In47  1  0.68727633  0.31873516  0.31118955  1
  In  In48  1  -0.00382130  0.20005977  0.49839260  1
  In  In49  1  0.66901331  0.84515291  0.83240340  1
  In  In50  1  0.81374098  0.16213828  0.02245185  1
  In  In51  1  0.15724783  0.31998100  0.16099107  1
  In  In52  1  0.62977318  0.01284809  0.62481341  1
  In  In53  1  0.18326452  0.16147861  0.33584941  1
  In  In54  1  -0.01883928  -0.00076571  0.68309049  1
  In  In55  1  -0.00160243  0.65735073  0.31440161  1
  In  In56  1  0.51656838  0.17089866  -0.00488975  1
  In  In57  1  0.15695503  -0.00620459  0.86025504  1
  In  In58  1  -0.01579255  0.66925359  -0.01490250  1
  In  In59  1  0.16404768  0.01537436  0.17978097  1
  In  In60  1  -0.02739677  0.49394758  0.85427091  1
  In  In61  1  -0.02849160  0.16445444  0.16734315  1
  In  In62  1  0.51524016  0.46041165  0.33401014  1
  In  In63  1  0.50139187  0.35005180  0.52167624  1
  In  In64  1  0.68040902  0.67121248  0.33131308  1
  In  In65  1  0.55223584  0.46145482  -0.02632262  1
  In  In66  1  0.17092067  0.16342523  0.66626917  1
  In  In67  1  0.85360915  0.67178071  0.15514256  1
  In  In68  1  0.84223878  0.49871737  0.31630377  1
  In  In69  1  0.19744201  -0.00935262  0.52385715  1
  In  In70  1  0.32747236  0.66950166  -0.01678210  1
  In  In71  1  0.82512437  -0.00244056  0.82981529  1
  Te  Te72  1  0.07951966  0.09644774  0.08290606  1
  Te  Te73  1  0.09394464  0.08346750  0.44674545  1
  Te  Te74  1  0.07408991  0.09420314  0.76328177  1
  Te  Te75  1  0.06444091  0.39043021  0.07004874  1
  Te  Te76  1  0.07736308  0.42298305  0.41927288  1
  Te  Te77  1  0.07751194  0.42867168  0.75724512  1
  Te  Te78  1  0.08280512  0.74819226  0.07496689  1
  Te  Te79  1  0.08769148  0.73712187  0.41710626  1
  Te  Te80  1  0.06612433  0.74160186  0.73695500  1
  Te  Te81  1  0.42245224  0.09826881  0.09091965  1
  Te  Te82  1  0.48405796  0.04748329  0.45740258  1
  Te  Te83  1  0.45310652  0.11258828  0.74483698  1
  Te  Te84  1  0.43963272  0.41293527  0.08078091  1
  Te  Te85  1  0.40321456  0.39256740  0.40826119  1
  Te  Te86  1  0.43290076  0.39601847  0.73890163  1
  Te  Te87  1  0.41114055  0.76195554  0.07282421  1
  Te  Te88  1  0.41984514  0.78343356  0.42480930  1
  Te  Te89  1  0.40965734  0.76079703  0.72684590  1
  Te  Te90  1  0.73635842  0.08392734  0.12582428  1
  Te  Te91  1  0.71336896  0.09850222  0.37489943  1
  Te  Te92  1  0.73092923  0.07831928  0.73508871  1
  Te  Te93  1  0.70695287  0.38491654  0.08464603  1
  Te  Te94  1  0.75056504  0.42064186  0.40786677  1
  Te  Te95  1  0.70273781  0.39952535  0.75190671  1
  Te  Te96  1  0.74549254  0.75701772  0.09032191  1
  Te  Te97  1  0.74878625  0.77829903  0.41147866  1
  Te  Te98  1  0.74114532  0.74506063  0.74237080  1
  Te  Te99  1  0.07061446  0.23874564  0.26833930  1
  Te  Te100  1  0.08084835  0.26991417  0.60500483  1
  Te  Te101  1  0.07636554  0.25869593  0.93439840  1
  Te  Te102  1  0.05220074  0.54169162  0.22593554  1
  Te  Te103  1  0.06428285  0.57302579  0.58167052  1
  Te  Te104  1  0.09758252  0.57677237  0.92189394  1
  Te  Te105  1  0.07653803  0.90190909  0.24753079  1
  Te  Te106  1  0.07957578  0.91616214  0.58735185  1
  Te  Te107  1  0.05670743  0.89847787  0.90702650  1
  Te  Te108  1  0.41257815  0.24230483  0.25193952  1
  Te  Te109  1  0.44739160  0.22956233  0.58328907  1
  Te  Te110  1  0.42935533  0.25824577  0.90548118  1
  Te  Te111  1  0.41353508  0.55761270  0.25863571  1
  Te  Te112  1  0.42572419  0.58859403  0.59201005  1
  Te  Te113  1  0.42834538  0.57192342  0.92492368  1
  Te  Te114  1  0.42991048  0.92775022  0.25119698  1
  Te  Te115  1  0.46394660  0.93585076  0.56391537  1
  Te  Te116  1  0.41990044  0.92822021  0.92151420  1
  Te  Te117  1  0.73167493  0.19534805  0.23479568  1
  Te  Te118  1  0.76941691  0.24516579  0.55047465  1
  Te  Te119  1  0.77246564  0.25296059  0.90844531  1
  Te  Te120  1  0.75125377  0.58459174  0.22941822  1
  Te  Te121  1  0.77093350  0.55501814  0.59006412  1
  Te  Te122  1  0.74845112  0.57569283  0.90242565  1
  Te  Te123  1  0.76411149  0.96715727  0.24228580  1
  Te  Te124  1  0.75692337  0.93448597  0.58369580  1
  Te  Te125  1  0.74381204  0.92572208  0.93081682  1
  Te  Te126  1  0.26040379  0.23449787  0.10054768  1
  Te  Te127  1  0.26676682  0.23073767  0.43575858  1
  Te  Te128  1  0.25923100  0.25670794  0.75010436  1
  Te  Te129  1  0.25496097  0.59327772  0.10104265  1
  Te  Te130  1  0.25034959  0.58903259  0.42657181  1
  Te  Te131  1  0.26491911  0.59256822  0.73444025  1
  Te  Te132  1  0.22874654  0.91942987  0.07802148  1
  Te  Te133  1  0.27468909  0.94673264  0.40496047  1
  Te  Te134  1  0.25793431  0.95790959  0.74928995  1
  Te  Te135  1  0.61310769  0.26065900  0.07119039  1
  Te  Te136  1  0.58176128  0.27525497  0.41247394  1
  Te  Te137  1  0.60198127  0.28213699  0.74310768  1
  Te  Te138  1  0.59297585  0.57807040  0.06788046  1
  Te  Te139  1  0.58329723  0.57941929  0.41540003  1
  Te  Te140  1  0.58407116  0.56113479  0.76935308  1
  Te  Te141  1  0.58396572  0.90602487  0.07741349  1
  Te  Te142  1  0.61214957  0.95504043  0.39851291  1
  Te  Te143  1  0.57597953  0.91959040  0.73620325  1
  Te  Te144  1  0.88941866  0.26743204  0.09900531  1
  Te  Te145  1  0.89394580  0.22659135  0.39545243  1
  Te  Te146  1  0.91123050  0.29845114  0.73675968  1
  Te  Te147  1  0.91181606  0.56430276  0.06635959  1
  Te  Te148  1  0.91419675  0.58518127  0.42029986  1
  Te  Te149  1  0.90478379  0.55865092  0.74162452  1
  Te  Te150  1  0.88915322  0.92591086  0.08019516  1
  Te  Te151  1  0.90721059  0.94134145  0.42116246  1
  Te  Te152  1  0.90759177  0.89791932  0.75765477  1
  Te  Te153  1  0.27244980  0.06405947  0.26759851  1
  Te  Te154  1  0.28213212  0.10497616  0.57966689  1
  Te  Te155  1  0.23401072  0.10483776  0.93198706  1
  Te  Te156  1  0.24372584  0.39252188  0.26780946  1
  Te  Te157  1  0.26588454  0.40183539  0.58961426  1
  Te  Te158  1  0.26132454  0.42687885  0.92064528  1
  Te  Te159  1  0.25279780  0.74790204  0.25809359  1
  Te  Te160  1  0.26101491  0.78185285  0.58186427  1
  Te  Te161  1  0.23733589  0.76845233  0.91108160  1
  Te  Te162  1  0.59212400  0.11014685  0.25942626  1
  Te  Te163  1  0.56943825  0.13604345  0.56322161  1
  Te  Te164  1  0.61677099  0.07145320  0.93736200  1
  Te  Te165  1  0.61360034  0.42895974  0.22515108  1
  Te  Te166  1  0.66117561  0.35103192  0.61034813  1
  Te  Te167  1  0.63633703  0.36891578  0.88953965  1
  Te  Te168  1  0.56990465  0.72961339  0.24029283  1
  Te  Te169  1  0.59063300  0.74946306  0.59887038  1
  Te  Te170  1  0.56612243  0.76075059  0.91136814  1
  Te  Te171  1  0.90292180  0.04666845  0.23186536  1
  Te  Te172  1  0.91498616  0.09420494  0.58446904  1
  Te  Te173  1  0.91335662  0.09459628  0.91390698  1
  Te  Te174  1  0.88231973  0.38849304  0.22314694  1
  Te  Te175  1  0.87406521  0.35685784  0.58170623  1
  Te  Te176  1  0.88522692  0.39264687  0.91834737  1
  Te  Te177  1  0.90098320  0.76514567  0.26742639  1
  Te  Te178  1  0.90603071  0.75003980  0.58916105  1
  Te  Te179  1  0.89182368  0.76449245  0.92447861  1
