# generated using pymatgen
data_In2Te3
_symmetry_space_group_name_H-M   'P 1'
_cell_length_a   18.77148349
_cell_length_b   18.76701843
_cell_length_c   18.77475100
_cell_angle_alpha   90.05659300
_cell_angle_beta   90.10992002
_cell_angle_gamma   90.06438188
_symmetry_Int_Tables_number   1
_chemical_formula_structural   In2Te3
_chemical_formula_sum   'In72 Te108'
_cell_volume   6614.03937691
_cell_formula_units_Z   36
loop_
 _symmetry_equiv_pos_site_id
 _symmetry_equiv_pos_as_xyz
  1  'x, y, z'
loop_
 _atom_site_type_symbol
 _atom_site_label
 _atom_site_symmetry_multiplicity
 _atom_site_fract_x
 _atom_site_fract_y
 _atom_site_fract_z
 _atom_site_occupancy
  In  In0  1  0.17770466  0.68763398  0.84853676  1
  In  In1  1  0.66539797  -0.01345213  0.66396115  1
  In  In2  1  0.66126701  0.51854248  0.83957515  1
  In  In3  1  0.51062797  0.79202646  0.29293703  1
  In  In4  1  0.82370779  0.50839512  0.67936979  1
  In  In5  1  0.30028081  0.17729991  0.84188494  1
  In  In6  1  0.15014671  0.70850680  0.14972675  1
  In  In7  1  0.33703482  0.66900239  0.32570949  1
  In  In8  1  0.32674261  0.32798371  0.31354146  1
  In  In9  1  -0.02047498  0.52608553  0.50303098  1
  In  In10  1  0.66462145  0.33051510  0.00815757  1
  In  In11  1  0.67076414  0.67148700  -0.00823117  1
  In  In12  1  0.83773451  -0.00605506  0.15962201  1
  In  In13  1  0.83891082  0.15399904  0.00949309  1
  In  In14  1  0.50233715  0.15138500  0.00150649  1
  In  In15  1  0.16388181  -0.01120549  0.84390292  1
  In  In16  1  0.32608057  0.51384505  0.49313909  1
  In  In17  1  0.03685015  0.17908951  0.84662299  1
  In  In18  1  0.34100640  0.67921547  -0.00064279  1
  In  In19  1  0.84987311  0.71711102  0.85354278  1
  In  In20  1  0.00573028  0.15141504  0.17409421  1
  In  In21  1  0.83564493  -0.04022055  0.84033487  1
  In  In22  1  0.46879926  0.49121544  0.02885614  1
  In  In23  1  0.51054032  -0.02903704  0.13276052  1
  In  In24  1  0.66564973  0.50832602  0.15730395  1
  In  In25  1  0.84481826  0.30593225  0.48835547  1
  In  In26  1  0.30920971  0.01043727  0.68917178  1
  In  In27  1  0.18235058  0.49988509  -0.00240691  1
  In  In28  1  0.81179876  0.33400906  0.16945391  1
  In  In29  1  0.02188490  -0.03697395  0.65531177  1
  In  In30  1  0.33030118  0.66987337  0.66793125  1
  In  In31  1  0.85230380  0.84399217  0.32041193  1
  In  In32  1  0.00551885  -0.00745520  0.00670125  1
  In  In33  1  0.03686012  0.49559928  0.83056845  1
  In  In34  1  0.68951282  0.33710735  0.30578489  1
  In  In35  1  0.83760132  0.67928375  0.16563316  1
  In  In36  1  0.82334268  0.16422880  0.66549595  1
  In  In37  1  0.00495245  0.53238693  0.15563601  1
  In  In38  1  0.66623904  -0.00716555  0.31865548  1
  In  In39  1  0.16132238  0.34026376  0.50974521  1
  In  In40  1  0.30873652  0.17990807  0.13364307  1
  In  In41  1  0.50772444  0.52534047  0.31056444  1
  In  In42  1  0.02930933  0.35074389  0.67159076  1
  In  In43  1  0.49713224  0.81881669  0.67621812  1
  In  In44  1  0.15712535  0.15117638  0.33201211  1
  In  In45  1  0.29925228  -0.04406448  0.33467218  1
  In  In46  1  0.14067561  0.50884089  0.67847200  1
  In  In47  1  0.48671893  0.32973167  0.82504387  1
  In  In48  1  0.19103208  0.50176902  0.31930182  1
  In  In49  1  0.83639728  -0.02578556  0.49706826  1
  In  In50  1  0.49209304  0.15882344  0.32031775  1
  In  In51  1  0.68314353  0.15831565  0.49080184  1
  In  In52  1  0.49057618  0.50528881  0.68825764  1
  In  In53  1  0.32605260  0.83940680  0.15624392  1
  In  In54  1  0.67658224  0.83755233  0.51567694  1
  In  In55  1  0.00208895  0.17967983  0.49221283  1
  In  In56  1  0.00662963  0.68321570  0.67073201  1
  In  In57  1  0.48875090  -0.00895357  0.50410307  1
  In  In58  1  0.30633504  0.82450881  0.48868991  1
  In  In59  1  0.02013191  0.32668263  0.31646303  1
  In  In60  1  0.49035021  0.65841985  0.84623850  1
  In  In61  1  0.62840331  0.14803677  0.85639137  1
  In  In62  1  0.47473584  0.16133218  0.68992236  1
  In  In63  1  0.64708423  0.50685127  0.48971675  1
  In  In64  1  0.66825741  0.82907768  0.84715421  1
  In  In65  1  0.02534256  0.32963650  -0.01782383  1
  In  In66  1  0.15546661  -0.03754008  0.17070466  1
  In  In67  1  0.49102045  0.32541830  0.50648142  1
  In  In68  1  0.33298748  0.15365548  0.53225350  1
  In  In69  1  0.83719094  0.53114955  0.32793288  1
  In  In70  1  0.84719135  0.34549994  0.83550057  1
  In  In71  1  0.83845114  0.67421933  0.49705854  1
  Te  Te72  1  0.10486598  0.07957843  0.08287484  1
  Te  Te73  1  0.05728655  0.07153336  0.40579833  1
  Te  Te74  1  0.08140940  0.07695857  0.74656922  1
  Te  Te75  1  0.08647161  0.42176520  0.09118048  1
  Te  Te76  1  0.07810897  0.43033658  0.41642583  1
  Te  Te77  1  0.13096365  0.37568383  0.78818673  1
  Te  Te78  1  0.05799513  0.78208757  0.05800470  1
  Te  Te79  1  0.09109433  0.81420941  0.39748828  1
  Te  Te80  1  0.08520976  0.76899210  0.76376531  1
  Te  Te81  1  0.39963137  0.06813202  0.08152154  1
  Te  Te82  1  0.39951171  0.07843193  0.41546067  1
  Te  Te83  1  0.41654491  0.06574767  0.79909125  1
  Te  Te84  1  0.37320664  0.39873084  0.09278402  1
  Te  Te85  1  0.41467034  0.41832277  0.40887850  1
  Te  Te86  1  0.39233692  0.41977291  0.75635267  1
  Te  Te87  1  0.42980026  0.76108513  0.08717801  1
  Te  Te88  1  0.42302813  0.75710753  0.41731737  1
  Te  Te89  1  0.39755872  0.75850635  0.77464030  1
  Te  Te90  1  0.73992367  0.07618644  0.08355803  1
  Te  Te91  1  0.76900505  0.07315018  0.40038313  1
  Te  Te92  1  0.74649811  0.07623218  0.76543416  1
  Te  Te93  1  0.76217898  0.43466629  0.06485003  1
  Te  Te94  1  0.76264101  0.42389090  0.41759753  1
  Te  Te95  1  0.73400539  0.41164359  0.75543347  1
  Te  Te96  1  0.75155780  0.76406700  0.07634404  1
  Te  Te97  1  0.75237413  0.76197872  0.40687308  1
  Te  Te98  1  0.74933792  0.74948794  0.75135100  1
  Te  Te99  1  0.11575849  0.25454289  0.22545592  1
  Te  Te100  1  0.09883971  0.23290456  0.59857053  1
  Te  Te101  1  0.12620293  0.22015909  0.95985982  1
  Te  Te102  1  0.09644700  0.60318276  0.25389582  1
  Te  Te103  1  0.09251948  0.60414246  0.56864471  1
  Te  Te104  1  0.08401810  0.59917505  0.93268562  1
  Te  Te105  1  0.07153324  0.87310000  0.25931747  1
  Te  Te106  1  0.10587978  0.87364718  0.57181846  1
  Te  Te107  1  0.06337273  0.89275581  0.90785917  1
  Te  Te108  1  0.41798260  0.24772561  0.22088656  1
  Te  Te109  1  0.39620638  0.26727722  0.61134644  1
  Te  Te110  1  0.41160536  0.24998421  0.92848780  1
  Te  Te111  1  0.40510248  0.58598222  0.22452239  1
  Te  Te112  1  0.42634677  0.59250198  0.57721563  1
  Te  Te113  1  0.39559734  0.56104734  0.91465726  1
  Te  Te114  1  0.43078765  0.91944063  0.26008346  1
  Te  Te115  1  0.39668538  0.91256867  0.59354782  1
  Te  Te116  1  0.45464038  0.95922027  0.90013267  1
  Te  Te117  1  0.75136974  0.22010003  0.24134191  1
  Te  Te118  1  0.73586091  0.26416580  0.58853852  1
  Te  Te119  1  0.75373478  0.24752633  0.91151685  1
  Te  Te120  1  0.72298070  0.60854167  0.26112870  1
  Te  Te121  1  0.74197563  0.59049588  0.58167258  1
  Te  Te122  1  0.77343634  0.59247029  0.90954620  1
  Te  Te123  1  0.73803892  0.89409059  0.23094878  1
  Te  Te124  1  0.77647331  0.89670501  0.61608223  1
  Te  Te125  1  0.74926517  0.90630242  0.95043846  1
  Te  Te126  1  0.25817506  0.29302692  0.04282806  1
  Te  Te127  1  0.24969562  0.25060769  0.42219940  1
  Te  Te128  1  0.22563978  0.25732118  0.74486861  1
  Te  Te129  1  0.24599956  0.60365638  0.09231968  1
  Te  Te130  1  0.23235089  0.60956019  0.42169878  1
  Te  Te131  1  0.24727571  0.58041340  0.76156919  1
  Te  Te132  1  0.23916534  0.90983687  0.05766551  1
  Te  Te133  1  0.19847998  0.92897880  0.44596795  1
  Te  Te134  1  0.24600057  0.89699334  0.75904687  1
  Te  Te135  1  0.58598174  0.23827848  0.09076306  1
  Te  Te136  1  0.58364614  0.24994080  0.40807268  1
  Te  Te137  1  0.58809808  0.24780309  0.74587545  1
  Te  Te138  1  0.56625473  0.59686400  0.08118188  1
  Te  Te139  1  0.57543775  0.60872883  0.41169186  1
  Te  Te140  1  0.59057664  0.61079748  0.74176003  1
  Te  Te141  1  0.61139966  0.89723710  0.05465352  1
  Te  Te142  1  0.58145320  0.90939465  0.41621175  1
  Te  Te143  1  0.56892679  0.92414354  0.76250152  1
  Te  Te144  1  0.92683807  0.25708011  0.08544164  1
  Te  Te145  1  0.91390847  0.23324956  0.37527508  1
  Te  Te146  1  0.92577184  0.24839714  0.74615852  1
  Te  Te147  1  0.90698843  0.59405570  0.06610268  1
  Te  Te148  1  0.94084730  0.62319271  0.39159580  1
  Te  Te149  1  0.92723604  0.58498672  0.76033785  1
  Te  Te150  1  0.92744688  0.89320019  0.08923857  1
  Te  Te151  1  0.94308444  0.88854821  0.43424313  1
  Te  Te152  1  0.93241721  0.89146441  0.75093716  1
  Te  Te153  1  0.25823839  0.07638685  0.24412072  1
  Te  Te154  1  0.22354660  0.07129182  0.58367193  1
  Te  Te155  1  0.25635710  0.06733649  0.93099391  1
  Te  Te156  1  0.26814440  0.42700579  0.21540630  1
  Te  Te157  1  0.24796526  0.43160131  0.59454216  1
  Te  Te158  1  0.24836302  0.38984080  0.92287294  1
  Te  Te159  1  0.24113950  0.76955651  0.26077802  1
  Te  Te160  1  0.22872590  0.75519327  0.59654194  1
  Te  Te161  1  0.25674816  0.78393116  0.93387282  1
  Te  Te162  1  0.58023288  0.07800104  0.22679157  1
  Te  Te163  1  0.57451913  0.09223427  0.58470738  1
  Te  Te164  1  0.58586102  0.02841950  0.94535835  1
  Te  Te165  1  0.57584229  0.40987742  0.23366746  1
  Te  Te166  1  0.57748268  0.41766750  0.59228979  1
  Te  Te167  1  0.57378662  0.42467167  0.92386254  1
  Te  Te168  1  0.60750499  0.71206875  0.21960764  1
  Te  Te169  1  0.58058970  0.74513578  0.57976500  1
  Te  Te170  1  0.55804173  0.76375856  0.93305647  1
  Te  Te171  1  0.93729672  0.05055580  0.25674765  1
  Te  Te172  1  0.91880890  0.07656807  0.58486475  1
  Te  Te173  1  0.92273395  0.08073550  0.90436938  1
  Te  Te174  1  0.91564985  0.42496235  0.25028795  1
  Te  Te175  1  0.91322294  0.41259932  0.58536021  1
  Te  Te176  1  0.92902041  0.43449912  0.92508450  1
  Te  Te177  1  0.94420507  0.76096213  0.23490665  1
  Te  Te178  1  0.93019797  0.76460745  0.57107938  1
  Te  Te179  1  0.94162134  0.78346444  0.95083983  1
