# generated using pymatgen
data_In2Te3
_symmetry_space_group_name_H-M   'P 1'
_cell_length_a   19.00187774
_cell_length_b   19.01135544
_cell_length_c   18.98967255
_cell_angle_alpha   89.91899894
_cell_angle_beta   90.13128391
_cell_angle_gamma   90.02206263
_symmetry_Int_Tables_number   1
_chemical_formula_structural   In2Te3
_chemical_formula_sum   'In72 Te108'
_cell_volume   6860.02141240
_cell_formula_units_Z   36
loop_
 _symmetry_equiv_pos_site_id
 _symmetry_equiv_pos_as_xyz
  1  'x, y, z'
loop_
 _atom_site_type_symbol
 _atom_site_label
 _atom_site_symmetry_multiplicity
 _atom_site_fract_x
 _atom_site_fract_y
 _atom_site_fract_z
 _atom_site_occupancy
  In  In0  1  0.48360101  0.83039130  -0.00243155  1
  In  In1  1  0.15191119  -0.00487937  0.48802247  1
  In  In2  1  0.00826921  0.34127891  0.34771159  1
  In  In3  1  0.02651330  -0.00871048  0.66240923  1
  In  In4  1  0.31007886  0.16239869  0.47992038  1
  In  In5  1  0.82454516  0.16499077  -0.00521014  1
  In  In6  1  0.64844866  0.51370027  0.15579388  1
  In  In7  1  0.45955493  0.52377137  -0.03404361  1
  In  In8  1  0.49108578  0.19618102  0.32059193  1
  In  In9  1  0.33973748  0.32580235  0.67027648  1
  In  In10  1  0.46445377  0.66508224  0.15673205  1
  In  In11  1  0.34514051  0.85436747  0.15749083  1
  In  In12  1  0.29021298  0.32781354  0.00158121  1
  In  In13  1  0.17307890  0.16819752  0.30817023  1
  In  In14  1  0.30855416  0.80455324  0.84075098  1
  In  In15  1  0.50954352  0.63755811  0.52790680  1
  In  In16  1  0.66810038  0.78533150  0.14229686  1
  In  In17  1  -0.00044526  0.82515114  0.85849454  1
  In  In18  1  0.07531882  0.35797419  -0.08560053  1
  In  In19  1  0.33436329  0.67703296  0.32591618  1
  In  In20  1  0.47479850  -0.00370148  0.52252317  1
  In  In21  1  0.84720121  0.17697358  0.33125074  1
  In  In22  1  0.50353475  0.34594845  0.48530864  1
  In  In23  1  0.18282985  0.01282052  0.16020380  1
  In  In24  1  0.67579401  0.17918453  0.82480772  1
  In  In25  1  0.50592822  0.00750330  0.82587710  1
  In  In26  1  0.46499582  0.51626937  0.69534270  1
  In  In27  1  0.16071282  0.66886526  0.51309175  1
  In  In28  1  0.69613459  0.47116731  0.51975781  1
  In  In29  1  0.83444728  0.51480313  0.34253418  1
  In  In30  1  0.49801795  0.50975283  0.31174318  1
  In  In31  1  -0.00238681  0.67649930  0.01706362  1
  In  In32  1  0.84764759  0.51970818  0.00817712  1
  In  In33  1  0.67383562  0.00873595  0.32488570  1
  In  In34  1  0.33827047  0.03363882  0.00252677  1
  In  In35  1  0.85482445  0.50345747  0.65855116  1
  In  In36  1  0.65678881  0.83363966  0.83940571  1
  In  In37  1  0.83758188  0.32535618  0.81964874  1
  In  In38  1  0.84591281  0.15170761  0.67006692  1
  In  In39  1  -0.01610903  0.00410786  0.00605322  1
  In  In40  1  -0.00279629  0.65732425  0.66588879  1
  In  In41  1  0.67291241  0.66151129  0.34577374  1
  In  In42  1  0.49740669  0.84297293  0.33494240  1
  In  In43  1  0.83770320  0.00399624  0.84943469  1
  In  In44  1  0.83223762  0.34226298  0.15649648  1
  In  In45  1  0.50549145  0.17567701  0.67778142  1
  In  In46  1  0.43744308  0.21105877  0.08460194  1
  In  In47  1  0.16568321  0.65050578  0.82398296  1
  In  In48  1  -0.01270212  0.17007885  0.19148298  1
  In  In49  1  -0.00373789  0.00917344  0.33780523  1
  In  In50  1  0.17988801  0.51252035  0.01103038  1
  In  In51  1  0.68094191  0.81764049  0.49114251  1
  In  In52  1  0.68426439  0.64712544  0.66717250  1
  In  In53  1  0.17834379  0.16294303  0.65012132  1
  In  In54  1  0.33313056  -0.03958918  0.69001883  1
  In  In55  1  0.15218897  0.82815404  0.35585412  1
  In  In56  1  0.65588839  0.16020126  0.49875364  1
  In  In57  1  0.84293850  0.81357513  0.66366055  1
  In  In58  1  0.85869601  -0.03528768  0.49873485  1
  In  In59  1  0.30719643  0.17970608  0.84728652  1
  In  In60  1  0.67338762  0.51371486  0.86576376  1
  In  In61  1  0.66301800  0.32482453  0.67084735  1
  In  In62  1  0.81423592  -0.05897203  0.15619941  1
  In  In63  1  0.65297368  0.17702090  0.14093122  1
  In  In64  1  -0.00437547  0.49635029  0.81040415  1
  In  In65  1  0.63989427  -0.01494102  -0.00715722  1
  In  In66  1  0.01112348  0.50433165  0.50294722  1
  In  In67  1  0.01710213  0.79286247  0.18808711  1
  In  In68  1  0.17496446  0.33422786  0.49269655  1
  In  In69  1  0.36181923  0.51352211  0.50990786  1
  In  In70  1  0.03971598  0.51007313  0.16815405  1
  In  In71  1  0.31993236  0.82821447  0.48933425  1
  Te  Te72  1  0.07281766  0.09302940  0.09352511  1
  Te  Te73  1  0.08274160  0.10727076  0.41372381  1
  Te  Te74  1  0.10744037  0.07807404  0.74627726  1
  Te  Te75  1  0.07719007  0.41219516  0.06163913  1
  Te  Te76  1  0.10884179  0.43824024  0.40412674  1
  Te  Te77  1  0.08692444  0.39027665  0.77008629  1
  Te  Te78  1  0.10839812  0.75226555  0.07998597  1
  Te  Te79  1  0.07200667  0.71326122  0.40221219  1
  Te  Te80  1  0.07865840  0.75228060  0.75221386  1
  Te  Te81  1  0.45487761  0.06449317  0.08370782  1
  Te  Te82  1  0.42638284  0.09067739  0.41432804  1
  Te  Te83  1  0.39647491  0.09619563  0.74652240  1
  Te  Te84  1  0.38646760  0.43507363  0.06240081  1
  Te  Te85  1  0.40719675  0.42120909  0.39777035  1
  Te  Te86  1  0.40796190  0.40597983  0.77191782  1
  Te  Te87  1  0.37837315  0.74044607  0.06009366  1
  Te  Te88  1  0.43793091  0.73554074  0.42829137  1
  Te  Te89  1  0.43591649  0.74111904  0.80524660  1
  Te  Te90  1  0.74874556  0.06397004  0.07896733  1
  Te  Te91  1  0.76531198  0.07474203  0.42654490  1
  Te  Te92  1  0.74499574  0.07026137  0.74883283  1
  Te  Te93  1  0.74327979  0.42816245  0.07092234  1
  Te  Te94  1  0.76383105  0.40572242  0.40985944  1
  Te  Te95  1  0.74704614  0.42695668  0.74575836  1
  Te  Te96  1  0.76722847  0.73490380  0.04958241  1
  Te  Te97  1  0.77693961  0.74217653  0.41080676  1
  Te  Te98  1  0.75329371  0.74239490  0.76220668  1
  Te  Te99  1  0.08809384  0.27226108  0.23801531  1
  Te  Te100  1  0.08914626  0.24678202  0.57070565  1
  Te  Te101  1  0.14468551  0.23282278  0.94328620  1
  Te  Te102  1  0.12302890  0.60611754  0.23896186  1
  Te  Te103  1  0.10389486  0.56682300  0.60949497  1
  Te  Te104  1  0.06476649  0.57940338  0.92033679  1
  Te  Te105  1  0.09114089  0.92930584  0.25013750  1
  Te  Te106  1  0.08112698  0.89235776  0.56598959  1
  Te  Te107  1  0.07678155  0.93256739  0.91911982  1
  Te  Te108  1  0.41174693  0.27321310  0.22213287  1
  Te  Te109  1  0.42275256  0.24211601  0.56257732  1
  Te  Te110  1  0.40391441  0.24814068  0.93482074  1
  Te  Te111  1  0.38041425  0.56526474  0.23318422  1
  Te  Te112  1  0.38872087  0.62226826  0.61763623  1
  Te  Te113  1  0.38139328  0.61352769  0.87430336  1
  Te  Te114  1  0.42433415  0.93545367  0.25032676  1
  Te  Te115  1  0.42010302  0.87797468  0.59891274  1
  Te  Te116  1  0.40768957  0.92789246  0.90819932  1
  Te  Te117  1  0.75032305  0.24662185  0.23969318  1
  Te  Te118  1  0.75183535  0.24213962  0.58369032  1
  Te  Te119  1  0.74206147  0.27063443  0.92469725  1
  Te  Te120  1  0.75048651  0.59028808  0.23796608  1
  Te  Te121  1  0.77662487  0.59108805  0.56178654  1
  Te  Te122  1  0.74331589  0.61394657  0.95239202  1
  Te  Te123  1  0.71846434  0.88288012  0.25526271  1
  Te  Te124  1  0.75118147  0.91079742  0.58887942  1
  Te  Te125  1  0.75404513  0.90881907  0.93141466  1
  Te  Te126  1  0.27172726  0.21963531  0.11637206  1
  Te  Te127  1  0.26130691  0.26764075  0.38567253  1
  Te  Te128  1  0.22761385  0.26565838  0.75116759  1
  Te  Te129  1  0.21725882  0.59772158  0.12555648  1
  Te  Te130  1  0.26156024  0.59214138  0.42722179  1
  Te  Te131  1  0.26700147  0.54663938  0.78995137  1
  Te  Te132  1  0.24998137  0.92236300  0.06084448  1
  Te  Te133  1  0.25847533  0.93286655  0.40068580  1
  Te  Te134  1  0.23082942  0.91484351  0.78178640  1
  Te  Te135  1  0.57200292  0.27374970  0.07118783  1
  Te  Te136  1  0.60101913  0.26443193  0.40422663  1
  Te  Te137  1  0.56593953  0.27340692  0.77471539  1
  Te  Te138  1  0.55902851  0.59391944  0.06501736  1
  Te  Te139  1  0.59551460  0.55928100  0.42905440  1
  Te  Te140  1  0.58497965  0.58286340  0.76068609  1
  Te  Te141  1  0.57592943  0.89722179  0.09810458  1
  Te  Te142  1  0.58387307  0.92845917  0.42937057  1
  Te  Te143  1  0.58460120  0.91806047  0.74360618  1
  Te  Te144  1  0.92030371  0.24858481  0.07801738  1
  Te  Te145  1  0.92795921  0.24879636  0.42736125  1
  Te  Te146  1  0.93132489  0.24240758  0.74611501  1
  Te  Te147  1  0.92240967  0.59210071  0.11878055  1
  Te  Te148  1  0.94923191  0.58894249  0.39751889  1
  Te  Te149  1  0.89713288  0.59988658  0.76564328  1
  Te  Te150  1  0.93661984  0.88812191  0.09182061  1
  Te  Te151  1  0.92001375  0.88866230  0.38554692  1
  Te  Te152  1  0.91666900  0.92020435  0.75134170  1
  Te  Te153  1  0.27995445  0.09894994  0.23199403  1
  Te  Te154  1  0.26731000  0.05252878  0.57800453  1
  Te  Te155  1  0.21946152  0.09605286  0.93469174  1
  Te  Te156  1  0.27612123  0.36464191  0.15123091  1
  Te  Te157  1  0.26411147  0.42163330  0.58156719  1
  Te  Te158  1  0.25167718  0.43904349  0.90127214  1
  Te  Te159  1  0.25244664  0.77768650  0.25279111  1
  Te  Te160  1  0.21585832  0.78734829  0.58465871  1
  Te  Te161  1  0.21576289  0.73679651  0.93308869  1
  Te  Te162  1  0.57958195  0.09347342  0.24602126  1
  Te  Te163  1  0.58278855  0.07321216  0.59864891  1
  Te  Te164  1  0.58152330  0.10144452  0.91686532  1
  Te  Te165  1  0.58045439  0.41480600  0.23950176  1
  Te  Te166  1  0.56620710  0.42343328  0.59927222  1
  Te  Te167  1  0.56582254  0.43262279  0.91983824  1
  Te  Te168  1  0.56461751  0.72692276  0.25362904  1
  Te  Te169  1  0.59449250  0.74456385  0.59303571  1
  Te  Te170  1  0.56383273  0.74101842  0.91026488  1
  Te  Te171  1  0.88882651  0.05611399  0.23626283  1
  Te  Te172  1  0.93310121  0.07262400  0.57369941  1
  Te  Te173  1  0.93104257  0.10909240  0.90357238  1
  Te  Te174  1  0.92359144  0.42176300  0.24629709  1
  Te  Te175  1  0.93243480  0.40878763  0.58152201  1
  Te  Te176  1  0.91293344  0.41550244  0.91776051  1
  Te  Te177  1  0.90019705  0.78245846  0.27301224  1
  Te  Te178  1  0.92890923  0.74387603  0.57016619  1
  Te  Te179  1  0.89754878  0.75269582  0.93680296  1
