# generated using pymatgen
data_In2Te3
_symmetry_space_group_name_H-M   'P 1'
_cell_length_a   19.01920632
_cell_length_b   18.97615885
_cell_length_c   19.00903160
_cell_angle_alpha   90.30813748
_cell_angle_beta   90.44642941
_cell_angle_gamma   89.94316369
_symmetry_Int_Tables_number   1
_chemical_formula_structural   In2Te3
_chemical_formula_sum   'In72 Te108'
_cell_volume   6860.26717369
_cell_formula_units_Z   36
loop_
 _symmetry_equiv_pos_site_id
 _symmetry_equiv_pos_as_xyz
  1  'x, y, z'
loop_
 _atom_site_type_symbol
 _atom_site_label
 _atom_site_symmetry_multiplicity
 _atom_site_fract_x
 _atom_site_fract_y
 _atom_site_fract_z
 _atom_site_occupancy
  In  In0  1  0.68029299  0.33221615  -0.04520266  1
  In  In1  1  0.50968964  0.00112108  0.16747092  1
  In  In2  1  0.81008030  0.46204995  0.57809881  1
  In  In3  1  0.15834190  0.68093230  0.15181071  1
  In  In4  1  -0.04483407  0.14584028  0.52201466  1
  In  In5  1  0.49518279  0.80123107  0.00259326  1
  In  In6  1  0.66152933  0.15031867  0.18429120  1
  In  In7  1  0.66514672  0.69160632  0.00557300  1
  In  In8  1  0.52087817  0.84186069  0.66147737  1
  In  In9  1  0.50722840  0.33769914  0.17191788  1
  In  In10  1  0.69238328  0.12777566  0.49473120  1
  In  In11  1  0.34227109  0.48985676  0.83678353  1
  In  In12  1  -0.02318100  0.18550434  0.81187192  1
  In  In13  1  0.35455997  0.12186234  0.46213319  1
  In  In14  1  0.84099913  0.65891586  0.81803401  1
  In  In15  1  0.18438848  0.46301851  0.67887630  1
  In  In16  1  0.15508831  0.82330538  0.66983280  1
  In  In17  1  0.52839049  0.47533419  0.35357583  1
  In  In18  1  0.31168342  0.14507785  0.21791350  1
  In  In19  1  0.32701850  0.51331505  0.17998961  1
  In  In20  1  0.66243935  0.50933626  0.17076882  1
  In  In21  1  0.81917742  0.48843126  0.34184165  1
  In  In22  1  0.15433546  0.84624877  -0.01488350  1
  In  In23  1  0.15593546  0.51272952  0.31862503  1
  In  In24  1  -0.01093460  0.00820956  0.31684451  1
  In  In25  1  0.68077332  0.00702207  -0.01795368  1
  In  In26  1  0.70989417  0.83526004  0.79503041  1
  In  In27  1  0.49443767  0.49825418  0.65937805  1
  In  In28  1  0.51456510  -0.01270480  0.82519824  1
  In  In29  1  0.48605432  0.89602854  0.33903660  1
  In  In30  1  0.16469872  0.15820471  0.00563435  1
  In  In31  1  0.34429527  0.31587220  0.37217417  1
  In  In32  1  0.64609792  0.48996782  0.81644894  1
  In  In33  1  0.66688545  0.33153624  0.68190139  1
  In  In34  1  -0.01706962  0.49895535  0.15288529  1
  In  In35  1  0.53972356  0.29923112  0.51568913  1
  In  In36  1  0.66476337  0.68174509  0.32647039  1
  In  In37  1  0.00506385  0.65838043  0.67363202  1
  In  In38  1  0.83783154  0.50139699  -0.02313274  1
  In  In39  1  0.34076658  -0.00814252  0.66299730  1
  In  In40  1  0.47467151  0.67228756  0.15785032  1
  In  In41  1  0.14656318  0.32680670  0.19757916  1
  In  In42  1  0.83265281  0.85249382  0.31953195  1
  In  In43  1  -0.01263007  0.70849677  0.35171619  1
  In  In44  1  0.02213738  0.47229925  0.84505592  1
  In  In45  1  0.31907664  0.68119392  0.29625249  1
  In  In46  1  0.12338905  0.67935990  0.48824807  1
  In  In47  1  -0.00840538  0.49239047  0.50517996  1
  In  In48  1  0.30457341  0.50249214  0.51674399  1
  In  In49  1  -0.00627490  0.34377050  0.01526214  1
  In  In50  1  -0.02784329  0.85335499  0.53279617  1
  In  In51  1  0.33831430  0.64871292  0.69164935  1
  In  In52  1  0.18444040  0.30851008  0.81968277  1
  In  In53  1  0.14775396  0.03521181  0.84529277  1
  In  In54  1  0.49917078  0.16714374  0.01002400  1
  In  In55  1  0.68129784  0.84959035  0.17262184  1
  In  In56  1  0.70711508  0.85381377  0.51541092  1
  In  In57  1  0.30128467  0.82895149  0.48438781  1
  In  In58  1  0.82226991  0.31509553  0.16896851  1
  In  In59  1  -0.00585979  0.66979720  -0.02966888  1
  In  In60  1  0.83127408  0.01014738  0.17683847  1
  In  In61  1  0.16496598  -0.00098269  0.49486821  1
  In  In62  1  -0.00685446  0.00162044  0.01228105  1
  In  In63  1  0.53866760  0.14863079  0.65590315  1
  In  In64  1  0.30543949  0.00955400  0.00037752  1
  In  In65  1  0.14789791  0.29631690  0.51000405  1
  In  In66  1  0.32317580  0.84358632  0.85030468  1
  In  In67  1  0.33520220  0.32798113  0.01503679  1
  In  In68  1  0.51628905  0.67816612  0.47105598  1
  In  In69  1  -0.00946653  0.30336916  0.35996330  1
  In  In70  1  0.83698885  0.02728064  0.80688532  1
  In  In71  1  0.50285451  0.65505397  0.84122924  1
  Te  Te72  1  0.07472779  0.09109328  0.10125896  1
  Te  Te73  1  0.06078572  0.08477881  0.42726670  1
  Te  Te74  1  0.08372431  0.11322566  0.73795843  1
  Te  Te75  1  0.09953939  0.42381272  0.09229646  1
  Te  Te76  1  0.10009200  0.41367136  0.41763490  1
  Te  Te77  1  0.07580141  0.37879927  0.73714593  1
  Te  Te78  1  0.06135323  0.76367392  0.07147246  1
  Te  Te79  1  0.07540912  0.80687704  0.42507218  1
  Te  Te80  1  0.06757358  0.75571156  0.76327522  1
  Te  Te81  1  0.40059130  0.09246747  0.09876964  1
  Te  Te82  1  0.43692307  0.03913840  0.37188107  1
  Te  Te83  1  0.42770545  0.08173247  0.74633356  1
  Te  Te84  1  0.41968001  0.43047310  0.09156319  1
  Te  Te85  1  0.41949953  0.42528318  0.44539461  1
  Te  Te86  1  0.41504347  0.40558782  0.73895104  1
  Te  Te87  1  0.38371782  0.76546011  0.08893729  1
  Te  Te88  1  0.41271658  0.75960637  0.39481380  1
  Te  Te89  1  0.41572441  0.76791986  0.74883425  1
  Te  Te90  1  0.75431317  0.09843018  0.07593597  1
  Te  Te91  1  0.77740591  0.03813160  0.41135755  1
  Te  Te92  1  0.74427004  0.13509058  0.75418393  1
  Te  Te93  1  0.75435204  0.42470713  0.07878043  1
  Te  Te94  1  0.77142435  0.40009635  0.44668401  1
  Te  Te95  1  0.75632495  0.44383058  0.72854533  1
  Te  Te96  1  0.76232019  0.76662505  0.08440225  1
  Te  Te97  1  0.76495053  0.75543501  0.41358536  1
  Te  Te98  1  0.76367444  0.72618165  0.70926745  1
  Te  Te99  1  0.07573848  0.22499937  0.27110695  1
  Te  Te100  1  0.07086376  0.20855858  0.59825542  1
  Te  Te101  1  0.07815433  0.25047715  0.92228496  1
  Te  Te102  1  0.05688189  0.59766952  0.24579727  1
  Te  Te103  1  0.10400525  0.56493367  0.58834349  1
  Te  Te104  1  0.08976898  0.56620492  0.93325640  1
  Te  Te105  1  0.09205235  0.97239899  0.21757249  1
  Te  Te106  1  0.07947531  0.93565226  0.60367446  1
  Te  Te107  1  0.05935400  0.92720365  0.89643534  1
  Te  Te108  1  0.41969759  0.25078454  0.25882832  1
  Te  Te109  1  0.42907372  0.21108574  0.56188499  1
  Te  Te110  1  0.42058248  0.25423277  0.92323546  1
  Te  Te111  1  0.44179596  0.57160976  0.27285918  1
  Te  Te112  1  0.42110831  0.60736556  0.56909336  1
  Te  Te113  1  0.40434011  0.59240991  0.92384995  1
  Te  Te114  1  0.41129835  0.90180969  0.21205437  1
  Te  Te115  1  0.40894844  0.89555109  0.57002302  1
  Te  Te116  1  0.42091728  0.93015644  0.93157765  1
  Te  Te117  1  0.76431615  0.22100570  0.26663132  1
  Te  Te118  1  0.74119903  0.22697141  0.60376835  1
  Te  Te119  1  0.75316685  0.24317531  0.86861555  1
  Te  Te120  1  0.76081473  0.59639617  0.24588883  1
  Te  Te121  1  0.80587537  0.60876131  0.59181496  1
  Te  Te122  1  0.73063558  0.58883937  0.91147399  1
  Te  Te123  1  0.72296134  0.95134218  0.27760498  1
  Te  Te124  1  0.77952794  0.94628127  0.60953992  1
  Te  Te125  1  0.77512724  0.92190764  0.90238955  1
  Te  Te126  1  0.24585025  0.24367185  0.10824582  1
  Te  Te127  1  0.24066477  0.21886610  0.41753995  1
  Te  Te128  1  0.27887211  0.27583033  0.71570083  1
  Te  Te129  1  0.24430593  0.58387596  0.08391091  1
  Te  Te130  1  0.24389784  0.59962175  0.40804348  1
  Te  Te131  1  0.23195941  0.57754020  0.76671043  1
  Te  Te132  1  0.21764847  0.93425805  0.08686741  1
  Te  Te133  1  0.25160490  0.93390441  0.39210081  1
  Te  Te134  1  0.23909293  0.93191677  0.75887707  1
  Te  Te135  1  0.60073002  0.25641331  0.08330950  1
  Te  Te136  1  0.60998568  0.22414058  0.41441534  1
  Te  Te137  1  0.54977331  0.26815093  0.74160697  1
  Te  Te138  1  0.57630131  0.59266470  0.07767145  1
  Te  Te139  1  0.61854424  0.57529643  0.42494520  1
  Te  Te140  1  0.58379868  0.60018257  0.72876554  1
  Te  Te141  1  0.58917101  0.91621967  0.06282229  1
  Te  Te142  1  0.58856651  0.91969071  0.44670050  1
  Te  Te143  1  0.61875472  0.93793385  0.72803249  1
  Te  Te144  1  0.91992424  0.24337157  0.08892181  1
  Te  Te145  1  0.88565593  0.25579270  0.44841360  1
  Te  Te146  1  0.86185492  0.22953229  0.72468576  1
  Te  Te147  1  0.90199018  0.59718044  0.07411688  1
  Te  Te148  1  0.92144849  0.58131338  0.40607003  1
  Te  Te149  1  0.93178983  0.55569844  0.75442095  1
  Te  Te150  1  0.90190611  0.91733893  0.08923738  1
  Te  Te151  1  0.89774287  0.94085163  0.42933920  1
  Te  Te152  1  0.89433726  0.92270537  0.71474824  1
  Te  Te153  1  0.21975107  0.04427178  0.27087908  1
  Te  Te154  1  0.25905504  0.08496059  0.57790344  1
  Te  Te155  1  0.26568684  0.11445634  0.89948831  1
  Te  Te156  1  0.26438404  0.40944798  0.27228285  1
  Te  Te157  1  0.26625089  0.36731806  0.59012242  1
  Te  Te158  1  0.24670692  0.40551612  0.91886877  1
  Te  Te159  1  0.21062356  0.76859893  0.25833097  1
  Te  Te160  1  0.24617302  0.73269516  0.59012459  1
  Te  Te161  1  0.23618528  0.74786671  0.91282776  1
  Te  Te162  1  0.56201876  0.09020570  0.27589010  1
  Te  Te163  1  0.57843832  0.04935786  0.55234843  1
  Te  Te164  1  0.58588228  0.09557289  0.90592156  1
  Te  Te165  1  0.61755294  0.39621040  0.26133768  1
  Te  Te166  1  0.59576745  0.42473267  0.57592528  1
  Te  Te167  1  0.57286569  0.42370042  0.92234135  1
  Te  Te168  1  0.57545010  0.76164949  0.23527659  1
  Te  Te169  1  0.60294453  0.75226287  0.57132219  1
  Te  Te170  1  0.59697889  0.77367988  0.88728665  1
  Te  Te171  1  0.89431882  0.11172072  0.26593267  1
  Te  Te172  1  0.89324590  0.05203075  0.62194672  1
  Te  Te173  1  0.91664739  0.09686122  0.91654616  1
  Te  Te174  1  0.92372356  0.40604085  0.25662480  1
  Te  Te175  1  0.93720968  0.38732850  0.58873810  1
  Te  Te176  1  0.90480842  0.39107869  0.90075396  1
  Te  Te177  1  0.92998496  0.77986146  0.23841171  1
  Te  Te178  1  0.91325524  0.72013010  0.57133776  1
  Te  Te179  1  0.90692312  0.76222158  0.89717447  1
