# generated using pymatgen
data_In2Te3
_symmetry_space_group_name_H-M   'P 1'
_cell_length_a   18.97860625
_cell_length_b   19.01848423
_cell_length_c   18.96788348
_cell_angle_alpha   90.14416281
_cell_angle_beta   89.79807004
_cell_angle_gamma   89.95458607
_symmetry_Int_Tables_number   1
_chemical_formula_structural   In2Te3
_chemical_formula_sum   'In72 Te108'
_cell_volume   6846.28348567
_cell_formula_units_Z   36
loop_
 _symmetry_equiv_pos_site_id
 _symmetry_equiv_pos_as_xyz
  1  'x, y, z'
loop_
 _atom_site_type_symbol
 _atom_site_label
 _atom_site_symmetry_multiplicity
 _atom_site_fract_x
 _atom_site_fract_y
 _atom_site_fract_z
 _atom_site_occupancy
  In  In0  1  0.66352551  0.02570060  0.64442956  1
  In  In1  1  0.14935046  0.51921992  0.35091239  1
  In  In2  1  0.17564697  0.16710178  -0.01025243  1
  In  In3  1  0.01191185  0.64171211  0.67532804  1
  In  In4  1  0.33712891  0.49958154  0.16348682  1
  In  In5  1  0.01963742  0.01048377  0.00638123  1
  In  In6  1  0.32803520  0.33570305  0.65909843  1
  In  In7  1  0.52107446  0.02194898  0.82621317  1
  In  In8  1  0.34016499  0.32879716  -0.02788668  1
  In  In9  1  0.84203801  0.65885326  0.86334742  1
  In  In10  1  -0.00574167  0.16805381  0.49599099  1
  In  In11  1  0.00586865  0.67810555  0.02650481  1
  In  In12  1  0.83136317  0.16165953  0.35926350  1
  In  In13  1  0.65332161  0.35636314  -0.02362442  1
  In  In14  1  0.31115601  0.85738176  0.79379877  1
  In  In15  1  -0.00520428  0.83018247  0.19650715  1
  In  In16  1  0.00760923  0.48635714  0.19607768  1
  In  In17  1  0.81876053  0.00065562  0.49904415  1
  In  In18  1  -0.01052008  0.35254981  0.66227198  1
  In  In19  1  0.86333037  0.82103481  0.65908444  1
  In  In20  1  0.48817732  0.31898276  0.48622556  1
  In  In21  1  0.83354550  0.19203343  0.01217937  1
  In  In22  1  0.82877215  0.49053491  -0.00313233  1
  In  In23  1  0.66992504  0.16729783  0.18142296  1
  In  In24  1  0.66319485  0.83818209  0.81083813  1
  In  In25  1  0.01256947  -0.01251870  0.34733090  1
  In  In26  1  0.65804699  0.50869152  0.50429678  1
  In  In27  1  0.51112179  0.13970694  0.34112468  1
  In  In28  1  0.18695078  0.49825332  0.01161391  1
  In  In29  1  0.34826664  0.49527415  0.82263468  1
  In  In30  1  0.16860218  0.15503645  0.32755860  1
  In  In31  1  0.33419829  0.15609868  0.17495788  1
  In  In32  1  0.33194535  0.82176700  0.17978710  1
  In  In33  1  0.66541312  0.69174693  0.62271877  1
  In  In34  1  0.46391293  0.70401584  0.48752661  1
  In  In35  1  0.16653276  0.34104024  0.48969197  1
  In  In36  1  0.01290413  0.01515480  0.65049020  1
  In  In37  1  0.02937770  0.82662927  0.50683262  1
  In  In38  1  0.50116897  0.82813851  0.02409669  1
  In  In39  1  0.20044551  0.65960764  0.83980768  1
  In  In40  1  0.13726783  0.32603641  0.16335184  1
  In  In41  1  0.03912503  0.82699695  0.81835189  1
  In  In42  1  0.47139078  -0.03898839  0.48272210  1
  In  In43  1  0.81643425  -0.03743138  0.18837702  1
  In  In44  1  0.00215082  0.49662724  0.83274476  1
  In  In45  1  0.65491504  0.02431087  -0.00562423  1
  In  In46  1  0.48678076  -0.01231461  0.16236877  1
  In  In47  1  0.79253668  0.32605360  0.54639726  1
  In  In48  1  0.86257560  0.61217965  0.24180873  1
  In  In49  1  0.63689664  0.81253337  0.21682438  1
  In  In50  1  0.67670999  0.65994070  0.01900403  1
  In  In51  1  0.49228966  0.34002266  0.14967614  1
  In  In52  1  0.49912763  0.50053395  0.67367359  1
  In  In53  1  0.67838738  0.32115309  0.32885258  1
  In  In54  1  0.20073918  0.84057607  0.36229914  1
  In  In55  1  0.18550567  0.14734590  0.65761268  1
  In  In56  1  0.00711300  0.19919715  0.83213788  1
  In  In57  1  0.34492503  0.17412200  0.81909066  1
  In  In58  1  0.49273406  0.50144006  0.34978448  1
  In  In59  1  0.81380644  0.34963824  0.80027495  1
  In  In60  1  0.35142992  0.00666128  -0.00285701  1
  In  In61  1  0.50708166  0.17152668  0.66799360  1
  In  In62  1  0.31635060  0.32535804  0.33463128  1
  In  In63  1  0.17069529  0.65662897  0.50427851  1
  In  In64  1  -0.00563223  0.15844823  0.16257018  1
  In  In65  1  0.50103979  0.66517833  0.82687413  1
  In  In66  1  0.78121612  0.65470024  0.41135859  1
  In  In67  1  0.67169695  0.51870596  0.16823161  1
  In  In68  1  0.83411128  0.03069501  0.80907443  1
  In  In69  1  0.81149697  0.83364895  0.00603676  1
  In  In70  1  0.34024387  0.68024905  0.66997489  1
  In  In71  1  0.17453325  0.83159209  0.00348101  1
  Te  Te72  1  0.11200635  0.08422694  0.10045711  1
  Te  Te73  1  0.09656993  0.07273748  0.43791500  1
  Te  Te74  1  0.08392773  0.08980614  0.76149559  1
  Te  Te75  1  0.06899978  0.42535654  0.07071963  1
  Te  Te76  1  0.06901853  0.41106138  0.40764640  1
  Te  Te77  1  0.08918226  0.42051898  0.74438419  1
  Te  Te78  1  0.10279417  0.75429651  0.11176246  1
  Te  Te79  1  0.09157231  0.74169978  0.40127465  1
  Te  Te80  1  0.11854835  0.73428606  0.73360888  1
  Te  Te81  1  0.43758263  0.10277006  0.07695103  1
  Te  Te82  1  0.40148488  0.06549922  0.40137893  1
  Te  Te83  1  0.41248543  0.06988901  0.73294272  1
  Te  Te84  1  0.42098548  0.42880448  0.05282078  1
  Te  Te85  1  0.39121420  0.41945684  0.42716437  1
  Te  Te86  1  0.43362893  0.38977735  0.75439227  1
  Te  Te87  1  0.41847509  0.73370146  0.09696183  1
  Te  Te88  1  0.42520485  0.77775038  0.36175662  1
  Te  Te89  1  0.42934891  0.77450024  0.74820105  1
  Te  Te90  1  0.76452237  0.07456571  0.08961794  1
  Te  Te91  1  0.72855242  0.07260276  0.40956886  1
  Te  Te92  1  0.72976805  0.11257045  0.74597357  1
  Te  Te93  1  0.74247360  0.40834321  0.09004093  1
  Te  Te94  1  0.74665241  0.41371357  0.42558022  1
  Te  Te95  1  0.68454666  0.40439600  0.75205041  1
  Te  Te96  1  0.74417852  0.75506100  0.11391928  1
  Te  Te97  1  0.71541238  0.78513051  0.42569163  1
  Te  Te98  1  0.76730603  0.74350459  0.75397718  1
  Te  Te99  1  0.06322862  0.24685088  0.26930575  1
  Te  Te100  1  0.08494657  0.24287864  0.59073673  1
  Te  Te101  1  0.08609427  0.26664591  0.93401348  1
  Te  Te102  1  0.09142594  0.59455029  0.23980076  1
  Te  Te103  1  0.07370529  0.56532903  0.56723820  1
  Te  Te104  1  0.08186779  0.60128773  0.91885941  1
  Te  Te105  1  0.10617024  0.91249038  0.25753421  1
  Te  Te106  1  0.10318119  0.90625981  0.60716818  1
  Te  Te107  1  0.10468912  0.92863646  0.91036195  1
  Te  Te108  1  0.43112053  0.25189200  0.26045643  1
  Te  Te109  1  0.40219860  0.23285140  0.57575203  1
  Te  Te110  1  0.43881128  0.24044939  0.91000459  1
  Te  Te111  1  0.42818162  0.58407231  0.24590449  1
  Te  Te112  1  0.41892883  0.58710724  0.57993539  1
  Te  Te113  1  0.41149897  0.59066727  0.91305173  1
  Te  Te114  1  0.42015382  0.90858544  0.26785047  1
  Te  Te115  1  0.36751205  0.87572888  0.55218497  1
  Te  Te116  1  0.44650859  0.92080035  0.91687556  1
  Te  Te117  1  0.78138993  0.24836048  0.24451348  1
  Te  Te118  1  0.72156623  0.21057990  0.60476553  1
  Te  Te119  1  0.74980340  0.25837147  0.90848867  1
  Te  Te120  1  0.71077569  0.60914607  0.28000118  1
  Te  Te121  1  0.76424698  0.60014541  0.55945723  1
  Te  Te122  1  0.73223971  0.56650579  0.90903545  1
  Te  Te123  1  0.74650355  0.88250506  0.29243518  1
  Te  Te124  1  0.75523417  0.90802036  0.60127306  1
  Te  Te125  1  0.74771538  0.93411659  0.90082755  1
  Te  Te126  1  0.26202698  0.26136818  0.09247313  1
  Te  Te127  1  0.25237290  0.22898007  0.43038705  1
  Te  Te128  1  0.23730268  0.25479746  0.75145206  1
  Te  Te129  1  0.25589063  0.59793521  0.08965986  1
  Te  Te130  1  0.26318442  0.59246694  0.40782936  1
  Te  Te131  1  0.25436675  0.57021011  0.73038757  1
  Te  Te132  1  0.26315779  0.92345152  0.08587147  1
  Te  Te133  1  0.26225823  0.93726762  0.45770266  1
  Te  Te134  1  0.23130120  0.94187693  0.70674295  1
  Te  Te135  1  0.59715370  0.25340955  0.08265558  1
  Te  Te136  1  0.59767980  0.23458093  0.42263918  1
  Te  Te137  1  0.62088809  0.26248478  0.70591570  1
  Te  Te138  1  0.57449941  0.57380877  0.07535613  1
  Te  Te139  1  0.56735896  0.60396049  0.43126008  1
  Te  Te140  1  0.59773458  0.60330486  0.72735526  1
  Te  Te141  1  0.60844326  0.91138400  0.09225230  1
  Te  Te142  1  0.58822764  0.87408064  0.44327297  1
  Te  Te143  1  0.57838736  0.92517807  0.72473808  1
  Te  Te144  1  0.92954413  0.26757977  0.09082555  1
  Te  Te145  1  0.89799992  0.26836303  0.44106783  1
  Te  Te146  1  0.90482676  0.24614229  0.73410728  1
  Te  Te147  1  0.89513788  0.59649550  0.08328361  1
  Te  Te148  1  0.90865340  0.58480309  0.38216114  1
  Te  Te149  1  0.89815465  0.57183335  0.75256078  1
  Te  Te150  1  0.92687684  0.91584373  0.08099204  1
  Te  Te151  1  0.92093715  0.90753195  0.43568593  1
  Te  Te152  1  0.92724855  0.91966341  0.75730878  1
  Te  Te153  1  0.26526185  0.06392969  0.26344085  1
  Te  Te154  1  0.26578934  0.04208224  0.59175189  1
  Te  Te155  1  0.25912947  0.07756654  0.90129413  1
  Te  Te156  1  0.23343345  0.41264755  0.24411140  1
  Te  Te157  1  0.24972207  0.42518295  0.57537838  1
  Te  Te158  1  0.24123168  0.41513749  0.89842451  1
  Te  Te159  1  0.27402781  0.73458885  0.28778546  1
  Te  Te160  1  0.26426672  0.75810980  0.56763610  1
  Te  Te161  1  0.27781103  0.76766676  0.91211505  1
  Te  Te162  1  0.59643565  0.05433532  0.24914236  1
  Te  Te163  1  0.54964896  0.07182227  0.55945714  1
  Te  Te164  1  0.59120830  0.12174146  0.90680886  1
  Te  Te165  1  0.57873654  0.41049920  0.25571988  1
  Te  Te166  1  0.57214280  0.40737293  0.57530509  1
  Te  Te167  1  0.58603182  0.42484464  0.86754313  1
  Te  Te168  1  0.52146571  0.72616076  0.25157904  1
  Te  Te169  1  0.56004156  0.78367266  0.57418535  1
  Te  Te170  1  0.59940010  0.75456991  0.91984060  1
  Te  Te171  1  0.91462489  0.06285234  0.25719001  1
  Te  Te172  1  0.90004584  0.09277514  0.58911175  1
  Te  Te173  1  0.91974689  0.08991654  0.92262198  1
  Te  Te174  1  0.87826250  0.46233625  0.25905789  1
  Te  Te175  1  0.88432128  0.42830277  0.59520551  1
  Te  Te176  1  0.91063061  0.40134979  0.90659724  1
  Te  Te177  1  0.90987775  0.75164849  0.28361992  1
  Te  Te178  1  0.93481066  0.72548859  0.57002421  1
  Te  Te179  1  0.93160333  0.76991656  0.91766633  1
