# generated using pymatgen
data_In2Te3
_symmetry_space_group_name_H-M   'P 1'
_cell_length_a   18.81624176
_cell_length_b   18.82164262
_cell_length_c   18.81433290
_cell_angle_alpha   89.98945913
_cell_angle_beta   90.00117918
_cell_angle_gamma   90.14353218
_symmetry_Int_Tables_number   1
_chemical_formula_structural   In2Te3
_chemical_formula_sum   'In72 Te108'
_cell_volume   6663.12347452
_cell_formula_units_Z   36
loop_
 _symmetry_equiv_pos_site_id
 _symmetry_equiv_pos_as_xyz
  1  'x, y, z'
loop_
 _atom_site_type_symbol
 _atom_site_label
 _atom_site_symmetry_multiplicity
 _atom_site_fract_x
 _atom_site_fract_y
 _atom_site_fract_z
 _atom_site_occupancy
  In  In0  1  0.17249182  0.33903482  0.83858602  1
  In  In1  1  0.16046453  0.33010579  0.52395998  1
  In  In2  1  0.17385404  0.82788312  0.67616020  1
  In  In3  1  0.66057579  0.17079296  0.49253515  1
  In  In4  1  0.63507180  0.63435032  0.01793677  1
  In  In5  1  0.65586495  0.49472565  0.50428810  1
  In  In6  1  0.00201480  0.82124935  0.85030589  1
  In  In7  1  0.52903134  0.81659799  0.30526742  1
  In  In8  1  0.36082409  0.84259558  0.85886653  1
  In  In9  1  0.81057554  0.80823195  -0.00311798  1
  In  In10  1  0.15043569  0.65098401  0.49513496  1
  In  In11  1  0.82011181  0.84263123  0.31953900  1
  In  In12  1  0.18899448  0.18072204  0.00131929  1
  In  In13  1  0.84792001  0.82314359  0.63324729  1
  In  In14  1  -0.01082778  0.16577407  0.16107466  1
  In  In15  1  0.51960628  0.33744394  0.51065680  1
  In  In16  1  0.16239274  0.68612084  0.17173684  1
  In  In17  1  0.65094585  0.49917309  0.81551462  1
  In  In18  1  0.48261358  0.00767109  0.49801896  1
  In  In19  1  0.81952753  0.49356157  0.67146912  1
  In  In20  1  0.17573279  0.85712641  0.31827880  1
  In  In21  1  0.35768502  0.65580627  -0.01247590  1
  In  In22  1  0.47527161  0.34760411  0.82301991  1
  In  In23  1  -0.01985560  0.34728271  0.31379865  1
  In  In24  1  0.81730659  0.34353644  0.16515428  1
  In  In25  1  0.32397612  0.49079404  0.51048698  1
  In  In26  1  0.80823165  -0.01017367  0.85083059  1
  In  In27  1  0.50432048  0.82662426  0.70297363  1
  In  In28  1  0.34035976  -0.00649297  0.01300061  1
  In  In29  1  0.84415473  0.50315883  0.00569471  1
  In  In30  1  -0.00259049  0.52296706  0.51273326  1
  In  In31  1  0.84523838  0.67159682  0.83257584  1
  In  In32  1  0.81453647  0.34540308  0.50093520  1
  In  In33  1  0.67781017  0.33990919  -0.02907855  1
  In  In34  1  0.83680878  0.16951874  0.68411533  1
  In  In35  1  0.48951305  0.66885372  0.50916170  1
  In  In36  1  0.16548509  0.33538182  0.14954342  1
  In  In37  1  0.66218749  0.64713847  0.67180247  1
  In  In38  1  0.68453102  0.65261118  0.30135568  1
  In  In39  1  0.32275992  0.02147789  0.66707733  1
  In  In40  1  0.33695183  0.82215095  0.14433760  1
  In  In41  1  0.83284136  0.17280899  0.29595648  1
  In  In42  1  0.67196400  0.00467390  0.31032378  1
  In  In43  1  0.69236700  0.84339312  0.49571838  1
  In  In44  1  -0.00407034  0.00748040  0.67238718  1
  In  In45  1  0.80061100  -0.00435188  0.16353211  1
  In  In46  1  0.50561553  0.18773938  0.67457778  1
  In  In47  1  0.83561827  -0.02764441  0.50190859  1
  In  In48  1  0.34511539  0.17342823  0.85297624  1
  In  In49  1  0.34969834  0.32979451  0.32571081  1
  In  In50  1  0.35070157  0.83078403  0.47878726  1
  In  In51  1  -0.00926333  0.82639413  0.51214324  1
  In  In52  1  0.34684733  0.16871396  0.50923096  1
  In  In53  1  0.00385704  0.48584672  0.85238968  1
  In  In54  1  0.17651143  0.50083445  0.33464175  1
  In  In55  1  0.82417462  0.18803415  0.01629359  1
  In  In56  1  0.18031750  0.13712391  0.32833261  1
  In  In57  1  0.17367546  0.66394595  0.83035202  1
  In  In58  1  0.16629467  0.16831362  0.68142846  1
  In  In59  1  0.64573229  0.81897855  0.84601347  1
  In  In60  1  -0.00766686  0.65307572  0.32407692  1
  In  In61  1  0.02929802  0.17490619  0.48535687  1
  In  In62  1  0.65855927  0.17727487  0.18354922  1
  In  In63  1  0.17893931  0.49270637  0.00239289  1
  In  In64  1  0.49662081  0.35812314  0.16175117  1
  In  In65  1  0.01462273  0.83896958  0.16834266  1
  In  In66  1  0.01520316  -0.01412083  -0.00337269  1
  In  In67  1  -0.00381695  0.17270638  0.83416584  1
  In  In68  1  0.48153025  0.52589797  0.29482818  1
  In  In69  1  0.32585564  0.63726704  0.66962220  1
  In  In70  1  0.51274881  0.14754643  -0.01351622  1
  In  In71  1  0.34215225  -0.01198273  0.30672735  1
  Te  Te72  1  0.09178638  0.08875826  0.08060974  1
  Te  Te73  1  0.08031610  0.06244665  0.40688572  1
  Te  Te74  1  0.09218936  0.07034648  0.77214515  1
  Te  Te75  1  0.07252858  0.42724340  0.08338582  1
  Te  Te76  1  0.08020232  0.41370169  0.41713031  1
  Te  Te77  1  0.09061422  0.42447738  0.74928445  1
  Te  Te78  1  0.08784902  0.75993161  0.06828489  1
  Te  Te79  1  0.08797967  0.75553666  0.40234668  1
  Te  Te80  1  0.07111444  0.73758323  0.74209898  1
  Te  Te81  1  0.42752009  0.08575778  0.09029616  1
  Te  Te82  1  0.41620748  0.09627981  0.39587504  1
  Te  Te83  1  0.42605116  0.08424146  0.75716642  1
  Te  Te84  1  0.42133490  0.46714944  0.08365696  1
  Te  Te85  1  0.42800397  0.43165231  0.41170345  1
  Te  Te86  1  0.39155656  0.45822987  0.77322598  1
  Te  Te87  1  0.44301819  0.75691456  0.06058658  1
  Te  Te88  1  0.42595011  0.73677149  0.38706130  1
  Te  Te89  1  0.40751453  0.72851990  0.76582607  1
  Te  Te90  1  0.71947361  0.08862668  0.07143671  1
  Te  Te91  1  0.76086002  0.07790089  0.41048487  1
  Te  Te92  1  0.74115153  0.09148311  0.76738420  1
  Te  Te93  1  0.72797199  0.43271330  0.07968757  1
  Te  Te94  1  0.74254232  0.42823566  0.40408372  1
  Te  Te95  1  0.74481820  0.40101592  0.75838887  1
  Te  Te96  1  0.73600248  0.71964291  0.09193724  1
  Te  Te97  1  0.76042377  0.73779816  0.41202843  1
  Te  Te98  1  0.75177197  0.75886198  0.74811268  1
  Te  Te99  1  0.08210879  0.24668049  0.25806234  1
  Te  Te100  1  0.06116948  0.25404928  0.61213749  1
  Te  Te101  1  0.07879148  0.25834853  0.92996101  1
  Te  Te102  1  0.08372063  0.56957913  0.23510101  1
  Te  Te103  1  0.11006241  0.55984157  0.60366054  1
  Te  Te104  1  0.08454835  0.59043676  0.93006290  1
  Te  Te105  1  0.09853026  0.94436429  0.22879061  1
  Te  Te106  1  0.08733770  0.91822212  0.58748801  1
  Te  Te107  1  0.10409950  0.90949224  0.90834116  1
  Te  Te108  1  0.41542044  0.24858779  0.22161509  1
  Te  Te109  1  0.40707768  0.27615094  0.59662604  1
  Te  Te110  1  0.42388960  0.26502503  0.94321657  1
  Te  Te111  1  0.38876260  0.58267588  0.19398059  1
  Te  Te112  1  0.43484775  0.55794347  0.59599695  1
  Te  Te113  1  0.43106003  0.53566289  0.93821491  1
  Te  Te114  1  0.44214521  0.90949265  0.22274468  1
  Te  Te115  1  0.41478261  0.90834883  0.59729620  1
  Te  Te116  1  0.45548179  0.93477536  0.93144909  1
  Te  Te117  1  0.72871702  0.27892809  0.27454319  1
  Te  Te118  1  0.73825259  0.25256217  0.59388800  1
  Te  Te119  1  0.74002490  0.22550752  0.89981473  1
  Te  Te120  1  0.77888926  0.58045965  0.20673802  1
  Te  Te121  1  0.75710510  0.59089741  0.57068632  1
  Te  Te122  1  0.74294420  0.58883004  0.90942460  1
  Te  Te123  1  0.70639244  0.87879449  0.21545028  1
  Te  Te124  1  0.73800267  0.93302815  0.61037427  1
  Te  Te125  1  0.71129980  0.91814341  0.95290107  1
  Te  Te126  1  0.27745184  0.25870882  0.09100397  1
  Te  Te127  1  0.24761367  0.25727993  0.41904998  1
  Te  Te128  1  0.26875028  0.25551384  0.74938139  1
  Te  Te129  1  0.25843053  0.59432140  0.09543594  1
  Te  Te130  1  0.26712363  0.59477698  0.41362916  1
  Te  Te131  1  0.26915631  0.55546103  0.78443396  1
  Te  Te132  1  0.23785950  0.91253975  0.08394488  1
  Te  Te133  1  0.25638167  0.93419358  0.42428059  1
  Te  Te134  1  0.26340450  0.91645529  0.76056177  1
  Te  Te135  1  0.59076716  0.26198487  0.07449226  1
  Te  Te136  1  0.56798030  0.24601004  0.40702045  1
  Te  Te137  1  0.58627263  0.26453603  0.77046690  1
  Te  Te138  1  0.54708329  0.55549520  0.11562877  1
  Te  Te139  1  0.58309044  0.59605077  0.41156780  1
  Te  Te140  1  0.56051152  0.60665287  0.76826683  1
  Te  Te141  1  0.63813854  0.94152894  0.09495403  1
  Te  Te142  1  0.58062493  0.91786252  0.41859583  1
  Te  Te143  1  0.58541642  0.93373422  0.76798584  1
  Te  Te144  1  0.92811179  0.27873071  0.07989247  1
  Te  Te145  1  0.91205838  0.24631705  0.41255830  1
  Te  Te146  1  0.91556429  0.26969039  0.75926841  1
  Te  Te147  1  0.89705772  0.59173874  0.11093533  1
  Te  Te148  1  0.90576703  0.56791669  0.40689794  1
  Te  Te149  1  0.92338884  0.57555766  0.74856799  1
  Te  Te150  1  0.89964032  0.91534318  0.07465569  1
  Te  Te151  1  0.93065254  0.91166268  0.39950805  1
  Te  Te152  1  0.91043540  0.91203544  0.75650028  1
  Te  Te153  1  0.26937278  0.08670679  0.22395856  1
  Te  Te154  1  0.23000531  0.08805072  0.56753250  1
  Te  Te155  1  0.24883657  0.07382436  0.91221534  1
  Te  Te156  1  0.26089579  0.41876127  0.23944967  1
  Te  Te157  1  0.23878901  0.42157060  0.60945239  1
  Te  Te158  1  0.27006964  0.40143551  0.93166568  1
  Te  Te159  1  0.26698999  0.75081545  0.26228933  1
  Te  Te160  1  0.25996282  0.74623138  0.57565918  1
  Te  Te161  1  0.25537746  0.75156126  0.92509639  1
  Te  Te162  1  0.56480128  0.08155657  0.24697086  1
  Te  Te163  1  0.57926291  0.08296883  0.58823589  1
  Te  Te164  1  0.55949939  0.04803258  0.88724582  1
  Te  Te165  1  0.58971689  0.43775041  0.24822578  1
  Te  Te166  1  0.59096448  0.41688284  0.61170272  1
  Te  Te167  1  0.56382715  0.43174367  0.92418430  1
  Te  Te168  1  0.58082619  0.71362122  0.21174271  1
  Te  Te169  1  0.58747403  0.76286269  0.58319975  1
  Te  Te170  1  0.55914914  0.74155419  0.94086292  1
  Te  Te171  1  0.91813303  0.05985366  0.24525032  1
  Te  Te172  1  0.91627288  0.08738329  0.56994054  1
  Te  Te173  1  0.90799536  0.08090705  0.92916307  1
  Te  Te174  1  0.89865121  0.44607471  0.23917970  1
  Te  Te175  1  0.91992855  0.41304778  0.58687557  1
  Te  Te176  1  0.89486099  0.40328287  0.91007413  1
  Te  Te177  1  0.91126067  0.75113077  0.23760107  1
  Te  Te178  1  0.92691272  0.71129736  0.57883157  1
  Te  Te179  1  0.93032036  0.72661464  0.94644651  1
