# generated using pymatgen
data_In2Te3
_symmetry_space_group_name_H-M   'P 1'
_cell_length_a   18.93358543
_cell_length_b   18.94955712
_cell_length_c   18.94548964
_cell_angle_alpha   89.87661251
_cell_angle_beta   89.91447780
_cell_angle_gamma   90.20473422
_symmetry_Int_Tables_number   1
_chemical_formula_structural   In2Te3
_chemical_formula_sum   'In72 Te108'
_cell_volume   6797.25391349
_cell_formula_units_Z   36
loop_
 _symmetry_equiv_pos_site_id
 _symmetry_equiv_pos_as_xyz
  1  'x, y, z'
loop_
 _atom_site_type_symbol
 _atom_site_label
 _atom_site_symmetry_multiplicity
 _atom_site_fract_x
 _atom_site_fract_y
 _atom_site_fract_z
 _atom_site_occupancy
  In  In0  1  0.64833700  0.48626990  0.84866306  1
  In  In1  1  0.03343752  0.85580172  0.13536790  1
  In  In2  1  0.82354832  0.30881888  0.81663042  1
  In  In3  1  0.00764998  0.49891264  0.48401036  1
  In  In4  1  0.33948434  0.32158158  0.01747236  1
  In  In5  1  0.33058148  0.83027947  0.50419494  1
  In  In6  1  0.48884109  0.33736444  0.16780181  1
  In  In7  1  0.67589055  0.64969661  0.66643248  1
  In  In8  1  0.49544387  0.33798512  0.50535735  1
  In  In9  1  0.51360813  0.01837261  0.51492301  1
  In  In10  1  0.48456346  0.86624709  0.30837813  1
  In  In11  1  0.69751261  0.67474497  0.34983568  1
  In  In12  1  0.67892558  0.20381296  0.51215850  1
  In  In13  1  0.17263663  0.84182445  0.66551132  1
  In  In14  1  0.83125787  0.68468443  0.82916359  1
  In  In15  1  0.69106899  0.83583076  0.18124682  1
  In  In16  1  0.66836460  0.14893393  0.16413873  1
  In  In17  1  0.01811224  0.17272403  0.47913951  1
  In  In18  1  0.00801384  0.67865820  0.66919193  1
  In  In19  1  0.85244499  0.16308323  0.32822835  1
  In  In20  1  0.84650750  0.32786547  0.17071351  1
  In  In21  1  0.16747591  0.33549288  0.80642210  1
  In  In22  1  0.85212852  -0.00348354  0.47851285  1
  In  In23  1  0.01316556  0.34889644  0.33108011  1
  In  In24  1  0.63593732  0.68108382  -0.00527664  1
  In  In25  1  0.83132500  0.83752927  0.65315206  1
  In  In26  1  0.48793867  0.19471252  0.68611972  1
  In  In27  1  0.17167270  0.48774975  0.33065449  1
  In  In28  1  0.85540060  0.65405180  0.16631269  1
  In  In29  1  0.67893112  0.81060131  0.50908533  1
  In  In30  1  0.15420128  0.65866291  0.48149886  1
  In  In31  1  0.34301417  0.51502570  0.85508934  1
  In  In32  1  0.18375286  0.32570433  0.18136771  1
  In  In33  1  0.33744755  0.17809248  0.84900577  1
  In  In34  1  0.49061307  0.48137034  0.68212511  1
  In  In35  1  0.18134204  0.65531774  0.15704508  1
  In  In36  1  0.32230929  0.34164049  0.64323719  1
  In  In37  1  0.84081324  0.50791219  0.64157162  1
  In  In38  1  -0.01191534  0.69057539  0.32759129  1
  In  In39  1  0.67146282  0.00056667  -0.00003581  1
  In  In40  1  0.66687944  0.32765294  0.65642866  1
  In  In41  1  -0.01052824  0.02951646  -0.03822369  1
  In  In42  1  0.64770225  0.33790044  0.35341301  1
  In  In43  1  0.14985888  0.13779675  0.64666184  1
  In  In44  1  0.66431657  0.16200558  0.83611539  1
  In  In45  1  0.50070312  -0.02035455  0.84800414  1
  In  In46  1  0.48314435  0.01826354  0.15326527  1
  In  In47  1  0.40497346  0.15286254  0.30573148  1
  In  In48  1  0.34735336  0.65973606  0.70864726  1
  In  In49  1  0.32525737  0.67339297  0.32287472  1
  In  In50  1  0.00344711  0.33459806  -0.00541864  1
  In  In51  1  0.18263547  -0.03446459  0.81842244  1
  In  In52  1  -0.02405976  0.01309258  0.68243126  1
  In  In53  1  0.81743471  0.48652326  0.33122151  1
  In  In54  1  0.64309378  0.34151131  0.00454153  1
  In  In55  1  0.23242656  0.84921278  0.00581720  1
  In  In56  1  0.00457586  0.82352879  0.83601198  1
  In  In57  1  0.31415003  0.00410132  0.65279936  1
  In  In58  1  0.47778626  0.83581686  0.00896841  1
  In  In59  1  0.02655699  0.49171969  0.84442236  1
  In  In60  1  0.00058484  0.17224431  0.16796288  1
  In  In61  1  0.67318106  -0.01467386  0.33108895  1
  In  In62  1  0.66145739  -0.00263925  0.70605236  1
  In  In63  1  0.14624303  -0.01314466  0.48872817  1
  In  In64  1  0.50840578  0.67969247  0.15339967  1
  In  In65  1  0.17814781  0.18424037  -0.00086829  1
  In  In66  1  0.82778201  0.84626674  -0.02065000  1
  In  In67  1  0.49453845  0.49394235  0.34626273  1
  In  In68  1  0.83256304  0.50387595  0.01512053  1
  In  In69  1  0.49587658  0.64681175  0.50668887  1
  In  In70  1  0.13802995  0.81838682  0.32023297  1
  In  In71  1  0.17694004  0.50656697  0.01237853  1
  Te  Te72  1  0.08181751  0.08933960  0.06933652  1
  Te  Te73  1  0.06715767  0.06533569  0.39265003  1
  Te  Te74  1  0.08568653  0.07223324  0.76716773  1
  Te  Te75  1  0.08800572  0.40888978  0.09404928  1
  Te  Te76  1  0.12289969  0.38907187  0.43649532  1
  Te  Te77  1  0.06235770  0.40581450  0.73273044  1
  Te  Te78  1  0.12046589  0.75746942  0.06096653  1
  Te  Te79  1  0.05787112  0.76626854  0.44017562  1
  Te  Te80  1  0.10902048  0.74177211  0.76336023  1
  Te  Te81  1  0.37427926  0.09419280  0.08713523  1
  Te  Te82  1  0.41044750  0.04186505  0.41221118  1
  Te  Te83  1  0.41367733  0.07763084  0.74909502  1
  Te  Te84  1  0.38911101  0.42899787  0.10658771  1
  Te  Te85  1  0.39809246  0.42086960  0.43151788  1
  Te  Te86  1  0.39398619  0.39870121  0.76254567  1
  Te  Te87  1  0.39313355  0.73176059  0.07536986  1
  Te  Te88  1  0.42579603  0.75092937  0.41256216  1
  Te  Te89  1  0.40738356  0.70942518  0.83662235  1
  Te  Te90  1  0.76577778  0.07686220  0.08344848  1
  Te  Te91  1  0.73934302  0.09411055  0.41837079  1
  Te  Te92  1  0.76682758  0.09005359  0.75539554  1
  Te  Te93  1  0.74303055  0.41213414  0.09607837  1
  Te  Te94  1  0.74692539  0.40910561  0.43372055  1
  Te  Te95  1  0.74897422  0.43122830  0.74764133  1
  Te  Te96  1  0.75395149  0.74380431  0.07809320  1
  Te  Te97  1  0.78266329  0.78872663  0.39997128  1
  Te  Te98  1  0.73391474  0.76494132  0.74754371  1
  Te  Te99  1  0.09400653  0.23785257  0.26794711  1
  Te  Te100  1  0.07218948  0.24895029  0.59285184  1
  Te  Te101  1  0.08071874  0.24701860  0.89929616  1
  Te  Te102  1  0.08885001  0.59506628  0.26195083  1
  Te  Te103  1  0.08745454  0.57613437  0.58959479  1
  Te  Te104  1  0.10316067  0.59087414  0.91669380  1
  Te  Te105  1  0.10361170  0.93395243  0.23692491  1
  Te  Te106  1  0.06230058  0.91832868  0.59720991  1
  Te  Te107  1  0.08953004  0.91166205  0.92637439  1
  Te  Te108  1  0.40619643  0.30346927  0.29037672  1
  Te  Te109  1  0.40248993  0.23362170  0.56878625  1
  Te  Te110  1  0.43412279  0.24857960  0.93181440  1
  Te  Te111  1  0.42667330  0.58992010  0.24969316  1
  Te  Te112  1  0.40112345  0.56932940  0.59559901  1
  Te  Te113  1  0.45955780  0.56073894  0.93396376  1
  Te  Te114  1  0.38741355  0.91815348  0.21213268  1
  Te  Te115  1  0.42143679  0.91656671  0.58779150  1
  Te  Te116  1  0.39409588  0.94111138  0.94498844  1
  Te  Te117  1  0.74272900  0.25356465  0.25642845  1
  Te  Te118  1  0.78146320  0.25334569  0.60385844  1
  Te  Te119  1  0.74155172  0.25193449  0.93240555  1
  Te  Te120  1  0.74261083  0.58279137  0.23829553  1
  Te  Te121  1  0.77398035  0.61368463  0.56192191  1
  Te  Te122  1  0.74357511  0.58918738  0.91447936  1
  Te  Te123  1  0.77360124  0.94688172  0.23092423  1
  Te  Te124  1  0.73968050  0.93673914  0.57967573  1
  Te  Te125  1  0.72747244  0.91294457  0.89697924  1
  Te  Te126  1  0.27315594  0.21673520  0.11812612  1
  Te  Te127  1  0.28299778  0.22939007  0.36075632  1
  Te  Te128  1  0.24844165  0.22617480  0.73312964  1
  Te  Te129  1  0.28015153  0.60522420  0.05763582  1
  Te  Te130  1  0.26251002  0.57467117  0.41899478  1
  Te  Te131  1  0.25093138  0.55766468  0.75037686  1
  Te  Te132  1  0.28032346  0.96950608  0.07943702  1
  Te  Te133  1  0.23965480  0.89763853  0.40807203  1
  Te  Te134  1  0.29182104  0.88559627  0.75080057  1
  Te  Te135  1  0.56971405  0.23582345  0.08797660  1
  Te  Te136  1  0.56280706  0.23111339  0.41894060  1
  Te  Te137  1  0.58310907  0.27489413  0.77146178  1
  Te  Te138  1  0.57156966  0.57270849  0.07211514  1
  Te  Te139  1  0.59975518  0.57988170  0.41972913  1
  Te  Te140  1  0.57375664  0.58324204  0.75828868  1
  Te  Te141  1  0.58554620  0.90987439  0.09916679  1
  Te  Te142  1  0.58430415  0.90360851  0.42809367  1
  Te  Te143  1  0.55428198  0.90247432  0.73579087  1
  Te  Te144  1  0.90885872  0.23841472  0.06611320  1
  Te  Te145  1  0.91328694  0.27022548  0.41329600  1
  Te  Te146  1  0.92743783  0.20948502  0.79077134  1
  Te  Te147  1  0.94165899  0.57982910  0.07522921  1
  Te  Te148  1  0.91116612  0.58454449  0.40429249  1
  Te  Te149  1  0.91879426  0.58441455  0.75747452  1
  Te  Te150  1  0.92160373  0.93309804  0.05892382  1
  Te  Te151  1  0.90380372  0.88648250  0.40260490  1
  Te  Te152  1  0.90238042  0.91062264  0.76701204  1
  Te  Te153  1  0.27016376  0.09123110  0.30452003  1
  Te  Te154  1  0.24874731  0.08620448  0.54386616  1
  Te  Te155  1  0.23937779  0.07995496  0.90633493  1
  Te  Te156  1  0.26481563  0.44271637  0.22387105  1
  Te  Te157  1  0.21872231  0.39721508  0.55968376  1
  Te  Te158  1  0.24286408  0.39817265  0.92406365  1
  Te  Te159  1  0.25230315  0.76714651  0.23229313  1
  Te  Te160  1  0.24759460  0.73248426  0.58491361  1
  Te  Te161  1  0.27818254  0.76254670  0.89637647  1
  Te  Te162  1  0.57448310  0.07856563  0.26079598  1
  Te  Te163  1  0.59429891  0.10883274  0.61005011  1
  Te  Te164  1  0.56911558  0.08754197  0.92935435  1
  Te  Te165  1  0.58712451  0.42481473  0.24653032  1
  Te  Te166  1  0.59041579  0.43204016  0.57830340  1
  Te  Te167  1  0.53947096  0.42653638  0.93492974  1
  Te  Te168  1  0.59116771  0.75420433  0.26611405  1
  Te  Te169  1  0.57264859  0.74184891  0.59555549  1
  Te  Te170  1  0.56159045  0.76912933  0.90435059  1
  Te  Te171  1  0.92962957  0.06963280  0.24848889  1
  Te  Te172  1  0.91605219  0.09538653  0.57125149  1
  Te  Te173  1  0.88475771  0.09460980  0.87887818  1
  Te  Te174  1  0.92870774  0.43466858  0.23951898  1
  Te  Te175  1  0.93015619  0.41333542  0.57589363  1
  Te  Te176  1  0.89928141  0.41273409  0.91150893  1
  Te  Te177  1  0.92800560  0.77559316  0.21822696  1
  Te  Te178  1  0.90125674  0.73014489  0.58029203  1
  Te  Te179  1  0.92634539  0.73778848  0.93463917  1
