# generated using pymatgen
data_In2Te3
_symmetry_space_group_name_H-M   'P 1'
_cell_length_a   18.87884299
_cell_length_b   18.89326039
_cell_length_c   18.89122323
_cell_angle_alpha   90.03925431
_cell_angle_beta   89.98043531
_cell_angle_gamma   90.23162447
_symmetry_Int_Tables_number   1
_chemical_formula_structural   In2Te3
_chemical_formula_sum   'In72 Te108'
_cell_volume   6738.11919325
_cell_formula_units_Z   36
loop_
 _symmetry_equiv_pos_site_id
 _symmetry_equiv_pos_as_xyz
  1  'x, y, z'
loop_
 _atom_site_type_symbol
 _atom_site_label
 _atom_site_symmetry_multiplicity
 _atom_site_fract_x
 _atom_site_fract_y
 _atom_site_fract_z
 _atom_site_occupancy
  In  In0  1  0.32485536  0.35006058  0.01165793  1
  In  In1  1  0.68627062  0.50736280  0.49891088  1
  In  In2  1  0.02470946  0.25436673  0.03241242  1
  In  In3  1  -0.02823208  0.13692387  0.84176713  1
  In  In4  1  0.33753584  0.67424633  0.01270292  1
  In  In5  1  0.48865689  0.34361512  0.82579126  1
  In  In6  1  0.82840680  0.68684125  0.16586412  1
  In  In7  1  0.50897551  0.54909271  -0.02281010  1
  In  In8  1  0.52556367  0.33497772  0.47763711  1
  In  In9  1  -0.01031035  0.14615750  0.48300183  1
  In  In10  1  0.01229872  0.50619528  0.81348326  1
  In  In11  1  -0.00243524  0.46793441  0.18902398  1
  In  In12  1  0.68522933  0.34924337  0.00467954  1
  In  In13  1  0.48952083  0.32164273  0.15654454  1
  In  In14  1  -0.06442473  0.90525834  0.51519801  1
  In  In15  1  0.28775902  0.31785355  0.65414442  1
  In  In16  1  0.51440601  0.82917532  0.67401133  1
  In  In17  1  -0.02158699  0.68850644  -0.01660942  1
  In  In18  1  0.50647807  0.53144024  0.66873258  1
  In  In19  1  0.34029310  0.49100043  0.84531499  1
  In  In20  1  0.00803019  0.32820030  0.63664023  1
  In  In21  1  0.17048817  0.64042757  0.47705192  1
  In  In22  1  -0.03357352  0.92353625  0.83376002  1
  In  In23  1  0.18473512  0.66220610  0.84293279  1
  In  In24  1  0.31371258  0.16693061  0.18552417  1
  In  In25  1  0.70753716  0.12874983  0.51813559  1
  In  In26  1  0.34693247  0.51542908  0.17820713  1
  In  In27  1  0.65737753  0.83182454  0.15603500  1
  In  In28  1  0.13840345  0.30680735  0.18555633  1
  In  In29  1  0.15845484  0.83069775  0.32758681  1
  In  In30  1  0.83116267  0.01874048  0.18034010  1
  In  In31  1  0.49327137  0.68903725  0.49691513  1
  In  In32  1  -0.00774712  0.01224076  0.02449358  1
  In  In33  1  0.71339261  0.13300301  0.79754241  1
  In  In34  1  0.86102412  0.49852466  0.65590746  1
  In  In35  1  0.48844247  0.86330903  0.33956453  1
  In  In36  1  0.49082434  0.01368860  0.18113786  1
  In  In37  1  0.64469747  0.49588147  0.15989545  1
  In  In38  1  0.35550838  -0.00327599  0.68875645  1
  In  In39  1  0.31096663  0.85839567  0.87846087  1
  In  In40  1  -0.01328720  0.83917989  0.18904558  1
  In  In41  1  0.52169314  0.15715112  -0.00721768  1
  In  In42  1  0.83008193  0.50865339  0.01137395  1
  In  In43  1  0.76399283  0.75586748  0.85115575  1
  In  In44  1  0.67220016  0.68182051  0.36349246  1
  In  In45  1  0.72216772  0.25285703  0.34842403  1
  In  In46  1  0.15494495  0.00461131  0.51129955  1
  In  In47  1  0.48689746  0.49807457  0.30145355  1
  In  In48  1  0.01395128  0.67445603  0.66962029  1
  In  In49  1  0.52682045  -0.02143040  0.82746609  1
  In  In50  1  0.14719540  0.14516975  0.69413326  1
  In  In51  1  0.31489917  0.32691200  0.33794796  1
  In  In52  1  0.49534282  0.00656140  0.50662375  1
  In  In53  1  0.35314070  0.68123106  0.66937734  1
  In  In54  1  0.18275129  0.83991506  0.67100703  1
  In  In55  1  0.83674145  0.15123202  0.01535583  1
  In  In56  1  0.82703547  0.49164240  0.33263238  1
  In  In57  1  0.29819366  0.00875289  0.32988754  1
  In  In58  1  0.02760395  0.46345251  0.46135711  1
  In  In59  1  0.49444608  0.64482601  0.17829704  1
  In  In60  1  0.29963316  0.11900582  0.87965567  1
  In  In61  1  0.85935922  0.32773205  0.83409514  1
  In  In62  1  0.51038019  0.82574601  -0.01170699  1
  In  In63  1  0.50956863  0.16885641  0.66045544  1
  In  In64  1  0.16296707  0.65362022  0.16948759  1
  In  In65  1  0.32175858  0.17708741  0.48541824  1
  In  In66  1  0.01417757  0.66396064  0.31871420  1
  In  In67  1  0.17056803  0.47077438  0.65231938  1
  In  In68  1  0.83218770  0.67241012  0.50694892  1
  In  In69  1  0.68664694  0.30726148  0.65115880  1
  In  In70  1  0.67004949  0.01528692  0.33063512  1
  In  In71  1  0.68112988  0.53045094  0.82034532  1
  Te  Te72  1  0.08659130  0.12044762  0.06818667  1
  Te  Te73  1  0.06600654  0.04722763  0.39825811  1
  Te  Te74  1  0.05810754  0.04436872  0.75822108  1
  Te  Te75  1  0.07668737  0.39952434  0.08175720  1
  Te  Te76  1  0.13948785  0.37763180  0.42348119  1
  Te  Te77  1  0.08899721  0.39013540  0.75181484  1
  Te  Te78  1  0.06360159  0.74771906  0.09522909  1
  Te  Te79  1  0.07504404  0.74935321  0.42817387  1
  Te  Te80  1  0.09485136  0.75874630  0.76704857  1
  Te  Te81  1  0.41304767  0.10297148  0.08510606  1
  Te  Te82  1  0.41140882  0.08294999  0.40680920  1
  Te  Te83  1  0.43352420  0.09726410  0.77202579  1
  Te  Te84  1  0.44079040  0.44216364  0.07196041  1
  Te  Te85  1  0.41664116  0.41632912  0.41094453  1
  Te  Te86  1  0.40238264  0.41809437  0.72542935  1
  Te  Te87  1  0.42744874  0.75892311  0.09878737  1
  Te  Te88  1  0.40304245  0.77569491  0.42146538  1
  Te  Te89  1  0.39980855  0.78626941  0.76696197  1
  Te  Te90  1  0.73606819  0.06353508  0.07641454  1
  Te  Te91  1  0.79540131  0.06899488  0.40309869  1
  Te  Te92  1  0.80935638  0.06145673  0.70726381  1
  Te  Te93  1  0.76710257  0.41600482  0.11562751  1
  Te  Te94  1  0.73902940  0.39419762  0.41272506  1
  Te  Te95  1  0.76166389  0.41518477  0.74809577  1
  Te  Te96  1  0.75785955  0.76908360  0.06423190  1
  Te  Te97  1  0.75479127  0.77703047  0.43748965  1
  Te  Te98  1  0.74533990  0.80161043  0.71069758  1
  Te  Te99  1  0.04137857  0.22705037  0.26887282  1
  Te  Te100  1  0.09514565  0.22146345  0.57485822  1
  Te  Te101  1  0.07273470  0.23105916  0.89437536  1
  Te  Te102  1  0.10099538  0.55104044  0.26604949  1
  Te  Te103  1  0.06858210  0.56348324  0.57986269  1
  Te  Te104  1  0.07837531  0.58794828  0.92447471  1
  Te  Te105  1  0.07342089  0.93516122  0.26172964  1
  Te  Te106  1  0.07176850  0.90977911  0.59504943  1
  Te  Te107  1  0.07472123  0.92466578  0.93661319  1
  Te  Te108  1  0.42042653  0.24294295  0.26582791  1
  Te  Te109  1  0.42389188  0.25923870  0.57417456  1
  Te  Te110  1  0.42142274  0.25969169  0.93279079  1
  Te  Te111  1  0.38362213  0.61860913  0.28841747  1
  Te  Te112  1  0.40728955  0.58150133  0.56584803  1
  Te  Te113  1  0.40943807  0.61923753  0.88877101  1
  Te  Te114  1  0.38787241  0.91929568  0.24060112  1
  Te  Te115  1  0.41173777  0.90557884  0.58375358  1
  Te  Te116  1  0.42248194  0.95010546  0.93751375  1
  Te  Te117  1  0.79368860  0.19248802  0.23452517  1
  Te  Te118  1  0.78853909  0.24030618  0.57240565  1
  Te  Te119  1  0.75537158  0.24905721  0.91258206  1
  Te  Te120  1  0.73732356  0.58747968  0.25268210  1
  Te  Te121  1  0.74869938  0.59149008  0.60729956  1
  Te  Te122  1  0.76391674  0.60733477  0.91937126  1
  Te  Te123  1  0.74535818  0.90849097  0.25139230  1
  Te  Te124  1  0.80500874  0.96497033  0.56514676  1
  Te  Te125  1  0.69909687  0.86399659  0.93070593  1
  Te  Te126  1  0.23876811  0.24722335  0.07950992  1
  Te  Te127  1  0.21662680  0.22802915  0.39337443  1
  Te  Te128  1  0.25726027  0.22350200  0.76721524  1
  Te  Te129  1  0.24838872  0.56794996  0.07383952  1
  Te  Te130  1  0.25567138  0.58474115  0.37467938  1
  Te  Te131  1  0.24776348  0.57674255  0.73246524  1
  Te  Te132  1  0.28380890  0.93356949  0.01205067  1
  Te  Te133  1  0.24337553  0.91021612  0.43147779  1
  Te  Te134  1  0.23954563  0.94169209  0.76917503  1
  Te  Te135  1  0.60393576  0.24824920  0.08563353  1
  Te  Te136  1  0.60236676  0.21278548  0.43556711  1
  Te  Te137  1  0.59490902  0.25151642  0.76286963  1
  Te  Te138  1  0.60469922  0.61474967  0.07365043  1
  Te  Te139  1  0.57747640  0.56833004  0.41177512  1
  Te  Te140  1  0.58122601  0.61995088  0.75870253  1
  Te  Te141  1  0.57345698  0.93203604  0.08067758  1
  Te  Te142  1  0.59621390  0.92279754  0.42941931  1
  Te  Te143  1  0.62419717  0.91428107  0.73485026  1
  Te  Te144  1  0.89191314  0.26176933  0.09781780  1
  Te  Te145  1  0.94567827  0.25449827  0.39082607  1
  Te  Te146  1  0.92513410  0.24105393  0.73207886  1
  Te  Te147  1  0.92640339  0.58511909  0.10759412  1
  Te  Te148  1  0.91860560  0.58117737  0.41644416  1
  Te  Te149  1  0.91007843  0.60279696  0.75665645  1
  Te  Te150  1  0.89960769  0.91180411  0.09014837  1
  Te  Te151  1  0.90906574  0.97041236  0.38242507  1
  Te  Te152  1  0.85310827  0.91173924  0.73216994  1
  Te  Te153  1  0.21788016  0.05933135  0.21709454  1
  Te  Te154  1  0.26612824  0.08331643  0.59366173  1
  Te  Te155  1  0.19594988  0.05178719  0.96556482  1
  Te  Te156  1  0.25335880  0.40420883  0.22491359  1
  Te  Te157  1  0.24545933  0.40544475  0.54036410  1
  Te  Te158  1  0.23767176  0.41043926  0.91011131  1
  Te  Te159  1  0.23884442  0.76874011  0.21989096  1
  Te  Te160  1  0.24223111  0.73478141  0.58011289  1
  Te  Te161  1  0.22352625  0.75643263  0.95581425  1
  Te  Te162  1  0.58280692  0.10390326  0.25302527  1
  Te  Te163  1  0.59923368  0.06129139  0.60567982  1
  Te  Te164  1  0.61639068  0.07577901  0.90483989  1
  Te  Te165  1  0.58663141  0.39179772  0.25491937  1
  Te  Te166  1  0.58974975  0.41888668  0.59570103  1
  Te  Te167  1  0.58986416  0.43068967  0.90986899  1
  Te  Te168  1  0.57465731  0.74880751  0.26491910  1
  Te  Te169  1  0.59722001  0.74914525  0.58063951  1
  Te  Te170  1  0.60068982  0.75779394  0.89001662  1
  Te  Te171  1  0.93256150  0.12187687  0.22301516  1
  Te  Te172  1  0.92227465  0.06577296  0.59233842  1
  Te  Te173  1  0.87766972  0.03919517  0.91459832  1
  Te  Te174  1  0.92351577  0.38458266  0.28960489  1
  Te  Te175  1  0.91301686  0.40639908  0.54677521  1
  Te  Te176  1  0.92600149  0.43202150  0.92096935  1
  Te  Te177  1  0.89845648  0.75622688  0.28168516  1
  Te  Te178  1  0.92336271  0.76272657  0.58785190  1
  Te  Te179  1  0.91298916  0.78746611  0.89376828  1
