# generated using pymatgen
data_In2Te3
_symmetry_space_group_name_H-M   'P 1'
_cell_length_a   18.74834046
_cell_length_b   18.74216094
_cell_length_c   18.74595512
_cell_angle_alpha   90.01279145
_cell_angle_beta   89.98735319
_cell_angle_gamma   90.04636541
_symmetry_Int_Tables_number   1
_chemical_formula_structural   In2Te3
_chemical_formula_sum   'In72 Te108'
_cell_volume   6587.03397801
_cell_formula_units_Z   36
loop_
 _symmetry_equiv_pos_site_id
 _symmetry_equiv_pos_as_xyz
  1  'x, y, z'
loop_
 _atom_site_type_symbol
 _atom_site_label
 _atom_site_symmetry_multiplicity
 _atom_site_fract_x
 _atom_site_fract_y
 _atom_site_fract_z
 _atom_site_occupancy
  In  In0  1  0.82635062  0.00298697  0.49096006  1
  In  In1  1  0.66062985  0.01042407  -0.01838189  1
  In  In2  1  0.67946148  0.00889587  0.69600408  1
  In  In3  1  0.17168285  0.34055124  0.48806613  1
  In  In4  1  0.33011788  0.64584808  0.33102187  1
  In  In5  1  0.49934347  0.82517718  -0.02695337  1
  In  In6  1  0.48940760  0.79762479  0.66861268  1
  In  In7  1  0.16987941  0.82888822  0.33982985  1
  In  In8  1  0.36287829  0.02118314  0.67520419  1
  In  In9  1  0.48017049  0.64077570  0.16405226  1
  In  In10  1  0.01447409  0.35407675  0.69275663  1
  In  In11  1  0.67619514  0.81849733  0.85979694  1
  In  In12  1  0.48806433  0.02918011  0.15179775  1
  In  In13  1  0.02914086  0.64416756  -0.01739131  1
  In  In14  1  0.49019650  0.34409885  0.15604437  1
  In  In15  1  0.67448233  0.82168649  0.15878251  1
  In  In16  1  0.67163571  0.18835136  0.49706746  1
  In  In17  1  0.00580068  0.01241364  -0.00263925  1
  In  In18  1  0.49174919  0.83171002  0.30732008  1
  In  In19  1  0.64395056  0.48985095  0.81916336  1
  In  In20  1  0.47606867  0.02926424  0.48426033  1
  In  In21  1  0.80616710  0.83743366  -0.00999744  1
  In  In22  1  0.18950436  0.19610302  0.68420036  1
  In  In23  1  -0.00619812  0.16370659  0.48847884  1
  In  In24  1  0.67622293  0.63532294  0.35388287  1
  In  In25  1  0.01214384  0.84218504  0.81883303  1
  In  In26  1  0.65203154  0.65836820  0.01848330  1
  In  In27  1  0.32490716  0.84200874  0.16204679  1
  In  In28  1  0.01338673  0.01611721  0.64967387  1
  In  In29  1  0.65427607  0.18219047  0.82627284  1
  In  In30  1  0.49413304  0.64014818  0.49034229  1
  In  In31  1  0.86526590  0.02226436  0.18861777  1
  In  In32  1  0.66647841  0.19870521  0.15932299  1
  In  In33  1  0.01943860  0.34629195  -0.01734405  1
  In  In34  1  0.17750027  0.80099690  0.67622338  1
  In  In35  1  0.32930241  0.35676278  0.70206898  1
  In  In36  1  0.32865861  0.48065943  0.16860865  1
  In  In37  1  0.17090370  0.00875397  0.84290913  1
  In  In38  1  0.18426809  0.01002287  0.15551587  1
  In  In39  1  0.65944106  0.02563587  0.33786295  1
  In  In40  1  0.50543853  0.01647532  0.82553505  1
  In  In41  1  0.15273517  -0.00508585  0.49599360  1
  In  In42  1  0.82904784  0.33525961  0.82796882  1
  In  In43  1  0.85033215  0.65368680  0.82925501  1
  In  In44  1  0.16454857  0.18412183  0.00465379  1
  In  In45  1  -0.00170595  0.02406794  0.32603767  1
  In  In46  1  0.02035934  0.66050894  0.33305477  1
  In  In47  1  0.01856779  0.49705031  0.16765080  1
  In  In48  1  0.00570488  0.64809719  0.66506262  1
  In  In49  1  0.85172774  0.82365483  0.67502201  1
  In  In50  1  0.50601156  0.16768768  0.67494716  1
  In  In51  1  0.85152439  0.84274665  0.33546490  1
  In  In52  1  0.01590495  0.49114056  0.49882161  1
  In  In53  1  0.83080088  0.34015431  0.17397639  1
  In  In54  1  0.15733432  0.31973784  0.17962553  1
  In  In55  1  0.82744323  0.33466149  0.50872438  1
  In  In56  1  0.32590310  0.82392493  0.84420023  1
  In  In57  1  0.83493185  0.17076321  -0.00266021  1
  In  In58  1  0.50748269  0.35150093  0.51391161  1
  In  In59  1  0.81156822  0.63456502  0.53579678  1
  In  In60  1  0.30602982  0.60389270  -0.04225380  1
  In  In61  1  0.31807344  0.18674351  0.48673364  1
  In  In62  1  0.32612463  0.49758889  0.49249429  1
  In  In63  1  0.01293640  0.81161202  0.14939553  1
  In  In64  1  0.49537723  0.33211901  0.83994390  1
  In  In65  1  0.64587541  0.81763703  0.50837270  1
  In  In66  1  0.64736876  0.49878022  0.16970228  1
  In  In67  1  0.82634267  0.48181534  0.34123920  1
  In  In68  1  0.32773755  0.18448043  0.16228945  1
  In  In69  1  0.83426269  0.48912875  0.00876808  1
  In  In70  1  0.31452898  0.62942504  0.68326599  1
  In  In71  1  0.30729521  0.84104378  0.50826383  1
  Te  Te72  1  0.07301005  0.10188468  0.10072557  1
  Te  Te73  1  0.10660667  0.10606941  0.40172276  1
  Te  Te74  1  0.08835173  0.10067535  0.75302932  1
  Te  Te75  1  0.11387568  0.42428429  0.07378970  1
  Te  Te76  1  0.08372628  0.41381347  0.39256076  1
  Te  Te77  1  0.11772788  0.43003290  0.77274204  1
  Te  Te78  1  0.11060954  0.73368070  0.06969179  1
  Te  Te79  1  0.08398306  0.75159889  0.43103771  1
  Te  Te80  1  0.09137488  0.72075463  0.77239087  1
  Te  Te81  1  0.39349943  0.09430321  0.05968251  1
  Te  Te82  1  0.40658066  0.11523218  0.38885635  1
  Te  Te83  1  0.39725501  0.12594889  0.78449744  1
  Te  Te84  1  0.40492833  0.41906627  0.05750756  1
  Te  Te85  1  0.40487621  0.39741099  0.41642392  1
  Te  Te86  1  0.42244312  0.45323179  0.77850516  1
  Te  Te87  1  0.41601549  0.74911395  0.07761487  1
  Te  Te88  1  0.41559772  0.75530807  0.41874801  1
  Te  Te89  1  0.40778222  0.71681146  0.76870643  1
  Te  Te90  1  0.74809351  0.07210582  0.09166277  1
  Te  Te91  1  0.76952751  0.11012436  0.39918663  1
  Te  Te92  1  0.76491364  0.11080647  0.75673103  1
  Te  Te93  1  0.73008853  0.40477836  0.07842581  1
  Te  Te94  1  0.72797420  0.41547379  0.42926272  1
  Te  Te95  1  0.75674244  0.43055103  0.73658253  1
  Te  Te96  1  0.77037693  0.72578391  0.08947737  1
  Te  Te97  1  0.75398641  0.75288798  0.41954328  1
  Te  Te98  1  0.74978688  0.73856407  0.74943886  1
  Te  Te99  1  0.05727788  0.22899652  0.23825131  1
  Te  Te100  1  0.08407212  0.25214134  0.58539900  1
  Te  Te101  1  0.08348522  0.24542966  0.89487512  1
  Te  Te102  1  0.11128537  0.58016096  0.24944901  1
  Te  Te103  1  0.10506646  0.57077813  0.58651088  1
  Te  Te104  1  0.10239180  0.54076020  0.90112051  1
  Te  Te105  1  0.07761909  0.91517610  0.24500703  1
  Te  Te106  1  0.08637082  0.89450474  0.59154921  1
  Te  Te107  1  0.09485351  0.90690071  0.92998661  1
  Te  Te108  1  0.41585590  0.26057939  0.25584453  1
  Te  Te109  1  0.40031275  0.25254253  0.60029131  1
  Te  Te110  1  0.38379256  0.24581645  0.88809123  1
  Te  Te111  1  0.43240533  0.54987419  0.27363539  1
  Te  Te112  1  0.42079037  0.55934833  0.59845987  1
  Te  Te113  1  0.42881095  0.56556874  0.88463552  1
  Te  Te114  1  0.40481414  0.94132293  0.24828948  1
  Te  Te115  1  0.42843580  0.90908719  0.57987072  1
  Te  Te116  1  0.41023585  0.93315589  0.91388795  1
  Te  Te117  1  0.74739671  0.25978536  0.26658692  1
  Te  Te118  1  0.74928112  0.25025062  0.60495298  1
  Te  Te119  1  0.73663104  0.26422433  0.92803415  1
  Te  Te120  1  0.76017440  0.57699475  0.24006132  1
  Te  Te121  1  0.72542967  0.53895634  0.61311777  1
  Te  Te122  1  0.74581907  0.57996366  0.91746939  1
  Te  Te123  1  0.74554891  0.92074217  0.25429290  1
  Te  Te124  1  0.74778426  0.90937562  0.58683677  1
  Te  Te125  1  0.76175735  0.94409455  0.88865067  1
  Te  Te126  1  0.25938119  0.28594987  0.06704605  1
  Te  Te127  1  0.25824632  0.27777962  0.38106314  1
  Te  Te128  1  0.25240158  0.26847997  0.80242607  1
  Te  Te129  1  0.24863666  0.58142637  0.09335315  1
  Te  Te130  1  0.22876966  0.57961486  0.41513349  1
  Te  Te131  1  0.22526121  0.55640981  0.78001834  1
  Te  Te132  1  0.24823605  0.91691193  0.06064760  1
  Te  Te133  1  0.26069071  0.93761213  0.40149318  1
  Te  Te134  1  0.25553268  0.92027411  0.73666057  1
  Te  Te135  1  0.56762348  0.25194009  0.06486862  1
  Te  Te136  1  0.56389045  0.25037423  0.41991879  1
  Te  Te137  1  0.59165325  0.28081002  0.72691252  1
  Te  Te138  1  0.55005511  0.55237747  0.06113887  1
  Te  Te139  1  0.59142416  0.54023868  0.43194703  1
  Te  Te140  1  0.59740353  0.58079498  0.71087315  1
  Te  Te141  1  0.57960990  0.91290106  0.07964539  1
  Te  Te142  1  0.57728512  0.91645742  0.41128195  1
  Te  Te143  1  0.57824414  0.89973859  0.75364638  1
  Te  Te144  1  0.92400374  0.26667689  0.07580714  1
  Te  Te145  1  0.92748182  0.27304232  0.41583005  1
  Te  Te146  1  0.92921843  0.25113643  0.75628615  1
  Te  Te147  1  0.92728077  0.58593857  0.08213961  1
  Te  Te148  1  0.90620100  0.58498402  0.42418153  1
  Te  Te149  1  0.91947845  0.55502162  0.74399303  1
  Te  Te150  1  0.90841953  0.91411593  0.08338779  1
  Te  Te151  1  0.94117823  0.92269780  0.42939960  1
  Te  Te152  1  0.91915236  0.93924857  0.74757733  1
  Te  Te153  1  0.24476935  0.09955847  0.25458706  1
  Te  Te154  1  0.24686804  0.08139278  0.58652232  1
  Te  Te155  1  0.25529743  0.08219058  0.93969652  1
  Te  Te156  1  0.24733953  0.40170271  0.26900426  1
  Te  Te157  1  0.23783466  0.42404074  0.59740189  1
  Te  Te158  1  0.22885053  0.44534417  0.89071966  1
  Te  Te159  1  0.24550222  0.73875133  0.24200796  1
  Te  Te160  1  0.24959579  0.71561870  0.57132262  1
  Te  Te161  1  0.23904790  0.73655701  0.92542178  1
  Te  Te162  1  0.57193266  0.11184938  0.24964869  1
  Te  Te163  1  0.58751200  0.06904086  0.58312495  1
  Te  Te164  1  0.56257578  0.11393566  0.93099050  1
  Te  Te165  1  0.58547105  0.40001630  0.25833790  1
  Te  Te166  1  0.59576419  0.44980332  0.58486614  1
  Te  Te167  1  0.58705278  0.40902170  0.92903124  1
  Te  Te168  1  0.59036253  0.72681702  0.25039855  1
  Te  Te169  1  0.59457276  0.70703661  0.59897146  1
  Te  Te170  1  0.57121585  0.71286893  0.89928990  1
  Te  Te171  1  0.92710319  0.14187967  0.25877477  1
  Te  Te172  1  0.89830276  0.09703786  0.58835326  1
  Te  Te173  1  0.91877245  0.08929924  0.90694103  1
  Te  Te174  1  0.93591155  0.40933655  0.26205841  1
  Te  Te175  1  0.91884322  0.42522207  0.59565595  1
  Te  Te176  1  0.92459462  0.43435226  0.90009855  1
  Te  Te177  1  0.91800475  0.73924736  0.24634083  1
  Te  Te178  1  0.92196938  0.73936039  0.57208196  1
  Te  Te179  1  0.92361528  0.75728708  0.91867262  1
