# generated using pymatgen
data_In2Te3
_symmetry_space_group_name_H-M   'P 1'
_cell_length_a   19.01200245
_cell_length_b   19.01501106
_cell_length_c   18.95869154
_cell_angle_alpha   90.11366382
_cell_angle_beta   89.98131775
_cell_angle_gamma   89.88297815
_symmetry_Int_Tables_number   1
_chemical_formula_structural   In2Te3
_chemical_formula_sum   'In72 Te108'
_cell_volume   6853.79358025
_cell_formula_units_Z   36
loop_
 _symmetry_equiv_pos_site_id
 _symmetry_equiv_pos_as_xyz
  1  'x, y, z'
loop_
 _atom_site_type_symbol
 _atom_site_label
 _atom_site_symmetry_multiplicity
 _atom_site_fract_x
 _atom_site_fract_y
 _atom_site_fract_z
 _atom_site_occupancy
  In  In0  1  0.85693707  0.16623968  0.65043496  1
  In  In1  1  0.82804873  0.30338060  0.17509945  1
  In  In2  1  0.27244045  0.64711094  0.31959995  1
  In  In3  1  0.13959043  0.80286875  -0.04282755  1
  In  In4  1  0.32306756  0.67179815  0.00290948  1
  In  In5  1  0.61947526  0.30990336  -0.00721731  1
  In  In6  1  0.00760328  -0.00586576  0.00672297  1
  In  In7  1  0.81145342  0.52173110  0.01413089  1
  In  In8  1  0.32997131  0.16967715  0.15648522  1
  In  In9  1  0.84186869  0.66528510  0.18862103  1
  In  In10  1  -0.00737907  0.35950643  0.66433097  1
  In  In11  1  0.32308291  0.49638125  0.81766352  1
  In  In12  1  0.49730097  0.84244282  0.66896203  1
  In  In13  1  0.04154915  0.51028315  0.20938272  1
  In  In14  1  0.33456317  0.31728341  -0.02821445  1
  In  In15  1  -0.00159575  0.67245500  -0.00511853  1
  In  In16  1  0.51157263  0.33473005  0.17052130  1
  In  In17  1  0.18394853  0.01874087  0.48610246  1
  In  In18  1  0.67774304  0.00133257  -0.00649898  1
  In  In19  1  0.30797694  0.51023832  0.17907893  1
  In  In20  1  -0.01168460  0.81989187  0.15010483  1
  In  In21  1  0.15312876  0.34640069  0.52394615  1
  In  In22  1  0.52492089  0.01652723  0.50332838  1
  In  In23  1  0.34148303  0.85148985  0.10193535  1
  In  In24  1  0.85052784  0.52205975  0.67960658  1
  In  In25  1  0.80507855  0.33569006  0.84663012  1
  In  In26  1  0.02359487  0.85022430  0.48457514  1
  In  In27  1  0.83657309  0.48567329  0.35085962  1
  In  In28  1  0.13759030  0.82296181  0.70252643  1
  In  In29  1  0.15765284  0.17464731  0.32023755  1
  In  In30  1  0.68744579  0.48857039  0.50516734  1
  In  In31  1  -0.01521987  0.01154164  0.34406151  1
  In  In32  1  0.31102147  0.67136869  0.68215283  1
  In  In33  1  0.14299222  0.00344575  0.82421599  1
  In  In34  1  0.00156514  0.36473888  0.03380190  1
  In  In35  1  0.16501021  0.19561487  -0.01466808  1
  In  In36  1  0.67967305  0.84491674  0.19203184  1
  In  In37  1  0.47629371  0.63736989  0.15517444  1
  In  In38  1  0.48947428  0.32714092  0.47888116  1
  In  In39  1  0.50120733  0.46601859  -0.01060988  1
  In  In40  1  -0.01700289  -0.00939351  0.66028322  1
  In  In41  1  0.00705493  0.17275843  0.85061263  1
  In  In42  1  0.66817899  0.15537353  0.84588695  1
  In  In43  1  0.66566777  0.66565174  0.34862941  1
  In  In44  1  0.51882800  0.15943088  0.33632271  1
  In  In45  1  0.67934498  0.31472050  0.64593709  1
  In  In46  1  0.66862418  0.15294572  0.16168500  1
  In  In47  1  0.31972606  0.01346065  0.67440895  1
  In  In48  1  0.50754448  0.65677726  0.82430229  1
  In  In49  1  0.67662029  0.67544944  -0.03116636  1
  In  In50  1  0.17663767  0.82780217  0.30918569  1
  In  In51  1  0.47869087  -0.01008485  0.08858256  1
  In  In52  1  0.51923313  0.69062162  0.52700096  1
  In  In53  1  0.85920450  -0.01605207  0.81831371  1
  In  In54  1  0.82433931  0.84620903  -0.00437920  1
  In  In55  1  0.01153276  0.52106425  0.51091283  1
  In  In56  1  0.46619183  0.50305815  0.65681931  1
  In  In57  1  -0.02580949  0.30973491  0.34681527  1
  In  In58  1  -0.01100581  0.51171171  0.82619149  1
  In  In59  1  0.31890342  0.31753641  0.69726182  1
  In  In60  1  0.86139846  0.67768170  0.51811614  1
  In  In61  1  0.69479710  0.01937363  0.34872215  1
  In  In62  1  0.33259650  0.35861343  0.33640865  1
  In  In63  1  0.63644785  0.47964475  0.16955116  1
  In  In64  1  0.34529306  0.16534532  0.49427883  1
  In  In65  1  -0.00023148  0.15344650  0.17821796  1
  In  In66  1  0.18911094  -0.02088850  0.16071544  1
  In  In67  1  0.67107729  0.83589315  0.51780480  1
  In  In68  1  0.51741030  0.14542986  0.67944373  1
  In  In69  1  0.32648255  0.82065314  0.50404571  1
  In  In70  1  0.66465276  -0.01836209  0.67761479  1
  In  In71  1  0.49149627  0.84417108  0.30516526  1
  Te  Te72  1  0.10530031  0.08991531  0.08095015  1
  Te  Te73  1  0.07447884  0.10421706  0.42478717  1
  Te  Te74  1  0.06557329  0.09679502  0.73353577  1
  Te  Te75  1  0.10023616  0.46087386  0.08397349  1
  Te  Te76  1  0.06408233  0.40828268  0.41758647  1
  Te  Te77  1  0.08759098  0.43589095  0.74487063  1
  Te  Te78  1  0.09952885  0.74008858  0.09213991  1
  Te  Te79  1  0.09464358  0.75024127  0.40189392  1
  Te  Te80  1  0.08541471  0.70970966  0.78098365  1
  Te  Te81  1  0.36730448  0.08211732  0.04335340  1
  Te  Te82  1  0.41938612  0.06710424  0.40622757  1
  Te  Te83  1  0.41703958  0.07908774  0.76327918  1
  Te  Te84  1  0.40876137  0.42224794  0.10048704  1
  Te  Te85  1  0.39154903  0.43318867  0.44872870  1
  Te  Te86  1  0.42687117  0.40104897  0.76218811  1
  Te  Te87  1  0.44446095  0.74434202  0.05621313  1
  Te  Te88  1  0.43427150  0.75796676  0.41721737  1
  Te  Te89  1  0.41105944  0.75581137  0.75798365  1
  Te  Te90  1  0.76537355  0.07403983  0.08513332  1
  Te  Te91  1  0.78171160  0.09631515  0.43852461  1
  Te  Te92  1  0.76704615  0.08971427  0.74909501  1
  Te  Te93  1  0.74694902  0.40922015  0.09291043  1
  Te  Te94  1  0.73668638  0.39467307  0.40361868  1
  Te  Te95  1  0.75052724  0.41827487  0.73336986  1
  Te  Te96  1  0.75594708  0.74230381  0.08967767  1
  Te  Te97  1  0.75935275  0.75113108  0.42696709  1
  Te  Te98  1  0.83174863  0.66620363  0.79008575  1
  Te  Te99  1  0.07499893  0.26966922  0.23801813  1
  Te  Te100  1  0.05519160  0.25537808  0.58105454  1
  Te  Te101  1  0.07164119  0.29273961  0.91771435  1
  Te  Te102  1  0.13045740  0.59066992  0.29774825  1
  Te  Te103  1  0.13673966  0.56859349  0.57171001  1
  Te  Te104  1  0.08731925  0.59594848  0.90181226  1
  Te  Te105  1  0.07348369  0.92948353  0.24415442  1
  Te  Te106  1  0.11129439  0.93476952  0.58987038  1
  Te  Te107  1  0.04830411  0.90578096  0.89164672  1
  Te  Te108  1  0.41482035  0.24571499  0.26269928  1
  Te  Te109  1  0.42988358  0.23882038  0.59589637  1
  Te  Te110  1  0.47469490  0.28621467  0.94224222  1
  Te  Te111  1  0.40583047  0.57987959  0.27408838  1
  Te  Te112  1  0.39943441  0.61062638  0.57367124  1
  Te  Te113  1  0.41590865  0.57102764  0.92060722  1
  Te  Te114  1  0.41224261  0.93229088  0.21530196  1
  Te  Te115  1  0.41288861  0.93211530  0.57449899  1
  Te  Te116  1  0.39408475  0.93113147  0.97940811  1
  Te  Te117  1  0.71521407  0.25748372  0.25490735  1
  Te  Te118  1  0.79216256  0.26666388  0.56623142  1
  Te  Te119  1  0.74703914  0.23814158  0.94561781  1
  Te  Te120  1  0.74046200  0.57028207  0.25322150  1
  Te  Te121  1  0.75408622  0.59747434  0.58792579  1
  Te  Te122  1  0.75160401  0.57418339  0.88541704  1
  Te  Te123  1  0.77193522  0.91498427  0.27829900  1
  Te  Te124  1  0.76642943  0.90126174  0.60906910  1
  Te  Te125  1  0.74549935  0.91011003  0.88497273  1
  Te  Te126  1  0.24385610  0.27350505  0.08874255  1
  Te  Te127  1  0.24627458  0.25189338  0.41680014  1
  Te  Te128  1  0.24315739  0.24238830  0.79395178  1
  Te  Te129  1  0.23033618  0.59347251  0.08550057  1
  Te  Te130  1  0.21861748  0.58143487  0.44166230  1
  Te  Te131  1  0.22923633  0.55101946  0.71445239  1
  Te  Te132  1  0.21973327  0.91386881  0.02958354  1
  Te  Te133  1  0.25944411  0.91455556  0.40592351  1
  Te  Te134  1  0.24822394  0.91254418  0.76233570  1
  Te  Te135  1  0.54918231  0.21165862  0.09014205  1
  Te  Te136  1  0.59505828  0.23714392  0.43297328  1
  Te  Te137  1  0.59450649  0.25190213  0.75528469  1
  Te  Te138  1  0.59197855  0.58380898  0.06722049  1
  Te  Te139  1  0.58230471  0.58235376  0.44086943  1
  Te  Te140  1  0.57457594  0.57193061  0.72582191  1
  Te  Te141  1  0.60111124  0.89639316  0.07677186  1
  Te  Te142  1  0.58608919  0.90734888  0.41375167  1
  Te  Te143  1  0.55154257  0.94336607  0.76253891  1
  Te  Te144  1  0.92559577  0.24080143  0.07677637  1
  Te  Te145  1  0.87733131  0.20315269  0.37744142  1
  Te  Te146  1  0.91110104  0.26150009  0.76676201  1
  Te  Te147  1  0.92719912  0.57979049  0.09521524  1
  Te  Te148  1  0.92510686  0.59295176  0.40716788  1
  Te  Te149  1  0.96268375  0.62568880  0.71932158  1
  Te  Te150  1  0.90194680  0.93057606  0.09535015  1
  Te  Te151  1  0.90714500  0.92297818  0.43207520  1
  Te  Te152  1  0.91008137  0.88066413  0.72559192  1
  Te  Te153  1  0.25507061  0.07976135  0.25387661  1
  Te  Te154  1  0.24122589  0.11345655  0.59195195  1
  Te  Te155  1  0.23326862  0.11266198  0.87965906  1
  Te  Te156  1  0.22526626  0.41663801  0.25710106  1
  Te  Te157  1  0.27901677  0.39866790  0.58026366  1
  Te  Te158  1  0.24845458  0.42079019  0.91805692  1
  Te  Te159  1  0.28260370  0.76523007  0.22399873  1
  Te  Te160  1  0.22319106  0.75687622  0.59151096  1
  Te  Te161  1  0.25334629  0.73718571  0.89161642  1
  Te  Te162  1  0.58761603  0.05702903  0.24880353  1
  Te  Te163  1  0.62483089  0.09386891  0.58298926  1
  Te  Te164  1  0.57324922  0.06828113  0.91462247  1
  Te  Te165  1  0.55459612  0.42551863  0.27724203  1
  Te  Te166  1  0.57416489  0.41291536  0.58245873  1
  Te  Te167  1  0.61528922  0.42930631  0.90658585  1
  Te  Te168  1  0.57762360  0.72977620  0.24066235  1
  Te  Te169  1  0.61170478  0.75127879  0.63049406  1
  Te  Te170  1  0.60279118  0.75755742  0.87479716  1
  Te  Te171  1  0.89108063  0.09448488  0.25964324  1
  Te  Te172  1  0.90254205  0.06016368  0.55526272  1
  Te  Te173  1  0.91358727  0.07985832  0.92404038  1
  Te  Te174  1  0.91775245  0.41730817  0.24084891  1
  Te  Te175  1  0.90355020  0.43193177  0.56677240  1
  Te  Te176  1  0.90157974  0.42704379  0.92532578  1
  Te  Te177  1  0.93166455  0.75052672  0.26479530  1
  Te  Te178  1  0.96919287  0.75271853  0.58392082  1
  Te  Te179  1  0.89852432  0.74663463  0.91126554  1
