# generated using pymatgen
data_In2Te3
_symmetry_space_group_name_H-M   'P 1'
_cell_length_a   18.80106041
_cell_length_b   18.79298059
_cell_length_c   18.79390707
_cell_angle_alpha   90.04614868
_cell_angle_beta   90.01194669
_cell_angle_gamma   89.96957062
_symmetry_Int_Tables_number   1
_chemical_formula_structural   In2Te3
_chemical_formula_sum   'In72 Te108'
_cell_volume   6640.40967532
_cell_formula_units_Z   36
loop_
 _symmetry_equiv_pos_site_id
 _symmetry_equiv_pos_as_xyz
  1  'x, y, z'
loop_
 _atom_site_type_symbol
 _atom_site_label
 _atom_site_symmetry_multiplicity
 _atom_site_fract_x
 _atom_site_fract_y
 _atom_site_fract_z
 _atom_site_occupancy
  In  In0  1  0.02859757  0.83443360  0.16616458  1
  In  In1  1  0.33297432  0.51080364  0.84085418  1
  In  In2  1  0.65234989  0.31233942  0.00097770  1
  In  In3  1  0.66628446  -0.00276701  -0.01158237  1
  In  In4  1  0.33944879  0.01026792  0.03177161  1
  In  In5  1  0.15744435  0.48747548  0.64253758  1
  In  In6  1  0.65117660  0.17549232  0.14955793  1
  In  In7  1  -0.01096561  0.14319464  0.51053937  1
  In  In8  1  0.84105674  0.33895719  0.17102997  1
  In  In9  1  -0.01077498  0.83197586  0.50371005  1
  In  In10  1  0.14572504  0.66720436  0.83525689  1
  In  In11  1  0.00185742  0.67411388  0.34615622  1
  In  In12  1  0.67864648  0.67043893  0.67059000  1
  In  In13  1  0.17084472  -0.00428871  0.80863435  1
  In  In14  1  0.31922208  0.66119885  0.34867679  1
  In  In15  1  0.47341351  0.65300023  0.19037354  1
  In  In16  1  0.17394367  0.16337996  0.03469840  1
  In  In17  1  -0.02447006  0.83015808  0.79717111  1
  In  In18  1  0.82756739  0.31537969  0.49596397  1
  In  In19  1  0.33138311  0.33266835  0.03032609  1
  In  In20  1  0.30435232  0.64850754  0.01137247  1
  In  In21  1  0.14977279  0.34126832  0.82879204  1
  In  In22  1  0.68650287  -0.02278786  0.64562534  1
  In  In23  1  0.16302587  0.14554698  0.66156856  1
  In  In24  1  0.32719730  0.32068885  0.64520203  1
  In  In25  1  0.68528889  0.66185234  -0.00153363  1
  In  In26  1  0.51906276  0.65543010  0.81736441  1
  In  In27  1  0.83930024  0.48748093  -0.01119720  1
  In  In28  1  0.67775288  0.66595137  0.34282895  1
  In  In29  1  0.63539843  0.33903827  0.34888268  1
  In  In30  1  0.18454103  0.49908370  0.32987276  1
  In  In31  1  0.51279198  0.82905394  -0.00840979  1
  In  In32  1  0.51919834  0.32608699  0.83014277  1
  In  In33  1  0.50349481  0.84809905  0.66366513  1
  In  In34  1  0.50837392  0.66301419  0.49139140  1
  In  In35  1  0.32263575  0.84347782  0.17368368  1
  In  In36  1  0.84425225  0.00003280  0.19301581  1
  In  In37  1  0.84740709  -0.00221445  0.81627371  1
  In  In38  1  0.35397861  0.15199274  0.83321052  1
  In  In39  1  0.49592598  0.46541912  0.01119806  1
  In  In40  1  0.82538528  0.48944920  0.68813134  1
  In  In41  1  0.82388132  0.16421536  0.34761526  1
  In  In42  1  0.33967321  0.85714627  0.81115904  1
  In  In43  1  0.17813134  0.83608491  0.00820543  1
  In  In44  1  -0.00320873  0.33946344  0.67100842  1
  In  In45  1  0.30564896  0.02014444  0.32854619  1
  In  In46  1  0.65045263  0.50358516  0.18778464  1
  In  In47  1  0.66661257  0.49532224  0.50644735  1
  In  In48  1  0.01934080  0.01219600  -0.01179842  1
  In  In49  1  -0.00432082  0.34823073  0.01547595  1
  In  In50  1  0.65951635  0.15911570  0.83603631  1
  In  In51  1  -0.00519729  0.49739082  0.17482451  1
  In  In52  1  0.49714343  0.02250298  0.16217831  1
  In  In53  1  0.49231949  -0.00575268  0.49548311  1
  In  In54  1  0.83384878  0.84828977  0.36146696  1
  In  In55  1  0.17611512  0.33423658  0.47116707  1
  In  In56  1  -0.00884636  0.18269139  0.81629007  1
  In  In57  1  0.50140656  0.49730321  0.64855738  1
  In  In58  1  0.51348455  0.82540176  0.34237599  1
  In  In59  1  0.33940048  0.18835871  0.48313359  1
  In  In60  1  0.67190808  0.01741953  0.34398973  1
  In  In61  1  0.66981810  0.16379186  0.49982856  1
  In  In62  1  0.16033239  0.83231717  0.33610800  1
  In  In63  1  0.82122042  0.20681423  0.00407922  1
  In  In64  1  0.84501774  0.67331106  0.81188949  1
  In  In65  1  0.51626835  0.03033481  0.81848764  1
  In  In66  1  0.82919098  0.66440241  0.16090866  1
  In  In67  1  0.01753118  0.51410799  0.48617601  1
  In  In68  1  0.84250664  0.82212475  -0.00825804  1
  In  In69  1  0.15715574  -0.00100559  0.48980403  1
  In  In70  1  0.15821390  0.51162643  0.02565165  1
  In  In71  1  0.30651203  0.68502587  0.62758219  1
  Te  Te72  1  0.06804124  0.08636830  0.10895907  1
  Te  Te73  1  0.09611937  0.11103449  0.41596277  1
  Te  Te74  1  0.05504569  0.06743353  0.73604828  1
  Te  Te75  1  0.09871988  0.40168753  0.11445337  1
  Te  Te76  1  0.07340401  0.40876714  0.38744934  1
  Te  Te77  1  0.06558739  0.44447380  0.75968264  1
  Te  Te78  1  0.09696719  0.73658743  0.07986782  1
  Te  Te79  1  0.10636840  0.73537299  0.44234846  1
  Te  Te80  1  0.08412174  0.75276119  0.73211800  1
  Te  Te81  1  0.40206993  0.12060064  0.10668633  1
  Te  Te82  1  0.42229010  0.08792810  0.39763462  1
  Te  Te83  1  0.40647180  0.06618740  0.72661176  1
  Te  Te84  1  0.38719632  0.44674160  0.10983439  1
  Te  Te85  1  0.39151706  0.40706453  0.39128420  1
  Te  Te86  1  0.40845002  0.41334089  0.75037601  1
  Te  Te87  1  0.41278171  0.75527809  0.08272132  1
  Te  Te88  1  0.40780742  0.75953601  0.42878210  1
  Te  Te89  1  0.41565545  0.73346212  0.73652155  1
  Te  Te90  1  0.75660661  0.08079955  0.08444608  1
  Te  Te91  1  0.77346377  0.06222925  0.44830292  1
  Te  Te92  1  0.75049971  0.08506502  0.73753787  1
  Te  Te93  1  0.73922017  0.41819932  0.08476057  1
  Te  Te94  1  0.75312202  0.41549027  0.40699664  1
  Te  Te95  1  0.76630148  0.37534725  0.75817639  1
  Te  Te96  1  0.74099808  0.76860229  0.09263252  1
  Te  Te97  1  0.75786466  0.74609438  0.43801875  1
  Te  Te98  1  0.76406838  0.77375286  0.73632670  1
  Te  Te99  1  0.12139112  0.21243900  0.21499931  1
  Te  Te100  1  0.09492320  0.25859729  0.58388142  1
  Te  Te101  1  0.08674791  0.23941346  0.92558576  1
  Te  Te102  1  0.08729007  0.59153477  0.25033153  1
  Te  Te103  1  0.06199066  0.59558962  0.60402656  1
  Te  Te104  1  0.07436316  0.56904125  0.91880392  1
  Te  Te105  1  0.07398770  0.93135156  0.26798168  1
  Te  Te106  1  0.09757736  0.89924666  0.58579204  1
  Te  Te107  1  0.08131959  0.90364924  0.90038888  1
  Te  Te108  1  0.40438727  0.28764878  0.30918524  1
  Te  Te109  1  0.43813935  0.26001812  0.56986543  1
  Te  Te110  1  0.41460527  0.25991489  0.92151219  1
  Te  Te111  1  0.41997905  0.56246906  0.29516985  1
  Te  Te112  1  0.40475700  0.58019661  0.56643934  1
  Te  Te113  1  0.43037413  0.59201858  0.92611897  1
  Te  Te114  1  0.42357791  0.92104965  0.25790413  1
  Te  Te115  1  0.40205207  0.90939372  0.57744965  1
  Te  Te116  1  0.41988629  0.92965520  0.92109203  1
  Te  Te117  1  0.74051922  0.25204244  0.25069197  1
  Te  Te118  1  0.74241917  0.25070351  0.59678805  1
  Te  Te119  1  0.75443430  0.27890408  0.88509894  1
  Te  Te120  1  0.76676876  0.56885280  0.26105812  1
  Te  Te121  1  0.76487723  0.58347041  0.58018954  1
  Te  Te122  1  0.75738974  0.57713233  0.89565847  1
  Te  Te123  1  0.73822557  0.91161286  0.25565557  1
  Te  Te124  1  0.77831590  0.87648213  0.57955869  1
  Te  Te125  1  0.75555193  0.90900296  0.90129103  1
  Te  Te126  1  0.24560130  0.25805884  0.13059273  1
  Te  Te127  1  0.24774798  0.24151682  0.37533447  1
  Te  Te128  1  0.24461358  0.24473478  0.75756309  1
  Te  Te129  1  0.26270472  0.55956637  0.12219089  1
  Te  Te130  1  0.23410988  0.58268436  0.44151271  1
  Te  Te131  1  0.24785520  0.58319633  0.73755182  1
  Te  Te132  1  0.22604878  0.94103960  0.10789602  1
  Te  Te133  1  0.26376386  0.90860374  0.41932060  1
  Te  Te134  1  0.24324665  0.90936969  0.71316947  1
  Te  Te135  1  0.54962319  0.27510684  0.10259357  1
  Te  Te136  1  0.56187333  0.24108634  0.43044296  1
  Te  Te137  1  0.57351215  0.22788461  0.73621122  1
  Te  Te138  1  0.57720374  0.59106521  0.08238287  1
  Te  Te139  1  0.57846490  0.56321536  0.40035598  1
  Te  Te140  1  0.60639454  0.55570695  0.74351274  1
  Te  Te141  1  0.58601913  0.91826611  0.09244424  1
  Te  Te142  1  0.60354670  0.91015405  0.43051811  1
  Te  Te143  1  0.59775906  0.91692649  0.76071504  1
  Te  Te144  1  0.93328830  0.23858143  0.10344521  1
  Te  Te145  1  0.93487698  0.24923216  0.41087182  1
  Te  Te146  1  0.89207226  0.24896579  0.72761361  1
  Te  Te147  1  0.92356574  0.58535760  0.07169211  1
  Te  Te148  1  0.90822393  0.59426295  0.42586638  1
  Te  Te149  1  0.92976200  0.58936369  0.72170675  1
  Te  Te150  1  0.92214155  0.92047674  0.07759742  1
  Te  Te151  1  0.94528957  0.93507769  0.40568831  1
  Te  Te152  1  0.91123562  0.92785133  0.69612315  1
  Te  Te153  1  0.23319742  0.10619878  0.23323396  1
  Te  Te154  1  0.26376631  0.08396443  0.56922757  1
  Te  Te155  1  0.24238164  0.07533980  0.91832397  1
  Te  Te156  1  0.28333429  0.39239267  0.28376493  1
  Te  Te157  1  0.26680817  0.42638401  0.55338913  1
  Te  Te158  1  0.24652309  0.41526527  0.92444042  1
  Te  Te159  1  0.23828641  0.73892037  0.24120654  1
  Te  Te160  1  0.20653751  0.77096333  0.56240180  1
  Te  Te161  1  0.26575480  0.75529989  0.90223754  1
  Te  Te162  1  0.57664477  0.10578655  0.26401794  1
  Te  Te163  1  0.58198481  0.07382510  0.58920257  1
  Te  Te164  1  0.56535841  0.10233123  0.94416256  1
  Te  Te165  1  0.56164842  0.39137668  0.22895845  1
  Te  Te166  1  0.58517860  0.39710388  0.58059227  1
  Te  Te167  1  0.59961328  0.42907962  0.90992062  1
  Te  Te168  1  0.58893581  0.74073649  0.24102374  1
  Te  Te169  1  0.59112788  0.75553826  0.57794509  1
  Te  Te170  1  0.60588673  0.75033395  0.89966649  1
  Te  Te171  1  0.92739812  0.09588893  0.26563363  1
  Te  Te172  1  0.92292725  0.06171501  0.61160354  1
  Te  Te173  1  0.90656226  0.09489250  0.92310333  1
  Te  Te174  1  0.91660050  0.41648936  0.27019242  1
  Te  Te175  1  0.91816083  0.42008203  0.56791784  1
  Te  Te176  1  0.92302704  0.40435802  0.90025556  1
  Te  Te177  1  0.91195430  0.76022434  0.24788854  1
  Te  Te178  1  0.88744186  0.76898490  0.59142649  1
  Te  Te179  1  0.94002811  0.73610651  0.91626437  1
