# generated using pymatgen
data_In2Te3
_symmetry_space_group_name_H-M   'P 1'
_cell_length_a   18.76438116
_cell_length_b   18.76322902
_cell_length_c   18.75492447
_cell_angle_alpha   89.93357737
_cell_angle_beta   89.96166103
_cell_angle_gamma   89.97356100
_symmetry_Int_Tables_number   1
_chemical_formula_structural   In2Te3
_chemical_formula_sum   'In72 Te108'
_cell_volume   6603.23433492
_cell_formula_units_Z   36
loop_
 _symmetry_equiv_pos_site_id
 _symmetry_equiv_pos_as_xyz
  1  'x, y, z'
loop_
 _atom_site_type_symbol
 _atom_site_label
 _atom_site_symmetry_multiplicity
 _atom_site_fract_x
 _atom_site_fract_y
 _atom_site_fract_z
 _atom_site_occupancy
  In  In0  1  0.49322790  0.32427209  0.49514161  1
  In  In1  1  0.52050842  0.31426543  0.80334509  1
  In  In2  1  0.34089747  0.18983694  0.18519544  1
  In  In3  1  0.16680494  0.47357782  0.63775608  1
  In  In4  1  0.00186655  0.02580192  0.33589962  1
  In  In5  1  -0.00759758  0.36489473  0.01884010  1
  In  In6  1  0.66769711  0.17448787  0.17323711  1
  In  In7  1  0.49526386  0.49528568  0.67652215  1
  In  In8  1  -0.00582361  0.35599530  0.63224748  1
  In  In9  1  0.52925333  0.82457308  0.65668241  1
  In  In10  1  0.16616639  0.16644968  0.00461500  1
  In  In11  1  0.17495419  0.83713296  0.63545113  1
  In  In12  1  0.67656881  0.02028063  0.65588161  1
  In  In13  1  0.67723853  0.83521855  0.15320932  1
  In  In14  1  0.34301214  0.48268983  0.83714393  1
  In  In15  1  0.48938654  0.49495408  0.01024628  1
  In  In16  1  0.30719828  0.61838792  0.35261808  1
  In  In17  1  -0.00428043  0.15925606  0.82634820  1
  In  In18  1  0.63831449  0.82412202  0.49930162  1
  In  In19  1  0.33903817  0.66000617  0.66516397  1
  In  In20  1  0.84478166  0.20676957  0.37299909  1
  In  In21  1  0.52531211  0.84603003  -0.00989776  1
  In  In22  1  0.82337224  0.17791776  0.65587867  1
  In  In23  1  0.15800600  -0.00679477  0.48605664  1
  In  In24  1  0.34541062  -0.00327818  0.01210966  1
  In  In25  1  0.15075894  0.01891647  0.80491011  1
  In  In26  1  0.66426970  -0.00187650  -0.01114685  1
  In  In27  1  0.67671793  0.82489914  0.82769048  1
  In  In28  1  0.68362194  0.50377497  0.50430795  1
  In  In29  1  0.12964113  0.64272578  0.83377158  1
  In  In30  1  0.33976143  0.62886558  0.01512893  1
  In  In31  1  0.68224910  0.32757154  0.01623954  1
  In  In32  1  0.01538174  0.82448276  0.49629281  1
  In  In33  1  0.34457209  0.83429402  0.84621817  1
  In  In34  1  0.50338040  0.18652442  0.32891007  1
  In  In35  1  0.81595491  0.34715656  0.83750183  1
  In  In36  1  0.83755594  0.19031748  -0.02935888  1
  In  In37  1  0.68387683  0.64537688  -0.00085131  1
  In  In38  1  0.30589262  0.82551515  0.50070620  1
  In  In39  1  0.19368540  0.03233555  0.15670656  1
  In  In40  1  0.16052179  0.83712113  0.34456032  1
  In  In41  1  -0.02169999  0.82397136  0.82593840  1
  In  In42  1  0.83473863  0.35171107  0.16733485  1
  In  In43  1  0.85173237  0.01054812  0.17015847  1
  In  In44  1  0.33374309  0.18184222  0.50297902  1
  In  In45  1  0.14123573  0.21561595  0.33360295  1
  In  In46  1  0.15767977  0.80948100  -0.00755040  1
  In  In47  1  0.16731387  0.33029651  0.81421778  1
  In  In48  1  0.52093939  0.45965960  0.31582642  1
  In  In49  1  0.51385969  0.02163779  0.51634933  1
  In  In50  1  -0.01544803  0.63961656  0.33704260  1
  In  In51  1  0.83698947  0.83782027  0.68340761  1
  In  In52  1  -0.00021621  0.00973652  0.01009062  1
  In  In53  1  0.30182956  0.49800091  0.20808214  1
  In  In54  1  0.51573459  0.66936921  0.15118369  1
  In  In55  1  0.83230148  0.83438791  0.31452451  1
  In  In56  1  0.15618072  0.63343116  0.20251132  1
  In  In57  1  0.33363314  0.34221615  0.00566148  1
  In  In58  1  0.82350272  0.03172753  0.49993665  1
  In  In59  1  0.32675702  0.18233644  0.80355267  1
  In  In60  1  0.67214145  0.48783348  0.82179119  1
  In  In61  1  -0.02783407  0.62926366  0.69212824  1
  In  In62  1  0.82757792  0.63942339  0.50403150  1
  In  In63  1  -0.03439761  0.63432076  0.00955658  1
  In  In64  1  0.68097343  0.63706708  0.31901064  1
  In  In65  1  0.36314799  0.83063843  0.19128429  1
  In  In66  1  0.49419781  0.85727428  0.34403080  1
  In  In67  1  0.83999278  0.48866730  0.33836522  1
  In  In68  1  0.53098377  0.17983214  0.00711835  1
  In  In69  1  0.49710648  0.67363785  0.51628104  1
  In  In70  1  -0.00924059  0.83375400  0.17187606  1
  In  In71  1  0.35279796  0.01749070  0.66040112  1
  Te  Te72  1  0.06879372  0.10526554  0.10749516  1
  Te  Te73  1  0.07678768  0.11191521  0.43379868  1
  Te  Te74  1  0.09161688  0.12199863  0.71813248  1
  Te  Te75  1  0.09447869  0.39272401  0.12182836  1
  Te  Te76  1  0.11678894  0.42179369  0.40638779  1
  Te  Te77  1  0.06946598  0.42626722  0.74757828  1
  Te  Te78  1  0.07969695  0.73201366  0.09873770  1
  Te  Te79  1  0.09158732  0.72029550  0.41429674  1
  Te  Te80  1  0.08616093  0.75591053  0.73901592  1
  Te  Te81  1  0.42335213  0.10223737  0.08814184  1
  Te  Te82  1  0.41738982  0.08593338  0.41946478  1
  Te  Te83  1  0.43530783  0.09542849  0.75321512  1
  Te  Te84  1  0.40317243  0.42339152  0.11304583  1
  Te  Te85  1  0.41190357  0.41410294  0.40329084  1
  Te  Te86  1  0.40156387  0.38727327  0.73440848  1
  Te  Te87  1  0.41252034  0.76059953  0.06413310  1
  Te  Te88  1  0.40777500  0.74360265  0.41230555  1
  Te  Te89  1  0.42886240  0.75029672  0.74916224  1
  Te  Te90  1  0.75899934  0.09634935  0.07656795  1
  Te  Te91  1  0.73620281  0.11562919  0.41538679  1
  Te  Te92  1  0.76755677  0.08004054  0.75460583  1
  Te  Te93  1  0.78304063  0.43630617  0.05018365  1
  Te  Te94  1  0.75275744  0.40018137  0.42212139  1
  Te  Te95  1  0.75875576  0.42022490  0.71861657  1
  Te  Te96  1  0.76355773  0.74108300  0.08024953  1
  Te  Te97  1  0.75003115  0.74519054  0.41225176  1
  Te  Te98  1  0.76165046  0.73073054  0.74971821  1
  Te  Te99  1  0.05550987  0.29184438  0.23605556  1
  Te  Te100  1  0.07867008  0.27567517  0.53976485  1
  Te  Te101  1  0.07357750  0.25560031  0.92099131  1
  Te  Te102  1  0.05206718  0.53934793  0.24770699  1
  Te  Te103  1  0.06549255  0.57293186  0.59225044  1
  Te  Te104  1  0.07950582  0.56124002  0.94547712  1
  Te  Te105  1  0.08459543  0.93141631  0.24356649  1
  Te  Te106  1  0.06414364  0.93353865  0.59179524  1
  Te  Te107  1  0.08986590  0.92437000  0.91638679  1
  Te  Te108  1  0.40550003  0.28833385  0.27648151  1
  Te  Te109  1  0.42225388  0.24737845  0.60211717  1
  Te  Te110  1  0.41721188  0.25099891  0.91718203  1
  Te  Te111  1  0.42046500  0.59555904  0.24503678  1
  Te  Te112  1  0.40618827  0.56252231  0.56870536  1
  Te  Te113  1  0.43318239  0.58810823  0.90123987  1
  Te  Te114  1  0.42067871  0.94952884  0.25349448  1
  Te  Te115  1  0.41967944  0.90069347  0.57517641  1
  Te  Te116  1  0.43840895  0.93990646  0.90413937  1
  Te  Te117  1  0.74842458  0.26711924  0.26255437  1
  Te  Te118  1  0.71696985  0.26402470  0.59755965  1
  Te  Te119  1  0.71700426  0.24141053  0.89406464  1
  Te  Te120  1  0.77081921  0.56294474  0.22632871  1
  Te  Te121  1  0.77041754  0.55657582  0.61580481  1
  Te  Te122  1  0.77003592  0.58194747  0.89089570  1
  Te  Te123  1  0.74383299  0.93972672  0.25215301  1
  Te  Te124  1  0.75029879  0.90653219  0.56968999  1
  Te  Te125  1  0.75677803  0.90453693  0.92340235  1
  Te  Te126  1  0.23797964  0.26385690  0.09809450  1
  Te  Te127  1  0.24147336  0.28071248  0.43257946  1
  Te  Te128  1  0.23572324  0.25175051  0.70938599  1
  Te  Te129  1  0.22641501  0.56005663  0.08435064  1
  Te  Te130  1  0.21321645  0.53097181  0.43966820  1
  Te  Te131  1  0.24662749  0.56985638  0.75093032  1
  Te  Te132  1  0.24286568  0.90478082  0.08445238  1
  Te  Te133  1  0.26733645  0.93256173  0.39798049  1
  Te  Te134  1  0.25691762  0.91449233  0.74612803  1
  Te  Te135  1  0.56902442  0.29034751  0.11487334  1
  Te  Te136  1  0.60068171  0.25262028  0.41970206  1
  Te  Te137  1  0.61846240  0.24671172  0.71016462  1
  Te  Te138  1  0.60027237  0.55638314  0.09664400  1
  Te  Te139  1  0.57357921  0.58101204  0.41219730  1
  Te  Te140  1  0.57939800  0.58469593  0.75720584  1
  Te  Te141  1  0.57513547  0.93659629  0.10046106  1
  Te  Te142  1  0.59948254  0.94386873  0.41396512  1
  Te  Te143  1  0.59225182  0.92735448  0.74694193  1
  Te  Te144  1  0.91643756  0.24800855  0.08458951  1
  Te  Te145  1  0.94670081  0.28202798  0.46262692  1
  Te  Te146  1  0.92015675  0.26884452  0.75001233  1
  Te  Te147  1  0.89019200  0.54022367  0.09913570  1
  Te  Te148  1  0.93702176  0.54697682  0.45067264  1
  Te  Te149  1  0.90342889  0.55798481  0.80170398  1
  Te  Te150  1  0.90313642  0.90602106  0.07025112  1
  Te  Te151  1  0.92194021  0.91564511  0.41004429  1
  Te  Te152  1  0.92670382  0.93704640  0.74584926  1
  Te  Te153  1  0.24415427  0.11004121  0.27515283  1
  Te  Te154  1  0.24224641  0.08230077  0.58014882  1
  Te  Te155  1  0.25181800  0.07888523  0.91198420  1
  Te  Te156  1  0.21177242  0.40639034  0.28546217  1
  Te  Te157  1  0.25224368  0.40345477  0.53791366  1
  Te  Te158  1  0.23250905  0.41999389  0.92153970  1
  Te  Te159  1  0.25315277  0.74619811  0.25428117  1
  Te  Te160  1  0.23121795  0.71131392  0.56850608  1
  Te  Te161  1  0.25235057  0.72575838  0.90572106  1
  Te  Te162  1  0.57672637  0.08534698  0.24663934  1
  Te  Te163  1  0.59218311  0.12740857  0.58880408  1
  Te  Te164  1  0.58822447  0.09308499  0.90276551  1
  Te  Te165  1  0.61302454  0.39934228  0.22128344  1
  Te  Te166  1  0.58464697  0.41629716  0.58287517  1
  Te  Te167  1  0.57510892  0.40406102  0.91928934  1
  Te  Te168  1  0.58794786  0.75427487  0.25868956  1
  Te  Te169  1  0.61816869  0.71222596  0.60221270  1
  Te  Te170  1  0.58714754  0.73206749  0.91439218  1
  Te  Te171  1  0.91132223  0.11916000  0.25936936  1
  Te  Te172  1  0.92535459  0.09727396  0.58154350  1
  Te  Te173  1  0.90281545  0.06746491  0.90613548  1
  Te  Te174  1  0.93803483  0.39167291  0.27344426  1
  Te  Te175  1  0.88107052  0.39850075  0.54165745  1
  Te  Te176  1  0.92428611  0.43428559  0.90120212  1
  Te  Te177  1  0.90424178  0.72561300  0.23691062  1
  Te  Te178  1  0.92028161  0.74155750  0.58200369  1
  Te  Te179  1  0.90802624  0.74460871  0.92766141  1
