# generated using pymatgen
data_In2Te3
_symmetry_space_group_name_H-M   'P 1'
_cell_length_a   18.76937227
_cell_length_b   18.75202846
_cell_length_c   18.77415499
_cell_angle_alpha   90.01603359
_cell_angle_beta   90.02975441
_cell_angle_gamma   90.00959289
_symmetry_Int_Tables_number   1
_chemical_formula_structural   In2Te3
_chemical_formula_sum   'In72 Te108'
_cell_volume   6607.82174646
_cell_formula_units_Z   36
loop_
 _symmetry_equiv_pos_site_id
 _symmetry_equiv_pos_as_xyz
  1  'x, y, z'
loop_
 _atom_site_type_symbol
 _atom_site_label
 _atom_site_symmetry_multiplicity
 _atom_site_fract_x
 _atom_site_fract_y
 _atom_site_fract_z
 _atom_site_occupancy
  In  In0  1  0.84508822  0.01600205  0.84579436  1
  In  In1  1  0.30632461  0.49821053  0.50335980  1
  In  In2  1  0.81476116  0.65744171  0.17090884  1
  In  In3  1  0.85539957  -0.03516079  0.14214933  1
  In  In4  1  -0.00003770  0.17943695  0.16729696  1
  In  In5  1  0.82916370  0.83078462  0.33065736  1
  In  In6  1  0.52259892  0.67935648  0.18486096  1
  In  In7  1  0.64908194  0.03758610  -0.01728543  1
  In  In8  1  0.15207348  0.31087606  0.83544397  1
  In  In9  1  0.18592906  0.01057841  0.50367172  1
  In  In10  1  0.33864206  0.83496912  0.48373543  1
  In  In11  1  0.32896311  0.02123402  0.67269362  1
  In  In12  1  0.51192714  0.83612606  0.66986452  1
  In  In13  1  0.81935446  0.16508234  0.33897530  1
  In  In14  1  0.66827337  0.32523603  -0.00873257  1
  In  In15  1  -0.01322683  0.49935333  0.50294501  1
  In  In16  1  0.83984577  0.67942146  0.84868500  1
  In  In17  1  0.01279209  0.46620691  0.82954442  1
  In  In18  1  0.31911560  0.65776811  0.01010737  1
  In  In19  1  0.51730550  0.50548387  0.31789714  1
  In  In20  1  0.50194871  0.68099586  0.83496403  1
  In  In21  1  0.16601098  0.19893483  0.02619251  1
  In  In22  1  0.15889353  0.03299098  0.83011754  1
  In  In23  1  -0.00092561  0.67163542  0.32431122  1
  In  In24  1  0.33820200  0.49118352  0.83448678  1
  In  In25  1  0.16558383  0.84617351  0.66436201  1
  In  In26  1  0.52460792  0.32998116  0.49732463  1
  In  In27  1  0.15393121  0.82592710  -0.00425611  1
  In  In28  1  0.19051460  0.65401730  0.84530371  1
  In  In29  1  0.67623600  0.49892696  0.83290002  1
  In  In30  1  0.51041415  0.17752276  0.34666504  1
  In  In31  1  0.84999771  0.47704337  0.66008145  1
  In  In32  1  0.66785082  0.66477578  0.65715402  1
  In  In33  1  -0.01459727  0.33746572  0.31927754  1
  In  In34  1  0.13761342  0.46483813  0.02716141  1
  In  In35  1  0.67957352  0.17105152  0.19023172  1
  In  In36  1  0.33969266  0.33916585  0.32592288  1
  In  In37  1  0.84316534  0.17959791  -0.00392662  1
  In  In38  1  0.47821579  0.46213538  0.66432641  1
  In  In39  1  0.81194356  0.35364431  0.47974801  1
  In  In40  1  0.31067359  0.81475864  0.19367304  1
  In  In41  1  0.84644868  0.67542275  0.48426275  1
  In  In42  1  0.16260012  0.50494247  0.33515777  1
  In  In43  1  0.49242511  0.34729897  0.15421971  1
  In  In44  1  0.31435530  0.33270689  0.66662347  1
  In  In45  1  0.66161646  0.49674959  0.17832615  1
  In  In46  1  0.01500200  -0.00836754  0.32917593  1
  In  In47  1  0.82341284  0.01241158  0.50474856  1
  In  In48  1  0.32863292  -0.00768786  0.32000815  1
  In  In49  1  0.50264903  0.16181153  0.67806740  1
  In  In50  1  0.66112095  0.31770424  0.66284735  1
  In  In51  1  0.50437974  0.65916253  0.47007026  1
  In  In52  1  0.66915480  0.85182311  0.82673486  1
  In  In53  1  0.67650294  0.82913569  0.17841536  1
  In  In54  1  0.00396076  0.68041072  0.01129188  1
  In  In55  1  0.49841322  0.47836867  0.04527481  1
  In  In56  1  0.47824423  0.01958862  0.15712901  1
  In  In57  1  0.31096712  0.15037826  0.50725990  1
  In  In58  1  0.53603327  -0.02662163  0.48085438  1
  In  In59  1  0.84622095  0.19307470  0.69228046  1
  In  In60  1  0.15932569  0.00329607  0.17390578  1
  In  In61  1  -0.01362916  0.66999488  0.64848310  1
  In  In62  1  0.17369642  0.14543710  0.34295249  1
  In  In63  1  0.00698679  0.00661205  0.67468962  1
  In  In64  1  0.14308807  0.65488905  0.48092464  1
  In  In65  1  0.34532185  0.00317431  -0.01156612  1
  In  In66  1  0.33922214  0.49028716  0.14413781  1
  In  In67  1  0.67820362  0.01135324  0.65795537  1
  In  In68  1  0.50098852  0.84445474  -0.00596736  1
  In  In69  1  -0.00449608  0.84041625  0.82451524  1
  In  In70  1  0.85445765  0.48596666  -0.01106446  1
  In  In71  1  0.32381951  0.65642011  0.68072764  1
  Te  Te72  1  0.07251018  0.08008711  0.07781952  1
  Te  Te73  1  0.06286499  0.09274712  0.43779933  1
  Te  Te74  1  0.06198543  0.11851328  0.75608138  1
  Te  Te75  1  0.03266524  0.38809916  0.10121573  1
  Te  Te76  1  0.07958503  0.41015209  0.41941774  1
  Te  Te77  1  0.07162222  0.37669399  0.72505544  1
  Te  Te78  1  0.09603841  0.74821153  0.10648267  1
  Te  Te79  1  0.05993995  0.76204864  0.42607812  1
  Te  Te80  1  0.08986654  0.73903737  0.75609489  1
  Te  Te81  1  0.41338905  0.11637367  0.06278081  1
  Te  Te82  1  0.41350620  0.07338449  0.41937836  1
  Te  Te83  1  0.40179598  0.10373131  0.77227386  1
  Te  Te84  1  0.37876248  0.37182262  0.04504355  1
  Te  Te85  1  0.42056894  0.42720521  0.42429796  1
  Te  Te86  1  0.42315322  0.37881470  0.77689091  1
  Te  Te87  1  0.41890480  0.74890375  0.08568537  1
  Te  Te88  1  0.41894475  0.75179890  0.39109828  1
  Te  Te89  1  0.40399040  0.76498181  0.75304602  1
  Te  Te90  1  0.75932226  0.08296331  0.08756609  1
  Te  Te91  1  0.72561864  0.07893798  0.41416488  1
  Te  Te92  1  0.74571910  0.10017117  0.76307227  1
  Te  Te93  1  0.75098369  0.41756045  0.08129782  1
  Te  Te94  1  0.74484407  0.45675009  0.39762325  1
  Te  Te95  1  0.75738739  0.39910787  0.75343959  1
  Te  Te96  1  0.74486429  0.74816890  0.07646554  1
  Te  Te97  1  0.73605108  0.75070261  0.41602317  1
  Te  Te98  1  0.75599059  0.75463350  0.74486726  1
  Te  Te99  1  0.09993888  0.24918463  0.25817874  1
  Te  Te100  1  0.12596607  0.20704542  0.53593806  1
  Te  Te101  1  0.05988692  0.24093989  0.93057126  1
  Te  Te102  1  0.08062324  0.58053675  0.23877653  1
  Te  Te103  1  0.08715836  0.56969343  0.59564253  1
  Te  Te104  1  0.08006049  0.57854416  0.92108681  1
  Te  Te105  1  0.08628963  0.89500914  0.24295721  1
  Te  Te106  1  0.07664515  0.91935300  0.56803731  1
  Te  Te107  1  0.07785934  0.93169535  0.91556808  1
  Te  Te108  1  0.41854065  0.24085671  0.24264877  1
  Te  Te109  1  0.41623976  0.25071113  0.57295752  1
  Te  Te110  1  0.49221803  0.22526716  0.95750943  1
  Te  Te111  1  0.41423331  0.58520321  0.23942275  1
  Te  Te112  1  0.41957219  0.58445688  0.58503044  1
  Te  Te113  1  0.42365067  0.58147119  0.92532586  1
  Te  Te114  1  0.42630405  0.90299606  0.24509365  1
  Te  Te115  1  0.41305744  0.92824788  0.58400509  1
  Te  Te116  1  0.42758072  0.92323751  0.89417874  1
  Te  Te117  1  0.77293693  0.27133225  0.24534030  1
  Te  Te118  1  0.75809272  0.24291955  0.57453217  1
  Te  Te119  1  0.73876048  0.23027293  0.90201930  1
  Te  Te120  1  0.74698035  0.57277194  0.27608913  1
  Te  Te121  1  0.76906383  0.57988811  0.58124817  1
  Te  Te122  1  0.75180343  0.58682301  0.93226256  1
  Te  Te123  1  0.75256461  0.93894565  0.25251192  1
  Te  Te124  1  0.74432790  0.90846487  0.57701342  1
  Te  Te125  1  0.74765691  0.93249016  0.93045566  1
  Te  Te126  1  0.25655058  0.28853639  0.09961675  1
  Te  Te127  1  0.24759557  0.26300453  0.42149512  1
  Te  Te128  1  0.26535083  0.23796193  0.76937007  1
  Te  Te129  1  0.22235770  0.57854628  0.09347616  1
  Te  Te130  1  0.26912961  0.60806929  0.40025457  1
  Te  Te131  1  0.23273139  0.54965248  0.74007240  1
  Te  Te132  1  0.25860399  0.91646285  0.08381872  1
  Te  Te133  1  0.23116425  0.90683746  0.39996630  1
  Te  Te134  1  0.24817158  0.92543251  0.76297519  1
  Te  Te135  1  0.58208476  0.23252296  0.08842187  1
  Te  Te136  1  0.61927319  0.24954382  0.41720642  1
  Te  Te137  1  0.58207799  0.24998755  0.76725933  1
  Te  Te138  1  0.59382957  0.59404898  0.08084388  1
  Te  Te139  1  0.60876415  0.56134199  0.42351196  1
  Te  Te140  1  0.57190628  0.57861862  0.74363920  1
  Te  Te141  1  0.58935981  0.93107457  0.08618758  1
  Te  Te142  1  0.59284342  0.87738432  0.38712098  1
  Te  Te143  1  0.57461357  0.94651531  0.75325896  1
  Te  Te144  1  0.91055661  0.27555416  0.09297567  1
  Te  Te145  1  0.91468996  0.24954686  0.42185648  1
  Te  Te146  1  0.93366144  0.28588498  0.77146416  1
  Te  Te147  1  0.92177824  0.57855953  0.09052381  1
  Te  Te148  1  0.90865621  0.56749107  0.39332306  1
  Te  Te149  1  0.91775682  0.57878680  0.76284730  1
  Te  Te150  1  0.94265874  0.89869352  0.04693480  1
  Te  Te151  1  0.91547240  0.92063984  0.41970031  1
  Te  Te152  1  0.89760058  0.91895570  0.73881968  1
  Te  Te153  1  0.26597811  0.09796366  0.22927950  1
  Te  Te154  1  0.20714111  0.11434907  0.62379070  1
  Te  Te155  1  0.24758366  0.10654088  0.92977618  1
  Te  Te156  1  0.24100385  0.41345795  0.23672202  1
  Te  Te157  1  0.22061398  0.40459892  0.57732722  1
  Te  Te158  1  0.23126004  0.41615909  0.91683161  1
  Te  Te159  1  0.25408946  0.71949563  0.28774362  1
  Te  Te160  1  0.24755343  0.74519250  0.58002367  1
  Te  Te161  1  0.26899624  0.76553841  0.91339512  1
  Te  Te162  1  0.58026479  0.07401493  0.25806748  1
  Te  Te163  1  0.58350754  0.09080023  0.56707430  1
  Te  Te164  1  0.54265287  0.09784868  0.89695606  1
  Te  Te165  1  0.59459174  0.38665933  0.26204158  1
  Te  Te166  1  0.60253604  0.43287649  0.58056347  1
  Te  Te167  1  0.57545131  0.42459351  0.92010115  1
  Te  Te168  1  0.60509450  0.75241267  0.28988750  1
  Te  Te169  1  0.58436244  0.75466063  0.56583318  1
  Te  Te170  1  0.60293554  0.75172572  0.92284359  1
  Te  Te171  1  0.91611428  0.07631975  0.24610421  1
  Te  Te172  1  0.91620512  0.09985320  0.59259917  1
  Te  Te173  1  0.94410297  0.10601142  0.91220980  1
  Te  Te174  1  0.94063776  0.43359430  0.21628828  1
  Te  Te175  1  0.93093841  0.37830341  0.57825255  1
  Te  Te176  1  0.91020619  0.37808358  0.89749780  1
  Te  Te177  1  0.91509753  0.75859390  0.22855208  1
  Te  Te178  1  0.90849120  0.77218477  0.57981621  1
  Te  Te179  1  0.90574978  0.78251152  0.94365046  1
