# generated using pymatgen
data_In2Te3
_symmetry_space_group_name_H-M   'P 1'
_cell_length_a   18.77012229
_cell_length_b   18.76688878
_cell_length_c   18.76704119
_cell_angle_alpha   90.10069008
_cell_angle_beta   90.01548969
_cell_angle_gamma   90.04169885
_symmetry_Int_Tables_number   1
_chemical_formula_structural   In2Te3
_chemical_formula_sum   'In72 Te108'
_cell_volume   6610.80562471
_cell_formula_units_Z   36
loop_
 _symmetry_equiv_pos_site_id
 _symmetry_equiv_pos_as_xyz
  1  'x, y, z'
loop_
 _atom_site_type_symbol
 _atom_site_label
 _atom_site_symmetry_multiplicity
 _atom_site_fract_x
 _atom_site_fract_y
 _atom_site_fract_z
 _atom_site_occupancy
  In  In0  1  -0.01620455  0.48831570  0.85095668  1
  In  In1  1  0.16068507  0.83860501  0.00556614  1
  In  In2  1  0.00099390  0.82462336  0.51030667  1
  In  In3  1  0.66551981  0.18045415  0.49680960  1
  In  In4  1  0.51857201  0.13880420  -0.03708892  1
  In  In5  1  0.01102313  0.82940520  0.17865199  1
  In  In6  1  0.15904503  0.17318418  0.33308718  1
  In  In7  1  0.65756138  0.32160669  0.67803837  1
  In  In8  1  0.66722188  0.50501246  0.15884345  1
  In  In9  1  0.68026402  0.49021033  0.84863491  1
  In  In10  1  -0.01618204  0.20954798  0.15768351  1
  In  In11  1  0.82155896  0.01290714  0.15471192  1
  In  In12  1  -0.02057106  0.63033543  0.03267427  1
  In  In13  1  0.65407903  0.00831679  0.35311915  1
  In  In14  1  -0.01262781  -0.01113428  0.64844782  1
  In  In15  1  0.82007502  0.67618371  0.82737524  1
  In  In16  1  0.01134450  0.83266816  0.82431425  1
  In  In17  1  0.14473357  0.47675828  0.04285978  1
  In  In18  1  -0.00011585  0.64314253  0.33237830  1
  In  In19  1  0.84606066  0.14307468  0.66276854  1
  In  In20  1  0.34698424  0.30144266  0.00834168  1
  In  In21  1  0.33141208  0.69096608  0.64733041  1
  In  In22  1  -0.00444334  0.34681755  0.64331058  1
  In  In23  1  0.32234119  0.51314530  0.19795201  1
  In  In24  1  0.34069286  0.33411214  0.64689055  1
  In  In25  1  0.49464734  0.85457280  0.66320668  1
  In  In26  1  0.53544922  0.49399726  0.01352404  1
  In  In27  1  0.65538498  0.84068322  0.50321076  1
  In  In28  1  0.50460931  0.67662974  0.47677094  1
  In  In29  1  0.50799211  0.49817190  0.67814104  1
  In  In30  1  0.65442257  0.66692726  0.33558326  1
  In  In31  1  0.70222272  0.53321505  0.51982576  1
  In  In32  1  0.00809454  0.67540567  0.67012658  1
  In  In33  1  0.86467373  0.34296038  0.47433216  1
  In  In34  1  0.00494743  0.16390393  0.84420460  1
  In  In35  1  0.49782628  0.16240926  0.33553169  1
  In  In36  1  0.33747336  0.67313704  0.00934802  1
  In  In37  1  0.67088372  0.65275145  0.00008824  1
  In  In38  1  0.01353949  0.02183057  0.33530835  1
  In  In39  1  0.49358710  0.13383526  0.69698879  1
  In  In40  1  0.50318579  0.34476395  0.16636637  1
  In  In41  1  0.67104982  -0.00472719  0.67846558  1
  In  In42  1  0.14898549  0.52986009  0.66824675  1
  In  In43  1  0.65596935  0.81891400  0.16108953  1
  In  In44  1  0.17162552  0.68396099  0.50830206  1
  In  In45  1  0.33718135  0.48777314  0.82976377  1
  In  In46  1  0.14956776  0.33961450  0.47293335  1
  In  In47  1  0.33641379  0.48899836  0.47919605  1
  In  In48  1  0.70525721  0.20167818  0.17691546  1
  In  In49  1  -0.00429493  -0.00338656  -0.02116785  1
  In  In50  1  0.15168278  0.69048247  0.84675705  1
  In  In51  1  0.81978634  0.33537055  0.84363709  1
  In  In52  1  0.83961527  0.00942863  0.83641776  1
  In  In53  1  0.50225321  0.68107962  0.82706413  1
  In  In54  1  0.83201496  0.81921853  0.33248045  1
  In  In55  1  0.17231431  0.15822486  0.65851229  1
  In  In56  1  0.32038049  0.15754094  0.50592170  1
  In  In57  1  0.31806986  0.15964298  0.16135828  1
  In  In58  1  0.67659745  0.33119088  0.01012897  1
  In  In59  1  0.84197359  0.49610659  0.32785757  1
  In  In60  1  0.32041699  -0.00060717  -0.02218916  1
  In  In61  1  0.17765075  0.31112908  0.83553293  1
  In  In62  1  0.49661323  0.83340929  -0.00061147  1
  In  In63  1  0.48933213  -0.02557762  0.49603041  1
  In  In64  1  0.81477259  0.01067689  0.49819817  1
  In  In65  1  0.13971197  0.48559997  0.31593267  1
  In  In66  1  0.81967387  0.83060011  -0.02233124  1
  In  In67  1  0.48388014  -0.02237257  0.18251168  1
  In  In68  1  0.33722698  0.68614461  0.33020187  1
  In  In69  1  0.17118890  0.15719820  0.00948782  1
  In  In70  1  0.49268501  0.33685406  0.47709652  1
  In  In71  1  0.18245831  -0.01308520  0.16377410  1
  Te  Te72  1  0.07542946  0.07302131  0.09307966  1
  Te  Te73  1  0.10682042  0.07869942  0.43497327  1
  Te  Te74  1  0.07533939  0.07425207  0.74385507  1
  Te  Te75  1  0.04207318  0.39759257  0.11452412  1
  Te  Te76  1  0.04461577  0.42329800  0.41270599  1
  Te  Te77  1  0.09035055  0.41270701  0.75566577  1
  Te  Te78  1  0.08599404  0.73408912  0.08534261  1
  Te  Te79  1  0.08354720  0.75316090  0.40427705  1
  Te  Te80  1  0.11334762  0.77505487  0.72603835  1
  Te  Te81  1  0.41831903  0.07920890  0.07852370  1
  Te  Te82  1  0.40464318  0.06829275  0.41067462  1
  Te  Te83  1  0.40211074  0.03084010  0.75669416  1
  Te  Te84  1  0.40877512  0.42899851  0.07481993  1
  Te  Te85  1  0.41737098  0.41739555  0.37898409  1
  Te  Te86  1  0.43132286  0.39214471  0.75735840  1
  Te  Te87  1  0.42892352  0.74692312  0.09875076  1
  Te  Te88  1  0.39045727  0.76744339  0.44906755  1
  Te  Te89  1  0.40184931  0.77042914  0.75698398  1
  Te  Te90  1  0.74203069  0.10384979  0.07115921  1
  Te  Te91  1  0.75952614  0.10989489  0.39638291  1
  Te  Te92  1  0.74044141  0.10323012  0.76254863  1
  Te  Te93  1  0.77040212  0.41476497  0.09359741  1
  Te  Te94  1  0.74329272  0.42214929  0.42153592  1
  Te  Te95  1  0.75829288  0.42363420  0.73493509  1
  Te  Te96  1  0.76410297  0.74013585  0.08744287  1
  Te  Te97  1  0.74880415  0.74118873  0.43176272  1
  Te  Te98  1  0.73685876  0.74239290  0.72810539  1
  Te  Te99  1  0.07272600  0.27137781  0.26098668  1
  Te  Te100  1  0.07935675  0.24338880  0.56895994  1
  Te  Te101  1  0.07827841  0.25876281  0.93824509  1
  Te  Te102  1  0.09617657  0.59693844  0.22873845  1
  Te  Te103  1  0.06311374  0.58399305  0.55789401  1
  Te  Te104  1  0.09126860  0.57251972  0.92472359  1
  Te  Te105  1  0.09927716  0.91163836  0.26981055  1
  Te  Te106  1  0.09428415  0.92518826  0.56747926  1
  Te  Te107  1  0.10480584  0.93200991  0.89625950  1
  Te  Te108  1  0.41094088  0.24911631  0.24502177  1
  Te  Te109  1  0.43952462  0.23385322  0.57959700  1
  Te  Te110  1  0.41146412  0.22290429  0.90214797  1
  Te  Te111  1  0.42904997  0.58887668  0.26417379  1
  Te  Te112  1  0.41280410  0.57470166  0.58432346  1
  Te  Te113  1  0.42869945  0.57828300  0.91629977  1
  Te  Te114  1  0.38042536  0.90291799  0.25674068  1
  Te  Te115  1  0.38565620  0.93153960  0.59452057  1
  Te  Te116  1  0.42713978  0.92493070  0.90056394  1
  Te  Te117  1  0.79938924  0.26767766  0.26884965  1
  Te  Te118  1  0.76653797  0.25180193  0.58648216  1
  Te  Te119  1  0.73858270  0.23508970  0.91518484  1
  Te  Te120  1  0.75382505  0.59581666  0.24684890  1
  Te  Te121  1  0.75513802  0.63349924  0.61651570  1
  Te  Te122  1  0.77943964  0.56987549  0.93216371  1
  Te  Te123  1  0.74491657  0.92084856  0.25305525  1
  Te  Te124  1  0.76166563  0.90586071  0.59377932  1
  Te  Te125  1  0.73487203  0.93249770  0.91342106  1
  Te  Te126  1  0.22909231  0.26736645  0.10027111  1
  Te  Te127  1  0.26523947  0.26266829  0.41145136  1
  Te  Te128  1  0.27419457  0.23536494  0.74409511  1
  Te  Te129  1  0.24065923  0.58772003  0.09186585  1
  Te  Te130  1  0.23783681  0.58302466  0.41165615  1
  Te  Te131  1  0.25652620  0.59596801  0.75653302  1
  Te  Te132  1  0.27799700  0.89756242  0.08598436  1
  Te  Te133  1  0.28257583  0.85850843  0.37250177  1
  Te  Te134  1  0.27587976  0.96414485  0.80729256  1
  Te  Te135  1  0.57215541  0.23944708  0.07952467  1
  Te  Te136  1  0.59796076  0.26540416  0.39009641  1
  Te  Te137  1  0.58093870  0.23128015  0.76659652  1
  Te  Te138  1  0.56699510  0.61102309  0.10462027  1
  Te  Te139  1  0.58523871  0.56157324  0.42253231  1
  Te  Te140  1  0.60210372  0.58736937  0.75782450  1
  Te  Te141  1  0.58858349  0.92929589  0.08105176  1
  Te  Te142  1  0.56230162  0.89104185  0.38956969  1
  Te  Te143  1  0.58060039  0.91940698  0.77143381  1
  Te  Te144  1  0.89652536  0.29312948  0.07264498  1
  Te  Te145  1  0.91604000  0.25298913  0.36997105  1
  Te  Te146  1  0.92380955  0.25390879  0.74707714  1
  Te  Te147  1  0.90269993  0.53327464  0.11339697  1
  Te  Te148  1  0.89915021  0.59180665  0.42715860  1
  Te  Te149  1  0.91642722  0.58043948  0.75260025  1
  Te  Te150  1  0.91993264  0.90793821  0.07949654  1
  Te  Te151  1  0.91207782  0.92325651  0.41034375  1
  Te  Te152  1  0.90313173  0.90418833  0.74519126  1
  Te  Te153  1  0.25609005  0.07103825  0.26798945  1
  Te  Te154  1  0.25332295  0.05340509  0.58834411  1
  Te  Te155  1  0.23976012  0.09560358  0.89193172  1
  Te  Te156  1  0.24371535  0.40127759  0.25219028  1
  Te  Te157  1  0.23244787  0.42320660  0.58639857  1
  Te  Te158  1  0.24567110  0.41485405  0.92819277  1
  Te  Te159  1  0.25214000  0.77638483  0.24791763  1
  Te  Te160  1  0.23959188  0.79134634  0.58735511  1
  Te  Te161  1  0.26433609  0.76692723  0.91345973  1
  Te  Te162  1  0.58974296  0.08588339  0.23777006  1
  Te  Te163  1  0.58791407  0.07162977  0.57207476  1
  Te  Te164  1  0.58733833  0.03311275  0.88565228  1
  Te  Te165  1  0.59745977  0.41620830  0.25381263  1
  Te  Te166  1  0.58712171  0.41509034  0.57659647  1
  Te  Te167  1  0.57675806  0.39524653  0.90691199  1
  Te  Te168  1  0.56586112  0.76415655  0.26509686  1
  Te  Te169  1  0.57638749  0.74383519  0.59285935  1
  Te  Te170  1  0.60220848  0.75763599  0.91417488  1
  Te  Te171  1  0.91876929  0.09477994  0.23989738  1
  Te  Te172  1  0.93255569  0.09482910  0.54830175  1
  Te  Te173  1  0.90042255  0.10767680  0.94055116  1
  Te  Te174  1  0.94107003  0.43640427  0.22982782  1
  Te  Te175  1  0.90180602  0.44014746  0.58098676  1
  Te  Te176  1  0.92046860  0.38919526  0.94365529  1
  Te  Te177  1  0.91004155  0.73212125  0.23681725  1
  Te  Te178  1  0.90396830  0.74445524  0.58840519  1
  Te  Te179  1  0.93760578  0.74243873  0.92343553  1
