# generated using pymatgen
data_In2Te3
_symmetry_space_group_name_H-M   'P 1'
_cell_length_a   18.92357571
_cell_length_b   18.93398623
_cell_length_c   18.91327586
_cell_angle_alpha   89.82962118
_cell_angle_beta   90.08700827
_cell_angle_gamma   90.12904259
_symmetry_Int_Tables_number   1
_chemical_formula_structural   In2Te3
_chemical_formula_sum   'In72 Te108'
_cell_volume   6776.54767542
_cell_formula_units_Z   36
loop_
 _symmetry_equiv_pos_site_id
 _symmetry_equiv_pos_as_xyz
  1  'x, y, z'
loop_
 _atom_site_type_symbol
 _atom_site_label
 _atom_site_symmetry_multiplicity
 _atom_site_fract_x
 _atom_site_fract_y
 _atom_site_fract_z
 _atom_site_occupancy
  In  In0  1  0.01156921  0.81890240  0.85304836  1
  In  In1  1  0.65730077  0.16152271  0.48079313  1
  In  In2  1  0.52490665  0.33407489  0.49081371  1
  In  In3  1  -0.00771057  0.20293031  0.83440175  1
  In  In4  1  0.32366765  0.84844415  0.16412959  1
  In  In5  1  0.31673284  0.13715906  0.86103310  1
  In  In6  1  0.86653998  0.82603804  -0.01106383  1
  In  In7  1  0.80203169  0.82089483  0.33440306  1
  In  In8  1  0.85395194  0.50250172  -0.01591939  1
  In  In9  1  0.82170476  0.49315810  0.33007836  1
  In  In10  1  0.33014152  0.31642054  -0.00589927  1
  In  In11  1  0.65933378  0.33511365  0.31165900  1
  In  In12  1  0.12478115  0.69973603  0.13645753  1
  In  In13  1  0.83445130  0.01049278  0.82783636  1
  In  In14  1  -0.00648681  0.16646317  0.18060380  1
  In  In15  1  0.81745147  0.00064965  0.50266486  1
  In  In16  1  0.15853536  0.48730211  -0.00973381  1
  In  In17  1  0.69981811  0.37082660  0.66486447  1
  In  In18  1  0.64824770  0.81878424  0.49815868  1
  In  In19  1  0.32822392  -0.00682799  0.33895766  1
  In  In20  1  0.86846223  0.30503068  0.49034354  1
  In  In21  1  0.66178356  0.85465093  0.81611313  1
  In  In22  1  0.66928603  0.16814488  0.18178465  1
  In  In23  1  0.32060956  0.15858501  0.50592279  1
  In  In24  1  0.83224202  0.80800159  0.65215746  1
  In  In25  1  0.63453253  0.80856360  0.19863376  1
  In  In26  1  0.84452897  0.35094807  0.17553102  1
  In  In27  1  0.48124046  0.82234897  -0.01024580  1
  In  In28  1  0.49893816  -0.01609806  0.82874267  1
  In  In29  1  0.16743814  0.00185060  0.17698144  1
  In  In30  1  0.34826409  0.82005174  0.48357554  1
  In  In31  1  0.35857104  0.30407540  0.30779395  1
  In  In32  1  0.66376427  0.67101367  0.66638154  1
  In  In33  1  0.69171550  0.65601222  0.00844901  1
  In  In34  1  -0.00350611  0.66362913  0.33118890  1
  In  In35  1  0.15892868  0.16673314  0.35324324  1
  In  In36  1  0.01962144  0.32213962  0.00975845  1
  In  In37  1  -0.00046387  0.84665647  0.52014881  1
  In  In38  1  -0.00440090  0.50896779  0.79864804  1
  In  In39  1  0.33629578  0.67160727  0.67406189  1
  In  In40  1  0.66882967  0.51027004  0.17363736  1
  In  In41  1  0.83106619  -0.01308233  0.14736484  1
  In  In42  1  0.68190799  0.51864413  0.51048090  1
  In  In43  1  0.66214581  0.31616091  -0.01331806  1
  In  In44  1  0.83801411  0.17442086  0.67951269  1
  In  In45  1  0.51215892  0.66381639  0.82031441  1
  In  In46  1  0.51136146  0.51332072  0.35457952  1
  In  In47  1  0.51903999  0.48856319  0.01489570  1
  In  In48  1  0.29194053  0.86600425  0.81444867  1
  In  In49  1  0.32723607  0.34946876  0.66407067  1
  In  In50  1  0.49057792  -0.02619371  0.49371073  1
  In  In51  1  -0.01793118  0.49563377  0.51675957  1
  In  In52  1  0.33895401  0.51118289  0.18315496  1
  In  In53  1  0.15211338  0.33431922  0.81824632  1
  In  In54  1  0.65843599  0.00899985  0.02028323  1
  In  In55  1  0.01046836  -0.00332665  0.67541881  1
  In  In56  1  0.83487346  0.64906797  0.16589176  1
  In  In57  1  0.33838148  0.51166615  0.52243445  1
  In  In58  1  0.18143073  0.31942670  0.15060324  1
  In  In59  1  0.68259051  0.18149048  0.82310181  1
  In  In60  1  0.01848222  0.00799128  0.34015246  1
  In  In61  1  0.00793716  0.00961655  -0.02213397  1
  In  In62  1  0.32380675  0.68365632  0.00308413  1
  In  In63  1  0.15965205  0.50611249  0.35388301  1
  In  In64  1  0.16188467  0.64265204  0.50381848  1
  In  In65  1  0.19623314  0.82946762  0.33463513  1
  In  In66  1  0.35283485  0.51561936  0.81671362  1
  In  In67  1  0.51065759  0.16784863  0.67543016  1
  In  In68  1  0.14673702  0.19797404  0.63925815  1
  In  In69  1  0.17758163  0.67265495  0.82120028  1
  In  In70  1  0.48956540  0.02173041  0.17442901  1
  In  In71  1  0.49080063  0.16249642  0.01012866  1
  Te  Te72  1  0.08200813  0.09030742  0.08550570  1
  Te  Te73  1  0.11074603  0.05896341  0.44285092  1
  Te  Te74  1  0.07707435  0.11179109  0.74704592  1
  Te  Te75  1  0.07945247  0.42423735  0.10309553  1
  Te  Te76  1  0.08333249  0.41515640  0.44263935  1
  Te  Te77  1  0.07398289  0.41038318  0.72037244  1
  Te  Te78  1  0.03112304  0.76761423  0.04740239  1
  Te  Te79  1  0.08436902  0.75553318  0.41856851  1
  Te  Te80  1  0.08467875  0.75578812  0.74216873  1
  Te  Te81  1  0.39407895  0.07286661  0.07625247  1
  Te  Te82  1  0.41956052  0.08613259  0.41639750  1
  Te  Te83  1  0.41063313  0.08234561  0.75416678  1
  Te  Te84  1  0.40414375  0.41496648  0.08354696  1
  Te  Te85  1  0.41426438  0.41087079  0.41936077  1
  Te  Te86  1  0.43108430  0.42174436  0.73807293  1
  Te  Te87  1  0.42104454  0.74227947  0.10364070  1
  Te  Te88  1  0.42703768  0.76726749  0.36944098  1
  Te  Te89  1  0.40166820  0.75718193  0.77982955  1
  Te  Te90  1  0.75952437  0.10399894  0.07745615  1
  Te  Te91  1  0.76055458  0.09243827  0.40295687  1
  Te  Te92  1  0.73437896  0.07005162  0.73310735  1
  Te  Te93  1  0.74489128  0.41831410  0.08209135  1
  Te  Te94  1  0.74182407  0.40193701  0.42108308  1
  Te  Te95  1  0.76803867  0.44375155  0.77770199  1
  Te  Te96  1  0.75679500  0.76620694  0.09120072  1
  Te  Te97  1  0.77132282  0.74733232  0.45641115  1
  Te  Te98  1  0.75541160  0.74758102  0.76953805  1
  Te  Te99  1  0.08549679  0.25855553  0.25602356  1
  Te  Te100  1  0.05484164  0.25876436  0.53599713  1
  Te  Te101  1  0.11113561  0.23625585  0.92760982  1
  Te  Te102  1  0.09368513  0.59047367  0.24332059  1
  Te  Te103  1  0.05655217  0.59733557  0.59785319  1
  Te  Te104  1  0.08336838  0.58391934  0.90423706  1
  Te  Te105  1  0.08581430  0.90111145  0.25616119  1
  Te  Te106  1  0.10638982  0.89887416  0.61557428  1
  Te  Te107  1  0.09782569  0.94268818  0.87911808  1
  Te  Te108  1  0.45852865  0.23323267  0.23123636  1
  Te  Te109  1  0.42502168  0.25398910  0.57691027  1
  Te  Te110  1  0.42498777  0.24506515  0.90125936  1
  Te  Te111  1  0.42801599  0.59598043  0.26316101  1
  Te  Te112  1  0.43308851  0.60685960  0.58348023  1
  Te  Te113  1  0.42336277  0.59088137  0.93258147  1
  Te  Te114  1  0.42483169  0.90393809  0.26372643  1
  Te  Te115  1  0.39653110  0.91180662  0.58940726  1
  Te  Te116  1  0.39381489  0.92000408  0.91832290  1
  Te  Te117  1  0.77333429  0.24948389  0.26284222  1
  Te  Te118  1  0.73936099  0.24716808  0.57835754  1
  Te  Te119  1  0.77116309  0.26521132  0.90402165  1
  Te  Te120  1  0.73326462  0.60416596  0.27150268  1
  Te  Te121  1  0.77408760  0.59230923  0.60106917  1
  Te  Te122  1  0.73637754  0.55519279  0.90854751  1
  Te  Te123  1  0.73166873  0.92017821  0.24158804  1
  Te  Te124  1  0.73829043  0.90917545  0.59207844  1
  Te  Te125  1  0.75210707  0.92672763  0.92956281  1
  Te  Te126  1  0.26940790  0.22015073  0.08735811  1
  Te  Te127  1  0.25612414  0.26420257  0.41703149  1
  Te  Te128  1  0.25780839  0.24487249  0.75380542  1
  Te  Te129  1  0.24109369  0.57949109  0.08026250  1
  Te  Te130  1  0.27126048  0.59260477  0.40984518  1
  Te  Te131  1  0.23965973  0.56700754  0.73163444  1
  Te  Te132  1  0.22335995  0.91008152  0.07763654  1
  Te  Te133  1  0.23905130  0.92801648  0.44151912  1
  Te  Te134  1  0.24399878  0.93649732  0.69399543  1
  Te  Te135  1  0.56511705  0.25263962  0.10817857  1
  Te  Te136  1  0.56423137  0.23648095  0.38025736  1
  Te  Te137  1  0.59899816  0.27417236  0.73849374  1
  Te  Te138  1  0.57797427  0.60332765  0.09654760  1
  Te  Te139  1  0.58792869  0.60914600  0.43875497  1
  Te  Te140  1  0.59975363  0.56952698  0.75464838  1
  Te  Te141  1  0.56856456  0.90698458  0.08515106  1
  Te  Te142  1  0.59843285  0.92426871  0.40755728  1
  Te  Te143  1  0.56265058  0.90638929  0.72235924  1
  Te  Te144  1  0.91025368  0.24856259  0.08392384  1
  Te  Te145  1  0.95899913  0.21037531  0.42894065  1
  Te  Te146  1  0.93026032  0.28279320  0.72451411  1
  Te  Te147  1  0.93112909  0.57614514  0.08440224  1
  Te  Te148  1  0.90274033  0.58553325  0.41993323  1
  Te  Te149  1  0.86806485  0.54735280  0.72820234  1
  Te  Te150  1  0.94978139  0.91131955  0.08308214  1
  Te  Te151  1  0.91189698  0.91319649  0.40988939  1
  Te  Te152  1  0.91021090  0.90456610  0.75059225  1
  Te  Te153  1  0.25447580  0.09661065  0.25663224  1
  Te  Te154  1  0.24326346  0.08751397  0.61145203  1
  Te  Te155  1  0.22337566  0.03360534  0.90600660  1
  Te  Te156  1  0.25111926  0.40912324  0.25777554  1
  Te  Te157  1  0.23432301  0.42484472  0.57961371  1
  Te  Te158  1  0.26158255  0.41774478  0.90058135  1
  Te  Te159  1  0.24250902  0.73367324  0.22689519  1
  Te  Te160  1  0.24812466  0.74490127  0.57531784  1
  Te  Te161  1  0.22929604  0.76983758  0.92510578  1
  Te  Te162  1  0.60036773  0.06385492  0.25977946  1
  Te  Te163  1  0.57870549  0.07499890  0.57763283  1
  Te  Te164  1  0.58782212  0.08769525  0.90996663  1
  Te  Te165  1  0.56267984  0.42504336  0.23950862  1
  Te  Te166  1  0.58171656  0.43410344  0.58849839  1
  Te  Te167  1  0.57183058  0.40182573  0.91083846  1
  Te  Te168  1  0.56985707  0.73905074  0.31597702  1
  Te  Te169  1  0.55882283  0.74530596  0.59195267  1
  Te  Te170  1  0.59899827  0.75333181  0.92161744  1
  Te  Te171  1  0.90545591  0.06737727  0.25367790  1
  Te  Te172  1  0.91621979  0.08055056  0.58921853  1
  Te  Te173  1  0.90807412  0.10738315  0.91831069  1
  Te  Te174  1  0.93247674  0.41988002  0.26957995  1
  Te  Te175  1  0.90122153  0.39811442  0.59985583  1
  Te  Te176  1  0.94770408  0.41000245  0.90991539  1
  Te  Te177  1  0.90905949  0.75505809  0.24716677  1
  Te  Te178  1  0.94620846  0.73069889  0.59596931  1
  Te  Te179  1  0.91050762  0.72060247  0.89915696  1
