# generated using pymatgen
data_In2Te3
_symmetry_space_group_name_H-M   'P 1'
_cell_length_a   19.04406366
_cell_length_b   19.10193510
_cell_length_c   19.14231564
_cell_angle_alpha   90.29310341
_cell_angle_beta   90.41200318
_cell_angle_gamma   89.89097284
_symmetry_Int_Tables_number   1
_chemical_formula_structural   In2Te3
_chemical_formula_sum   'In72 Te108'
_cell_volume   6963.27898617
_cell_formula_units_Z   36
loop_
 _symmetry_equiv_pos_site_id
 _symmetry_equiv_pos_as_xyz
  1  'x, y, z'
loop_
 _atom_site_type_symbol
 _atom_site_label
 _atom_site_symmetry_multiplicity
 _atom_site_fract_x
 _atom_site_fract_y
 _atom_site_fract_z
 _atom_site_occupancy
  In  In0  1  0.65541681  0.51655660  0.15994082  1
  In  In1  1  0.81692568  0.49554482  0.65681396  1
  In  In2  1  0.15787290  0.50510984  0.01956998  1
  In  In3  1  -0.00893947  0.64237009  0.33718985  1
  In  In4  1  0.32682511  0.17836411  0.18494081  1
  In  In5  1  0.34959370  0.67987230  0.36091917  1
  In  In6  1  0.31709520  0.85390450  0.50693648  1
  In  In7  1  0.66422459  0.14322874  0.17507562  1
  In  In8  1  0.84418187  -0.01486231  0.17521512  1
  In  In9  1  0.47060334  0.48064713  -0.00180447  1
  In  In10  1  0.17647486  0.19629750  0.65485748  1
  In  In11  1  0.14514230  0.32063141  0.83756975  1
  In  In12  1  0.82476594  0.37375215  0.82929030  1
  In  In13  1  0.17813333  0.02420495  0.16303595  1
  In  In14  1  0.50687982  0.34484430  0.51510953  1
  In  In15  1  0.18258656  0.68452994  0.80672255  1
  In  In16  1  0.17223507  0.85317346  -0.01357110  1
  In  In17  1  0.33117327  0.34867621  0.64611076  1
  In  In18  1  0.34252114  0.16705687  0.85402325  1
  In  In19  1  0.33307435  0.47977157  0.82968109  1
  In  In20  1  0.82355525  0.32965916  0.49586664  1
  In  In21  1  0.81714652  0.67055855  0.15019220  1
  In  In22  1  0.63232002  0.33581794  0.34307400  1
  In  In23  1  0.87034894  0.00737781  0.50801408  1
  In  In24  1  0.81809569  -0.02389652  0.83589538  1
  In  In25  1  0.66881483  0.83853633  0.48728396  1
  In  In26  1  0.49856653  0.16338666  -0.00132904  1
  In  In27  1  0.18545499  0.48789154  0.30116622  1
  In  In28  1  0.01326753  0.48415086  0.84593338  1
  In  In29  1  0.65277757  0.36780473  -0.00539688  1
  In  In30  1  0.00571519  0.63863234  0.66392665  1
  In  In31  1  0.62325714  0.62818887  0.69548273  1
  In  In32  1  0.01311745  0.31589641  0.31927724  1
  In  In33  1  -0.00795133  -0.03145818  -0.00315659  1
  In  In34  1  0.48887871  0.01149724  0.85321762  1
  In  In35  1  0.49255281  0.51123888  0.34506532  1
  In  In36  1  0.77057480  0.61873072  0.81275980  1
  In  In37  1  0.68051063  0.18098317  0.53187494  1
  In  In38  1  0.82412875  0.47317505  0.32294374  1
  In  In39  1  0.17603599  0.17177615  0.33749286  1
  In  In40  1  0.00932168  0.85200896  0.16218260  1
  In  In41  1  0.47854886  0.31447261  0.14769955  1
  In  In42  1  0.16691655  0.67502251  0.50184775  1
  In  In43  1  0.82125411  0.16594615  -0.01783672  1
  In  In44  1  0.83526649  0.14180026  0.34543226  1
  In  In45  1  0.50240153  0.66344025  0.50795558  1
  In  In46  1  0.88949037  0.82691810  0.65418764  1
  In  In47  1  0.64246366  0.18038242  0.81353749  1
  In  In48  1  0.81837338  0.78040351  -0.03619073  1
  In  In49  1  -0.00918335  0.81998890  0.48822034  1
  In  In50  1  -0.01514526  0.66990192  -0.01235318  1
  In  In51  1  0.04981367  0.86552803  0.80944726  1
  In  In52  1  0.35266485  0.82150710  0.17443014  1
  In  In53  1  0.31852773  0.30020128  0.01080584  1
  In  In54  1  0.31818604  0.69410392  0.01049693  1
  In  In55  1  0.49195849  0.82912103  0.66253299  1
  In  In56  1  0.49857904  -0.01037849  0.17488151  1
  In  In57  1  0.05796597  0.02161704  0.65778675  1
  In  In58  1  0.17739335  0.34697978  0.49215639  1
  In  In59  1  0.02756438  0.00985833  0.34493955  1
  In  In60  1  0.81039456  0.82511233  0.30920867  1
  In  In61  1  0.50400294  0.68711983  0.17827097  1
  In  In62  1  0.16355397  0.68110795  0.19059076  1
  In  In63  1  0.81878540  0.31042073  0.16377312  1
  In  In64  1  0.32831873  0.15922351  0.50439320  1
  In  In65  1  0.37621272  0.65546959  0.67022387  1
  In  In66  1  0.66686864  0.80743481  0.80965924  1
  In  In67  1  0.66251861  0.83845879  0.14993815  1
  In  In68  1  0.01833983  0.31749603  -0.00259559  1
  In  In69  1  0.49078576  -0.00759832  0.53413109  1
  In  In70  1  -0.01392145  0.34288458  0.67198128  1
  In  In71  1  0.67970568  -0.00123199  0.66342281  1
  Te  Te72  1  0.05957723  0.06221416  0.08642713  1
  Te  Te73  1  0.10116963  0.09488169  0.43613584  1
  Te  Te74  1  0.09408043  0.12834891  0.75470351  1
  Te  Te75  1  0.07567947  0.41313800  0.09286011  1
  Te  Te76  1  0.08753974  0.42190730  0.39564997  1
  Te  Te77  1  0.09731794  0.42435265  0.73862101  1
  Te  Te78  1  0.09006330  0.75338417  0.07177905  1
  Te  Te79  1  0.08345664  0.74603219  0.39594536  1
  Te  Te80  1  0.09086247  0.75386915  0.71033999  1
  Te  Te81  1  0.40657769  0.08942474  0.08805121  1
  Te  Te82  1  0.40731283  0.05842746  0.43423598  1
  Te  Te83  1  0.44196981  0.11444677  0.76218121  1
  Te  Te84  1  0.37378298  0.41778509  0.10554616  1
  Te  Te85  1  0.41879080  0.41211068  0.41878445  1
  Te  Te86  1  0.43144000  0.41786530  0.73653762  1
  Te  Te87  1  0.43828495  0.76746917  0.06293687  1
  Te  Te88  1  0.43252399  0.77739034  0.43939273  1
  Te  Te89  1  0.43429702  0.74847300  0.77028457  1
  Te  Te90  1  0.75949994  0.07155234  0.08370610  1
  Te  Te91  1  0.74931573  0.07209327  0.44309129  1
  Te  Te92  1  0.75329668  0.08986685  0.75911266  1
  Te  Te93  1  0.75420974  0.42571133  0.08953207  1
  Te  Te94  1  0.72483956  0.42101128  0.42505435  1
  Te  Te95  1  0.71759446  0.40701069  0.72725375  1
  Te  Te96  1  0.71467165  0.72429494  0.05405297  1
  Te  Te97  1  0.76054051  0.74837022  0.41971597  1
  Te  Te98  1  0.79010817  0.75197490  0.74452925  1
  Te  Te99  1  0.10115201  0.23958981  0.23015998  1
  Te  Te100  1  0.07599513  0.27103830  0.57167198  1
  Te  Te101  1  0.09758183  0.21697733  0.92593559  1
  Te  Te102  1  0.07126046  0.57180613  0.23207166  1
  Te  Te103  1  0.08919189  0.57088077  0.56750045  1
  Te  Te104  1  0.10212378  0.59989759  0.90335886  1
  Te  Te105  1  0.10559705  0.91907918  0.25312093  1
  Te  Te106  1  0.09127311  0.91018962  0.55321625  1
  Te  Te107  1  0.11706147  0.97052817  0.91038513  1
  Te  Te108  1  0.44117090  0.23359340  0.26190215  1
  Te  Te109  1  0.42219715  0.24485599  0.58948403  1
  Te  Te110  1  0.43601872  0.27495507  0.92046425  1
  Te  Te111  1  0.40972195  0.59602123  0.25116767  1
  Te  Te112  1  0.41922843  0.56113748  0.56723459  1
  Te  Te113  1  0.38472792  0.58273033  0.92740418  1
  Te  Te114  1  0.42361990  0.90724601  0.26725579  1
  Te  Te115  1  0.38554779  0.92598334  0.62381910  1
  Te  Te116  1  0.37071118  0.96391469  0.92206598  1
  Te  Te117  1  0.74053696  0.24462327  0.27538087  1
  Te  Te118  1  0.79423466  0.23739420  0.60384960  1
  Te  Te119  1  0.73542271  0.27071011  0.91063076  1
  Te  Te120  1  0.74787097  0.58833313  0.25419915  1
  Te  Te121  1  0.72248440  0.58674636  0.59439746  1
  Te  Te122  1  0.72346698  0.53159375  0.91659064  1
  Te  Te123  1  0.72812900  0.93712301  0.25513752  1
  Te  Te124  1  0.77701665  0.90867444  0.58915027  1
  Te  Te125  1  0.72565342  0.89443997  0.91943501  1
  Te  Te126  1  0.22136612  0.24792295  0.10710785  1
  Te  Te127  1  0.27106164  0.26383070  0.41045238  1
  Te  Te128  1  0.26806419  0.27015903  0.76458736  1
  Te  Te129  1  0.24934208  0.59634296  0.10036752  1
  Te  Te130  1  0.24422234  0.58408529  0.40551554  1
  Te  Te131  1  0.26208471  0.57749948  0.73875780  1
  Te  Te132  1  0.25431395  0.91028914  0.09788667  1
  Te  Te133  1  0.20108696  0.92658205  0.45492464  1
  Te  Te134  1  0.15688561  0.95105709  0.74937007  1
  Te  Te135  1  0.60581209  0.24910784  0.08313608  1
  Te  Te136  1  0.57675179  0.23228131  0.43288269  1
  Te  Te137  1  0.59981172  0.28944946  0.72665175  1
  Te  Te138  1  0.55149050  0.58356183  0.07499075  1
  Te  Te139  1  0.58879411  0.59380046  0.41432341  1
  Te  Te140  1  0.53006678  0.53653949  0.75897744  1
  Te  Te141  1  0.57727054  0.92551048  0.07075029  1
  Te  Te142  1  0.58598893  0.94329517  0.43361694  1
  Te  Te143  1  0.58376612  0.92211803  0.75217530  1
  Te  Te144  1  0.91427130  0.23385275  0.07875779  1
  Te  Te145  1  0.92075345  0.24395740  0.41438077  1
  Te  Te146  1  0.91456028  0.27261755  0.77576138  1
  Te  Te147  1  0.90568335  0.58507285  0.07214955  1
  Te  Te148  1  0.90035541  0.56052613  0.41323045  1
  Te  Te149  1  0.91176983  0.56850180  0.76621854  1
  Te  Te150  1  0.88665223  0.88042412  0.06844623  1
  Te  Te151  1  0.91332625  0.91258045  0.39163486  1
  Te  Te152  1  0.93161537  0.94303797  0.74105590  1
  Te  Te153  1  0.26982836  0.07114775  0.27411236  1
  Te  Te154  1  0.25719219  0.08539987  0.60742253  1
  Te  Te155  1  0.29409759  0.08385873  0.96388644  1
  Te  Te156  1  0.27209424  0.40594043  0.22141259  1
  Te  Te157  1  0.25364124  0.44493794  0.57029318  1
  Te  Te158  1  0.23681325  0.40984944  0.93033725  1
  Te  Te159  1  0.25594591  0.76332112  0.27537907  1
  Te  Te160  1  0.27198647  0.73805797  0.58986601  1
  Te  Te161  1  0.26358583  0.77679113  0.89434049  1
  Te  Te162  1  0.55348675  0.10086052  0.25750999  1
  Te  Te163  1  0.58142945  0.09526243  0.60615630  1
  Te  Te164  1  0.60267188  0.08547600  0.92299732  1
  Te  Te165  1  0.56872652  0.41478691  0.22906183  1
  Te  Te166  1  0.62125246  0.38015012  0.60378537  1
  Te  Te167  1  0.58550631  0.46111182  0.89867663  1
  Te  Te168  1  0.60063710  0.76227475  0.25606071  1
  Te  Te169  1  0.60485068  0.75370940  0.59970464  1
  Te  Te170  1  0.58290320  0.68798858  0.83274874  1
  Te  Te171  1  0.93189481  0.08331722  0.24726630  1
  Te  Te172  1  0.93971505  0.09460117  0.59966203  1
  Te  Te173  1  0.91182718  0.06842263  0.91242206  1
  Te  Te174  1  0.91918435  0.39975091  0.23312578  1
  Te  Te175  1  0.91685789  0.42807136  0.56855106  1
  Te  Te176  1  0.91903521  0.41981406  0.93969098  1
  Te  Te177  1  0.92511453  0.74962819  0.23449312  1
  Te  Te178  1  0.91706130  0.71189907  0.56161768  1
  Te  Te179  1  0.94914476  0.77442081  0.88882320  1
