# generated using pymatgen
data_In2Te3
_symmetry_space_group_name_H-M   'P 1'
_cell_length_a   18.96390519
_cell_length_b   19.01266893
_cell_length_c   19.02067567
_cell_angle_alpha   90.12051869
_cell_angle_beta   90.16726442
_cell_angle_gamma   89.96072799
_symmetry_Int_Tables_number   1
_chemical_formula_structural   In2Te3
_chemical_formula_sum   'In72 Te108'
_cell_volume   6857.94329464
_cell_formula_units_Z   36
loop_
 _symmetry_equiv_pos_site_id
 _symmetry_equiv_pos_as_xyz
  1  'x, y, z'
loop_
 _atom_site_type_symbol
 _atom_site_label
 _atom_site_symmetry_multiplicity
 _atom_site_fract_x
 _atom_site_fract_y
 _atom_site_fract_z
 _atom_site_occupancy
  In  In0  1  0.69949454  -0.02103617  0.00409405  1
  In  In1  1  0.51169079  0.16152996  0.00239385  1
  In  In2  1  0.66318741  0.54146516  0.83598334  1
  In  In3  1  0.86297313  0.83314057  0.28134936  1
  In  In4  1  0.17626423  0.66908770  0.81422249  1
  In  In5  1  0.65481313  0.17159169  0.49697667  1
  In  In6  1  0.46552343  0.13521633  0.32729185  1
  In  In7  1  0.31873935  0.33693072  0.00057518  1
  In  In8  1  0.02471348  -0.01576500  0.08998222  1
  In  In9  1  0.50136471  0.33734521  0.19228142  1
  In  In10  1  0.83680213  -0.00148224  0.49660091  1
  In  In11  1  0.20879558  0.83543895  0.64834349  1
  In  In12  1  0.31788906  0.68376148  0.34330269  1
  In  In13  1  0.31569630  0.13854308  0.86882416  1
  In  In14  1  0.48577618  0.82871789  -0.00338094  1
  In  In15  1  0.50895023  -0.01138659  0.14778973  1
  In  In16  1  0.49577350  0.82835939  0.32660779  1
  In  In17  1  0.47465414  0.54070110  0.39436704  1
  In  In18  1  0.83809951  0.65719090  0.83531926  1
  In  In19  1  0.86040314  0.15128948  0.30908231  1
  In  In20  1  0.85624422  0.36409138  0.84856055  1
  In  In21  1  0.85659806  0.33984124  0.43497933  1
  In  In22  1  0.66710799  -0.02078925  0.31596186  1
  In  In23  1  0.32140408  0.67959930  -0.01369814  1
  In  In24  1  0.01456189  -0.03691186  0.67053172  1
  In  In25  1  0.84950650  0.50653575  0.01801454  1
  In  In26  1  0.65751853  0.82529676  0.83197152  1
  In  In27  1  0.00424378  0.50599420  0.47574738  1
  In  In28  1  0.71055572  0.69479135  0.31378138  1
  In  In29  1  0.69823699  0.32014670  0.32842991  1
  In  In30  1  -0.00141180  0.82298211  0.84654154  1
  In  In31  1  0.65900017  0.15875851  0.86480921  1
  In  In32  1  0.63486036  0.68377777  0.67649291  1
  In  In33  1  0.66011572  0.83501065  0.50051525  1
  In  In34  1  0.00871204  0.49470465  0.20400551  1
  In  In35  1  0.16456457  0.67542176  0.19149029  1
  In  In36  1  0.82869286  0.52791897  0.63902658  1
  In  In37  1  0.67685878  0.33987035  -0.00788313  1
  In  In38  1  0.25491373  0.01066493  0.35578666  1
  In  In39  1  0.50844099  0.33879554  0.81915821  1
  In  In40  1  0.62692448  -0.00080869  0.66535219  1
  In  In41  1  0.00370235  0.84040186  0.49206377  1
  In  In42  1  0.17109176  0.33809749  0.82617914  1
  In  In43  1  0.02207202  0.36736893  0.65959044  1
  In  In44  1  0.85354466  0.13183553  0.68597419  1
  In  In45  1  0.83048128  -0.01506734  0.86995434  1
  In  In46  1  -0.00102533  0.34831220  0.00980523  1
  In  In47  1  0.30165977  0.33309508  0.65141223  1
  In  In48  1  0.16042665  0.33405078  0.49135633  1
  In  In49  1  0.52108484  0.65609291  0.18705308  1
  In  In50  1  0.83806839  0.51557027  0.33212481  1
  In  In51  1  0.14649656  0.78921670  -0.00575515  1
  In  In52  1  0.34491790  0.31413348  0.33462137  1
  In  In53  1  0.34482354  -0.00525766  0.68106914  1
  In  In54  1  0.31286625  0.80995959  0.19449427  1
  In  In55  1  0.46715343  0.68902871  0.82132889  1
  In  In56  1  0.58935653  0.56227760  0.53312412  1
  In  In57  1  0.70253348  0.34056047  0.65111210  1
  In  In58  1  0.49829941  0.33295052  0.50148423  1
  In  In59  1  0.15312895  0.68602450  0.48856602  1
  In  In60  1  0.32103288  0.50818951  0.82903944  1
  In  In61  1  0.17496742  0.14214180  0.64906115  1
  In  In62  1  -0.01060771  0.68723176  0.63942520  1
  In  In63  1  0.48593912  0.18029057  0.67585184  1
  In  In64  1  0.16484704  0.31791558  0.15368220  1
  In  In65  1  0.86688237  0.14154967  0.02378216  1
  In  In66  1  0.32026195  0.49204388  0.16175134  1
  In  In67  1  0.15949985  0.17352489  0.30386400  1
  In  In68  1  0.04700306  -0.00543995  0.30605783  1
  In  In69  1  0.65401541  0.46456411  0.17504832  1
  In  In70  1  0.31761029  -0.01966081  -0.00018379  1
  In  In71  1  0.01873849  0.17518537  0.81098208  1
  Te  Te72  1  0.13564355  0.08649953  0.08950967  1
  Te  Te73  1  0.12111038  0.07217299  0.41116188  1
  Te  Te74  1  0.09811866  0.06114317  0.75142826  1
  Te  Te75  1  0.09235555  0.43527313  0.09078609  1
  Te  Te76  1  0.06563186  0.39831330  0.39809017  1
  Te  Te77  1  0.09904009  0.44429086  0.75617375  1
  Te  Te78  1  0.06081008  0.75559208  0.11925853  1
  Te  Te79  1  0.03365467  0.72408841  0.40596745  1
  Te  Te80  1  0.08630242  0.76468069  0.73188613  1
  Te  Te81  1  0.41003653  0.07843837  0.07595091  1
  Te  Te82  1  0.38493558  0.05319959  0.41482282  1
  Te  Te83  1  0.42645806  0.08918461  0.77744650  1
  Te  Te84  1  0.42114920  0.41187923  0.08325722  1
  Te  Te85  1  0.39070403  0.41616615  0.43514597  1
  Te  Te86  1  0.40071610  0.40929735  0.74146257  1
  Te  Te87  1  0.41721824  0.73815687  0.10037517  1
  Te  Te88  1  0.39767610  0.77711237  0.42588239  1
  Te  Te89  1  0.43453091  0.78082843  0.71012395  1
  Te  Te90  1  0.73808805  0.10091538  0.07689489  1
  Te  Te91  1  0.74079591  0.08149273  0.40961342  1
  Te  Te92  1  0.74348721  0.06773186  0.76848007  1
  Te  Te93  1  0.77046320  0.40254275  0.09269977  1
  Te  Te94  1  0.73754464  0.42940137  0.42188368  1
  Te  Te95  1  0.75594843  0.44118686  0.75863038  1
  Te  Te96  1  0.82367604  0.78621620  0.13803801  1
  Te  Te97  1  0.77081194  0.79791154  0.40411105  1
  Te  Te98  1  0.75470427  0.74663268  0.74542779  1
  Te  Te99  1  0.05697554  0.24443367  0.22375657  1
  Te  Te100  1  0.08116409  0.24764241  0.59030604  1
  Te  Te101  1  0.08365425  0.25730952  0.91914451  1
  Te  Te102  1  0.11096544  0.57172977  0.28239239  1
  Te  Te103  1  0.08060097  0.58291934  0.58036165  1
  Te  Te104  1  0.09609081  0.65752937  0.93855314  1
  Te  Te105  1  0.06670728  0.88854249  0.20214562  1
  Te  Te106  1  0.11141122  0.91837793  0.56402065  1
  Te  Te107  1  0.05590003  0.90770130  0.95609276  1
  Te  Te108  1  0.40154060  0.22685376  0.22535820  1
  Te  Te109  1  0.39724364  0.24459010  0.57220035  1
  Te  Te110  1  0.42416677  0.25532124  0.91377470  1
  Te  Te111  1  0.39746450  0.58635702  0.25441706  1
  Te  Te112  1  0.44389502  0.58156969  0.53224678  1
  Te  Te113  1  0.41507129  0.58153733  0.92235350  1
  Te  Te114  1  0.41122136  0.91894038  0.23909175  1
  Te  Te115  1  0.43035095  0.89725600  0.60783349  1
  Te  Te116  1  0.40959181  0.91399224  0.90675535  1
  Te  Te117  1  0.76009959  0.22914924  0.23457101  1
  Te  Te118  1  0.76515108  0.21663610  0.59111860  1
  Te  Te119  1  0.77341750  0.25248587  0.91031644  1
  Te  Te120  1  0.74682918  0.57550864  0.22843056  1
  Te  Te121  1  0.72956259  0.61684548  0.57336438  1
  Te  Te122  1  0.75063571  0.59804820  0.94641938  1
  Te  Te123  1  0.77584278  0.94399489  0.21936022  1
  Te  Te124  1  0.73959842  0.92964755  0.59143090  1
  Te  Te125  1  0.76715552  0.86263185  0.93214973  1
  Te  Te126  1  0.24169698  0.22888073  0.06327137  1
  Te  Te127  1  0.24632816  0.23510191  0.41506782  1
  Te  Te128  1  0.25471985  0.22754513  0.75951864  1
  Te  Te129  1  0.24172756  0.59680184  0.08582560  1
  Te  Te130  1  0.22682206  0.58573555  0.40342415  1
  Te  Te131  1  0.28018049  0.60749415  0.72728007  1
  Te  Te132  1  0.24261645  0.87640153  0.07932427  1
  Te  Te133  1  0.25840944  0.87303827  0.41021196  1
  Te  Te134  1  0.24550285  0.92122025  0.76077125  1
  Te  Te135  1  0.58595419  0.26313345  0.08596200  1
  Te  Te136  1  0.57306131  0.25099653  0.39628914  1
  Te  Te137  1  0.61121474  0.25029553  0.74568496  1
  Te  Te138  1  0.58426655  0.56473880  0.09293120  1
  Te  Te139  1  0.59964366  0.63205987  0.39580722  1
  Te  Te140  1  0.54831832  0.58185276  0.74666738  1
  Te  Te141  1  0.59944956  0.89049506  0.07865523  1
  Te  Te142  1  0.57125168  0.92675153  0.41874802  1
  Te  Te143  1  0.56367105  0.92017876  0.77033476  1
  Te  Te144  1  0.93823114  0.24739154  0.09811302  1
  Te  Te145  1  0.92300249  0.21184259  0.42627963  1
  Te  Te146  1  0.91894859  0.26804941  0.74303161  1
  Te  Te147  1  0.92994331  0.58690009  0.11497492  1
  Te  Te148  1  0.91168400  0.60868242  0.42139214  1
  Te  Te149  1  0.92749561  0.58517766  0.73687822  1
  Te  Te150  1  0.88499835  0.92692973  0.10531271  1
  Te  Te151  1  0.92980543  0.93781813  0.39283217  1
  Te  Te152  1  0.90707914  0.90820774  0.76088537  1
  Te  Te153  1  0.21689933  0.06088181  0.21418514  1
  Te  Te154  1  0.27567853  0.06915932  0.57352576  1
  Te  Te155  1  0.20900652  0.06165596  0.93573102  1
  Te  Te156  1  0.24780637  0.39860108  0.25412734  1
  Te  Te157  1  0.22674573  0.43297065  0.57804808  1
  Te  Te158  1  0.23218994  0.43678283  0.92784510  1
  Te  Te159  1  0.19903340  0.79363706  0.29648765  1
  Te  Te160  1  0.26220549  0.71336812  0.58664248  1
  Te  Te161  1  0.26389372  0.77178009  0.88448827  1
  Te  Te162  1  0.58031016  0.08214213  0.24370663  1
  Te  Te163  1  0.55103584  0.08989957  0.57065633  1
  Te  Te164  1  0.58195616  0.04898440  0.92958686  1
  Te  Te165  1  0.55420991  0.44132945  0.28573682  1
  Te  Te166  1  0.58770878  0.41578375  0.59146467  1
  Te  Te167  1  0.58711749  0.42985339  0.91037731  1
  Te  Te168  1  0.60522233  0.77268246  0.23578036  1
  Te  Te169  1  0.55287403  0.78160805  0.59436487  1
  Te  Te170  1  0.57485646  0.73218485  0.91909418  1
  Te  Te171  1  0.95019396  0.07046438  0.22073771  1
  Te  Te172  1  0.94288481  0.06631449  0.58392527  1
  Te  Te173  1  0.94024131  0.08306656  0.90753537  1
  Te  Te174  1  0.91734475  0.40280523  0.27900426  1
  Te  Te175  1  0.90231224  0.41461769  0.56837579  1
  Te  Te176  1  0.95149491  0.45990018  0.91517962  1
  Te  Te177  1  0.91544425  0.70170308  0.22832984  1
  Te  Te178  1  0.90081075  0.78761343  0.58185563  1
  Te  Te179  1  0.93712070  0.71606943  0.92975610  1
