# generated using pymatgen
data_In2Te3
_symmetry_space_group_name_H-M   'P 1'
_cell_length_a   18.93597118
_cell_length_b   18.92444880
_cell_length_c   18.91582538
_cell_angle_alpha   90.00996783
_cell_angle_beta   90.02538104
_cell_angle_gamma   89.93353252
_symmetry_Int_Tables_number   1
_chemical_formula_structural   In2Te3
_chemical_formula_sum   'In72 Te108'
_cell_volume   6778.53398467
_cell_formula_units_Z   36
loop_
 _symmetry_equiv_pos_site_id
 _symmetry_equiv_pos_as_xyz
  1  'x, y, z'
loop_
 _atom_site_type_symbol
 _atom_site_label
 _atom_site_symmetry_multiplicity
 _atom_site_fract_x
 _atom_site_fract_y
 _atom_site_fract_z
 _atom_site_occupancy
  In  In0  1  0.66392556  0.83515760  0.85261372  1
  In  In1  1  -0.01504988  0.00391702  0.00110737  1
  In  In2  1  0.81506836  0.30363262  0.16605127  1
  In  In3  1  0.34058218  0.83218390  0.15907761  1
  In  In4  1  0.81791754  0.52345778  0.35120292  1
  In  In5  1  -0.00131913  0.15805524  0.51650162  1
  In  In6  1  0.48566089  0.78027160  -0.01670022  1
  In  In7  1  0.66978053  0.02609555  0.31706361  1
  In  In8  1  0.16570504  0.65331400  0.15032945  1
  In  In9  1  0.17521866  0.51599729  0.30569496  1
  In  In10  1  0.30375276  0.33910206  0.71758492  1
  In  In11  1  0.15551807  -0.00155327  0.14670348  1
  In  In12  1  0.51195773  0.47653431  0.30698869  1
  In  In13  1  0.31630837  0.49068032  0.14132309  1
  In  In14  1  0.34540364  0.69976613  0.33230805  1
  In  In15  1  0.33554466  0.49174333  0.50826955  1
  In  In16  1  0.81960939  0.01017401  0.49879345  1
  In  In17  1  0.84369207  0.47777190  0.01385744  1
  In  In18  1  0.84883285  0.19005820  -0.00700472  1
  In  In19  1  0.48493473  0.34946257  0.82824163  1
  In  In20  1  0.50613425  0.15341305  0.32984355  1
  In  In21  1  0.14754946  0.67261825  0.49637748  1
  In  In22  1  0.47513336  0.83331363  0.35679099  1
  In  In23  1  0.51245970  0.19781063  -0.00781088  1
  In  In24  1  0.64563562  0.66531067  0.64512334  1
  In  In25  1  0.49027713  0.16487529  0.66649302  1
  In  In26  1  0.67412226  0.00702125  0.01906667  1
  In  In27  1  0.66766289  0.47613144  0.15881864  1
  In  In28  1  0.52383695  -0.00130220  0.50658348  1
  In  In29  1  0.68664690  0.49263156  0.52051915  1
  In  In30  1  0.80760734  0.67877092  0.50502783  1
  In  In31  1  0.18395760  0.00577564  0.49469459  1
  In  In32  1  0.68096510  0.33216251  0.68281835  1
  In  In33  1  0.18075718  0.84102054  0.00564979  1
  In  In34  1  0.31137985  0.34945427  -0.02450917  1
  In  In35  1  0.34173589  0.18699763  0.50067053  1
  In  In36  1  0.33050366  0.65338270  0.66201676  1
  In  In37  1  0.66284130  0.67832657  0.38966620  1
  In  In38  1  0.67217120  0.83729362  0.18672163  1
  In  In39  1  0.84116134  0.65277661  0.15805690  1
  In  In40  1  0.31770044  0.00080071  0.31941663  1
  In  In41  1  0.14462575  0.81476267  0.68648336  1
  In  In42  1  -0.02152867  0.03683931  0.30883690  1
  In  In43  1  0.35400897  0.83974239  0.49769418  1
  In  In44  1  0.32216359  0.00947997  0.64820296  1
  In  In45  1  0.84047874  0.33911883  0.52145321  1
  In  In46  1  0.83680597  0.65355042  0.83325905  1
  In  In47  1  -0.00987932  0.34505615  0.32177954  1
  In  In48  1  0.50663668  -0.00056717  0.84162334  1
  In  In49  1  0.36086229  0.15225668  0.16377308  1
  In  In50  1  0.65859776  0.49445367  0.82837139  1
  In  In51  1  -0.00330548  0.49531176  0.15435061  1
  In  In52  1  0.15738333  0.46693922  0.73947412  1
  In  In53  1  0.65159601  0.65353509  0.02854712  1
  In  In54  1  0.83300102  0.84994666  0.67462668  1
  In  In55  1  0.15848260  0.30689170  0.17766160  1
  In  In56  1  -0.01280929  0.83607426  0.17569707  1
  In  In57  1  0.00172518  0.81826600  0.81887216  1
  In  In58  1  0.15740665  0.16114223  -0.01362817  1
  In  In59  1  0.69767397  0.01492816  0.69515208  1
  In  In60  1  -0.01350653  0.64333587  0.68383590  1
  In  In61  1  0.17037816  0.33036770  0.48617540  1
  In  In62  1  0.50949245  0.33738761  0.49300908  1
  In  In63  1  0.01754945  0.36331094  -0.02340210  1
  In  In64  1  0.53901633  0.01105749  0.15396849  1
  In  In65  1  0.01139467  0.03521326  0.67181665  1
  In  In66  1  0.35566581  0.77748512  0.83738916  1
  In  In67  1  0.00346915  0.83838766  0.48597148  1
  In  In68  1  0.83000967  0.03654806  0.85485742  1
  In  In69  1  0.16746947  0.01943849  0.82526778  1
  In  In70  1  -0.00486088  0.49181539  0.52687103  1
  In  In71  1  0.51005155  0.64953810  0.16538601  1
  Te  Te72  1  0.06115534  0.10159847  0.08907749  1
  Te  Te73  1  0.08382485  0.08488646  0.41383936  1
  Te  Te74  1  0.10070688  0.12944822  0.74589402  1
  Te  Te75  1  0.11545571  0.42413621  0.08943958  1
  Te  Te76  1  0.08115933  0.43800526  0.40608237  1
  Te  Te77  1  0.06109837  0.35195203  0.75830213  1
  Te  Te78  1  0.07880854  0.75724843  0.08016296  1
  Te  Te79  1  0.07831179  0.75192550  0.39525290  1
  Te  Te80  1  0.09515647  0.70572348  0.77841709  1
  Te  Te81  1  0.44060289  0.07738323  0.05956977  1
  Te  Te82  1  0.40742104  0.06329425  0.42743929  1
  Te  Te83  1  0.40548779  0.07792959  0.75674312  1
  Te  Te84  1  0.40861018  0.39941987  0.07475834  1
  Te  Te85  1  0.41013149  0.40969526  0.40467655  1
  Te  Te86  1  0.39434340  0.44754011  0.76219213  1
  Te  Te87  1  0.39441910  0.71203048  0.08706263  1
  Te  Te88  1  0.43698586  0.71897380  0.45356768  1
  Te  Te89  1  0.42714088  0.75360786  0.71002141  1
  Te  Te90  1  0.78014535  0.09058243  0.08429788  1
  Te  Te91  1  0.74408601  0.10799909  0.41610598  1
  Te  Te92  1  0.75684815  0.13634033  0.77027251  1
  Te  Te93  1  0.73579590  0.38144562  0.06069223  1
  Te  Te94  1  0.74706378  0.40564564  0.41188318  1
  Te  Te95  1  0.76514573  0.39898113  0.78640493  1
  Te  Te96  1  0.74949572  0.75414523  0.08530068  1
  Te  Te97  1  0.78113601  0.76802889  0.39063874  1
  Te  Te98  1  0.74575099  0.75065651  0.74767365  1
  Te  Te99  1  0.05951049  0.23330503  0.25685871  1
  Te  Te100  1  0.06421515  0.27941559  0.58190957  1
  Te  Te101  1  0.10778236  0.27002511  0.89589873  1
  Te  Te102  1  0.06032170  0.59620450  0.24847615  1
  Te  Te103  1  0.09930323  0.57537327  0.60262403  1
  Te  Te104  1  0.09831550  0.48966736  0.94238766  1
  Te  Te105  1  0.07648831  0.93091027  0.25614058  1
  Te  Te106  1  0.08374403  0.92856688  0.58922395  1
  Te  Te107  1  0.08123039  0.91924097  0.91085356  1
  Te  Te108  1  0.42001012  0.24640115  0.25798007  1
  Te  Te109  1  0.40739591  0.27794021  0.60330089  1
  Te  Te110  1  0.39874296  0.24708542  0.90318757  1
  Te  Te111  1  0.40463349  0.57966087  0.25611915  1
  Te  Te112  1  0.42827524  0.56587314  0.59296413  1
  Te  Te113  1  0.42268503  0.66275668  0.90860630  1
  Te  Te114  1  0.43139333  0.93118758  0.24081100  1
  Te  Te115  1  0.43581310  0.91731947  0.59947319  1
  Te  Te116  1  0.42061972  0.89981881  0.91274936  1
  Te  Te117  1  0.79216230  0.21372573  0.28097772  1
  Te  Te118  1  0.74012222  0.24856735  0.57742123  1
  Te  Te119  1  0.74479893  0.22417903  0.89540486  1
  Te  Te120  1  0.72916958  0.58708766  0.24298866  1
  Te  Te121  1  0.76865103  0.58051803  0.61348635  1
  Te  Te122  1  0.75047932  0.57771188  0.94014946  1
  Te  Te123  1  0.76093948  0.94520257  0.23352644  1
  Te  Te124  1  0.73530628  0.91329413  0.57972037  1
  Te  Te125  1  0.76278610  0.92074162  0.92702725  1
  Te  Te126  1  0.25797490  0.24188460  0.07964070  1
  Te  Te127  1  0.25030138  0.24310967  0.40073381  1
  Te  Te128  1  0.22558638  0.22287916  0.75665163  1
  Te  Te129  1  0.23939167  0.57621761  0.04867834  1
  Te  Te130  1  0.25358510  0.59254112  0.41349152  1
  Te  Te131  1  0.26466784  0.56956221  0.76781558  1
  Te  Te132  1  0.27507947  0.93902094  0.07377204  1
  Te  Te133  1  0.24651717  0.89903881  0.40598503  1
  Te  Te134  1  0.24404098  0.91639261  0.74175038  1
  Te  Te135  1  0.59688459  0.24475026  0.10229356  1
  Te  Te136  1  0.58351362  0.22719507  0.43106011  1
  Te  Te137  1  0.57508452  0.24877061  0.75847968  1
  Te  Te138  1  0.55658501  0.54242408  0.07059122  1
  Te  Te139  1  0.58602979  0.54948407  0.41780388  1
  Te  Te140  1  0.57607164  0.57357667  0.73484901  1
  Te  Te141  1  0.57863152  0.88753830  0.07141827  1
  Te  Te142  1  0.59427307  0.91983564  0.39938928  1
  Te  Te143  1  0.59259649  0.91667555  0.74683475  1
  Te  Te144  1  0.93652618  0.27655912  0.08171549  1
  Te  Te145  1  0.92224679  0.25396868  0.42454884  1
  Te  Te146  1  0.94591076  0.28514749  0.68417720  1
  Te  Te147  1  0.93641110  0.59291779  0.05471499  1
  Te  Te148  1  0.91837884  0.59283750  0.44049556  1
  Te  Te149  1  0.94247608  0.55762249  0.79448009  1
  Te  Te150  1  0.90342803  0.91638360  0.08481143  1
  Te  Te151  1  0.91684524  0.93665084  0.40884003  1
  Te  Te152  1  0.91964454  0.94206698  0.75827382  1
  Te  Te153  1  0.23603169  0.09338127  0.23662382  1
  Te  Te154  1  0.23453705  0.11661335  0.58528722  1
  Te  Te155  1  0.25815445  0.07295566  0.92671657  1
  Te  Te156  1  0.25509955  0.40161813  0.25043274  1
  Te  Te157  1  0.23490822  0.41656747  0.59432388  1
  Te  Te158  1  0.22373230  0.43179131  0.87988803  1
  Te  Te159  1  0.23854061  0.75712388  0.24126468  1
  Te  Te160  1  0.23974424  0.76635908  0.57663033  1
  Te  Te161  1  0.22959331  0.74205524  0.90990750  1
  Te  Te162  1  0.61116752  0.13537975  0.20820901  1
  Te  Te163  1  0.60280617  0.08863258  0.59841571  1
  Te  Te164  1  0.60010007  0.09154387  0.91694864  1
  Te  Te165  1  0.59588033  0.37533452  0.24029354  1
  Te  Te166  1  0.58232434  0.41673104  0.59975941  1
  Te  Te167  1  0.57776297  0.41483073  0.92219806  1
  Te  Te168  1  0.56915367  0.74773961  0.26444554  1
  Te  Te169  1  0.60675466  0.73331294  0.52064152  1
  Te  Te170  1  0.59248698  0.71039062  0.89696415  1
  Te  Te171  1  0.87018460  0.09542892  0.22232624  1
  Te  Te172  1  0.89036449  0.09614912  0.60351658  1
  Te  Te173  1  0.94907244  0.11505470  0.90128005  1
  Te  Te174  1  0.88966554  0.43153751  0.24277078  1
  Te  Te175  1  0.90110754  0.43073835  0.62488752  1
  Te  Te176  1  0.89582209  0.40222890  0.89622360  1
  Te  Te177  1  0.89625094  0.74839256  0.25600382  1
  Te  Te178  1  0.93078468  0.76052511  0.59898319  1
  Te  Te179  1  0.90476554  0.75944086  0.91030622  1
