# generated using pymatgen
data_In2Te3
_symmetry_space_group_name_H-M   'P 1'
_cell_length_a   18.81483843
_cell_length_b   18.82204981
_cell_length_c   18.81649312
_cell_angle_alpha   89.97389494
_cell_angle_beta   89.99302391
_cell_angle_gamma   90.05887970
_symmetry_Int_Tables_number   1
_chemical_formula_structural   In2Te3
_chemical_formula_sum   'In72 Te108'
_cell_volume   6663.55244330
_cell_formula_units_Z   36
loop_
 _symmetry_equiv_pos_site_id
 _symmetry_equiv_pos_as_xyz
  1  'x, y, z'
loop_
 _atom_site_type_symbol
 _atom_site_label
 _atom_site_symmetry_multiplicity
 _atom_site_fract_x
 _atom_site_fract_y
 _atom_site_fract_z
 _atom_site_occupancy
  In  In0  1  0.34392605  0.16287918  0.83879147  1
  In  In1  1  0.33088694  0.33159591  0.34169775  1
  In  In2  1  0.64920059  -0.00524348  0.68526164  1
  In  In3  1  0.51818148  0.34840697  0.14781933  1
  In  In4  1  0.65808357  0.50693770  0.80050438  1
  In  In5  1  0.03056328  0.66609816  0.01021459  1
  In  In6  1  0.33830150  0.50899480  0.84297706  1
  In  In7  1  -0.01186472  0.16695837  0.47730344  1
  In  In8  1  0.00403775  0.83287437  0.84365230  1
  In  In9  1  0.82441737  0.66577146  0.51103777  1
  In  In10  1  0.67011335  0.16499847  0.51450242  1
  In  In11  1  0.31848914  0.68327762  0.30228330  1
  In  In12  1  0.83355630  0.84763040  0.32232173  1
  In  In13  1  0.16328762  0.48950032  0.31194722  1
  In  In14  1  0.64610738  -0.00792394  -0.00584454  1
  In  In15  1  0.65616710  0.34637140  0.32950518  1
  In  In16  1  0.66140354  0.16305021  0.84305362  1
  In  In17  1  0.65144365  0.35455548  0.65113495  1
  In  In18  1  0.84997119  0.34265988  0.17277405  1
  In  In19  1  0.66116517  0.83166767  0.51276800  1
  In  In20  1  0.83130756  0.01127388  0.50751353  1
  In  In21  1  0.34830406  0.16384979  0.49782617  1
  In  In22  1  0.33427514  0.15112858  0.16612938  1
  In  In23  1  0.00405044  0.67891751  0.65510642  1
  In  In24  1  0.03165478  0.66369323  0.31664387  1
  In  In25  1  0.17262500  -0.00921263  0.84810226  1
  In  In26  1  0.49103025  0.51547466  -0.00719784  1
  In  In27  1  0.84148524  0.00824010  0.16095701  1
  In  In28  1  0.66178560  0.17488726  0.15761056  1
  In  In29  1  0.36258675  -0.00866565  0.68101514  1
  In  In30  1  0.17680834  0.15441002  0.64485798  1
  In  In31  1  0.48058267  0.00474221  0.49836982  1
  In  In32  1  0.67078581  0.32057417  0.00388902  1
  In  In33  1  0.17196002  0.67003813  0.50479797  1
  In  In34  1  -0.01304147  0.34172881  0.68183074  1
  In  In35  1  0.15623523  0.35213610  0.15904754  1
  In  In36  1  0.67940980  -0.00250247  0.32402816  1
  In  In37  1  0.45926918  -0.03052389  0.16025771  1
  In  In38  1  0.00864470  0.80768749  0.48824895  1
  In  In39  1  0.60801218  0.65119118  0.35456097  1
  In  In40  1  -0.00176195  0.50293281  0.85654616  1
  In  In41  1  0.81664545  0.00478698  0.84323430  1
  In  In42  1  0.65654201  0.50600728  0.19013244  1
  In  In43  1  0.17466936  0.15444478  -0.01217596  1
  In  In44  1  0.20557876  -0.02509433  0.14375237  1
  In  In45  1  0.81299450  0.67798037  0.82923351  1
  In  In46  1  0.01634940  0.83378200  0.15500643  1
  In  In47  1  0.00486226  -0.01456645  0.64403403  1
  In  In48  1  -0.00413912  0.50151954  0.50747254  1
  In  In49  1  0.00081209  0.17965950  0.16124470  1
  In  In50  1  0.34549982  0.49907545  0.50909376  1
  In  In51  1  0.34343235  0.84153619  0.85607738  1
  In  In52  1  0.50181963  0.16024991  0.34493575  1
  In  In53  1  0.00733141  -0.00818386  -0.02108261  1
  In  In54  1  0.83481731  0.47585373  0.32910272  1
  In  In55  1  0.00897378  0.18247147  0.83022356  1
  In  In56  1  0.17466018  0.35322744  0.85353239  1
  In  In57  1  0.34763078  0.33119072  0.67704927  1
  In  In58  1  0.65240928  0.67893675  0.68355669  1
  In  In59  1  0.80847234  0.66378106  0.14317554  1
  In  In60  1  0.63925090  0.70403970  -0.01999851  1
  In  In61  1  0.48990913  0.32643797  0.83606871  1
  In  In62  1  0.85189422  0.50405643  -0.01225660  1
  In  In63  1  0.16990273  0.68472244  0.83436382  1
  In  In64  1  0.19808979  0.32344340  0.50682366  1
  In  In65  1  -0.00450656  0.32021542  0.32783289  1
  In  In66  1  0.32790698  0.66108645  0.65316698  1
  In  In67  1  0.50584031  0.83498609  0.67416730  1
  In  In68  1  0.48091852  0.82389486  0.31722425  1
  In  In69  1  0.02057801  0.00516698  0.31240325  1
  In  In70  1  0.82381744  0.48920266  0.66928428  1
  In  In71  1  0.47779426  0.68438187  0.16281611  1
  Te  Te72  1  0.08443987  0.06814751  0.08786609  1
  Te  Te73  1  0.09433059  0.07359410  0.42688239  1
  Te  Te74  1  0.08704915  0.07274430  0.75078809  1
  Te  Te75  1  0.08406332  0.43521701  0.06199179  1
  Te  Te76  1  0.08967899  0.41056279  0.42568987  1
  Te  Te77  1  0.08733988  0.42947071  0.75388910  1
  Te  Te78  1  0.12707894  0.75259946  0.08889587  1
  Te  Te79  1  0.11906489  0.76107724  0.39274745  1
  Te  Te80  1  0.09348092  0.77222189  0.73502811  1
  Te  Te81  1  0.42511546  0.08331703  0.07236408  1
  Te  Te82  1  0.39399119  0.06155433  0.38827159  1
  Te  Te83  1  0.44428084  0.07407903  0.77282176  1
  Te  Te84  1  0.41248415  0.42865632  0.08395634  1
  Te  Te85  1  0.42034398  0.38952874  0.44317779  1
  Te  Te86  1  0.43319893  0.43634577  0.74690407  1
  Te  Te87  1  0.39451246  0.77461393  0.07782335  1
  Te  Te88  1  0.40661144  0.73696360  0.40901806  1
  Te  Te89  1  0.40784833  0.74842157  0.75274815  1
  Te  Te90  1  0.74933350  0.08771965  0.06998906  1
  Te  Te91  1  0.75758746  0.09768086  0.40598496  1
  Te  Te92  1  0.75136167  0.09355412  0.73773799  1
  Te  Te93  1  0.74529076  0.42872653  0.09294230  1
  Te  Te94  1  0.73852322  0.42423244  0.42619238  1
  Te  Te95  1  0.75520446  0.39769632  0.76783214  1
  Te  Te96  1  0.74915176  0.76729358  0.05741654  1
  Te  Te97  1  0.74741416  0.75476547  0.41094812  1
  Te  Te98  1  0.73875811  0.77746823  0.75219118  1
  Te  Te99  1  0.10265805  0.24186928  0.25597369  1
  Te  Te100  1  0.08035699  0.25579318  0.58329736  1
  Te  Te101  1  0.08173171  0.26456376  0.93646333  1
  Te  Te102  1  0.11543883  0.59407070  0.21287267  1
  Te  Te103  1  0.09581624  0.57294314  0.59615329  1
  Te  Te104  1  0.11685104  0.56842436  0.92775478  1
  Te  Te105  1  0.11298020  0.90403747  0.25016177  1
  Te  Te106  1  0.10194995  0.89867414  0.56911948  1
  Te  Te107  1  0.11056062  0.88658420  0.93972527  1
  Te  Te108  1  0.43167902  0.25405186  0.24564645  1
  Te  Te109  1  0.42987127  0.24245707  0.59232270  1
  Te  Te110  1  0.39247862  0.26828651  0.93300582  1
  Te  Te111  1  0.41311758  0.58250476  0.24768978  1
  Te  Te112  1  0.43840272  0.58105033  0.59165534  1
  Te  Te113  1  0.39530980  0.61407041  0.93461684  1
  Te  Te114  1  0.37175818  0.90726842  0.26263083  1
  Te  Te115  1  0.40807739  0.89355181  0.57028007  1
  Te  Te116  1  0.44970703  0.88138041  0.96022186  1
  Te  Te117  1  0.75081288  0.25519800  0.25119563  1
  Te  Te118  1  0.74918272  0.26009113  0.59331058  1
  Te  Te119  1  0.76085197  0.23868356  0.92324615  1
  Te  Te120  1  0.75356856  0.59357137  0.26989746  1
  Te  Te121  1  0.72999742  0.57802718  0.58883133  1
  Te  Te122  1  0.73702378  0.58194505  0.92069590  1
  Te  Te123  1  0.73994843  0.90712665  0.21818409  1
  Te  Te124  1  0.75186182  0.91794810  0.59778630  1
  Te  Te125  1  0.75001492  0.90562630  0.92944748  1
  Te  Te126  1  0.24412307  0.24707194  0.08624048  1
  Te  Te127  1  0.24293022  0.22264574  0.40342593  1
  Te  Te128  1  0.23733261  0.24200144  0.75690539  1
  Te  Te129  1  0.19127042  0.53466621  0.08797813  1
  Te  Te130  1  0.24623377  0.57014392  0.41263557  1
  Te  Te131  1  0.24045264  0.57932379  0.74988179  1
  Te  Te132  1  0.30816442  0.90449700  0.06158497  1
  Te  Te133  1  0.19608294  0.95869716  0.45770449  1
  Te  Te134  1  0.25335113  0.90866534  0.74924160  1
  Te  Te135  1  0.55999829  0.23104332  0.05893626  1
  Te  Te136  1  0.58000746  0.25760339  0.43049023  1
  Te  Te137  1  0.58155531  0.25122088  0.74407050  1
  Te  Te138  1  0.59016440  0.59436149  0.08444260  1
  Te  Te139  1  0.57784202  0.53894843  0.44219659  1
  Te  Te140  1  0.55854970  0.61058449  0.77570736  1
  Te  Te141  1  0.56978216  0.90055915  0.08691934  1
  Te  Te142  1  0.58238895  0.92153950  0.41550047  1
  Te  Te143  1  0.57859636  0.90766761  0.78459268  1
  Te  Te144  1  0.91553130  0.25863274  0.07165145  1
  Te  Te145  1  0.89408183  0.26137346  0.41565640  1
  Te  Te146  1  0.90222187  0.24309457  0.74927250  1
  Te  Te147  1  0.92821708  0.58454457  0.09230632  1
  Te  Te148  1  0.92674482  0.60181105  0.41552866  1
  Te  Te149  1  0.91668789  0.58581203  0.74508793  1
  Te  Te150  1  0.91552307  0.90993621  0.06989648  1
  Te  Te151  1  0.92543758  0.92560570  0.41891221  1
  Te  Te152  1  0.92039411  0.92470981  0.75666546  1
  Te  Te153  1  0.23949405  0.07366298  0.24823582  1
  Te  Te154  1  0.26102267  0.05235869  0.57335585  1
  Te  Te155  1  0.27970219  0.05852511  0.93200332  1
  Te  Te156  1  0.27491312  0.42073632  0.23324110  1
  Te  Te157  1  0.24951215  0.42396674  0.60605040  1
  Te  Te158  1  0.28885117  0.40113931  0.93641656  1
  Te  Te159  1  0.24201382  0.75019046  0.19665932  1
  Te  Te160  1  0.25681789  0.76621622  0.57651129  1
  Te  Te161  1  0.27361487  0.72880807  0.93208447  1
  Te  Te162  1  0.57741868  0.07521485  0.24001157  1
  Te  Te163  1  0.56637294  0.08481596  0.59383698  1
  Te  Te164  1  0.55724196  0.07957766  0.90999813  1
  Te  Te165  1  0.54786436  0.43793477  0.26989136  1
  Te  Te166  1  0.57660642  0.45838155  0.57764655  1
  Te  Te167  1  0.58740900  0.41987822  0.91872421  1
  Te  Te168  1  0.59287437  0.75140286  0.24294770  1
  Te  Te169  1  0.56270389  0.73468573  0.57027306  1
  Te  Te170  1  0.55381567  0.78654732  0.89209042  1
  Te  Te171  1  0.91294449  0.09923317  0.25984919  1
  Te  Te172  1  0.91735524  0.10079896  0.59622744  1
  Te  Te173  1  0.91681529  0.09548493  0.91932353  1
  Te  Te174  1  0.95175969  0.43715559  0.24015667  1
  Te  Te175  1  0.89996062  0.40258970  0.56938735  1
  Te  Te176  1  0.91267675  0.39555623  0.91027695  1
  Te  Te177  1  0.92075788  0.74937459  0.24403696  1
  Te  Te178  1  0.89973215  0.77015383  0.59268058  1
  Te  Te179  1  0.92233221  0.73277588  0.92369103  1
