# generated using pymatgen
data_In2Te3
_symmetry_space_group_name_H-M   'P 1'
_cell_length_a   18.92220086
_cell_length_b   18.95000562
_cell_length_c   18.92418486
_cell_angle_alpha   89.96089724
_cell_angle_beta   89.87405016
_cell_angle_gamma   90.10956417
_symmetry_Int_Tables_number   1
_chemical_formula_structural   In2Te3
_chemical_formula_sum   'In72 Te108'
_cell_volume   6785.72456096
_cell_formula_units_Z   36
loop_
 _symmetry_equiv_pos_site_id
 _symmetry_equiv_pos_as_xyz
  1  'x, y, z'
loop_
 _atom_site_type_symbol
 _atom_site_label
 _atom_site_symmetry_multiplicity
 _atom_site_fract_x
 _atom_site_fract_y
 _atom_site_fract_z
 _atom_site_occupancy
  In  In0  1  0.83818766  0.32822206  0.53046392  1
  In  In1  1  0.65595955  0.31867276  -0.00346815  1
  In  In2  1  0.67061516  0.63970554  0.01320069  1
  In  In3  1  -0.00336805  0.81092653  0.80052304  1
  In  In4  1  0.81028504  -0.00011028  0.83182694  1
  In  In5  1  0.32277157  0.01916801  0.60573145  1
  In  In6  1  0.01224377  0.34289122  0.32391354  1
  In  In7  1  0.46052240  0.50814929  -0.04445930  1
  In  In8  1  0.64386551  0.51957673  0.79778313  1
  In  In9  1  0.31673614  0.32481308  0.35250373  1
  In  In10  1  0.51347909  0.34983768  0.17116594  1
  In  In11  1  0.80399638  0.15542600  0.66573019  1
  In  In12  1  0.80524911  0.29538443  0.18627067  1
  In  In13  1  -0.00381611  0.16207856  0.83572809  1
  In  In14  1  0.80598383  0.05822386  0.22192564  1
  In  In15  1  0.81120383  0.67903975  0.82618434  1
  In  In16  1  0.35018239  0.49879722  0.15631970  1
  In  In17  1  0.51242019  0.13614561  0.64622818  1
  In  In18  1  0.33695353  0.67610668  0.66467332  1
  In  In19  1  0.15977668  -0.00951628  0.80197196  1
  In  In20  1  -0.01855521  0.00922934  0.68867416  1
  In  In21  1  0.66260825  0.00554092  0.35336678  1
  In  In22  1  0.64408398  0.80349298  0.81545999  1
  In  In23  1  0.03639241  -0.01198269  0.02625528  1
  In  In24  1  -0.01558390  0.83058152  0.16846697  1
  In  In25  1  0.49532683  0.29292671  0.49592196  1
  In  In26  1  0.66842925  0.66797337  0.33649373  1
  In  In27  1  0.34179242  0.51115267  0.51481351  1
  In  In28  1  0.15024485  0.17420189  0.35220896  1
  In  In29  1  0.01243869  0.35685418  0.68042800  1
  In  In30  1  0.19184159  0.49043097  0.67103694  1
  In  In31  1  0.51154501  0.49969441  0.32013485  1
  In  In32  1  0.65888175  0.85975039  0.17401273  1
  In  In33  1  0.16938581  0.80655412  0.63678119  1
  In  In34  1  0.83161683  0.66039398  0.50608135  1
  In  In35  1  0.67082780  0.48590490  0.13547931  1
  In  In36  1  0.48000684  0.32565373  0.83190724  1
  In  In37  1  0.83565456  0.16438600  0.00435735  1
  In  In38  1  0.01868529  0.67854297  0.32703357  1
  In  In39  1  0.17726149  0.18291021  -0.00605517  1
  In  In40  1  0.50298493  0.80053030  0.00514646  1
  In  In41  1  0.86984777  0.66825880  0.17374915  1
  In  In42  1  0.31880500  0.17408335  0.16425413  1
  In  In43  1  -0.02041581  -0.00759034  0.34729464  1
  In  In44  1  0.65435280  0.00269535  -0.01764055  1
  In  In45  1  0.50905742  0.14829325  0.33051078  1
  In  In46  1  0.83841738  0.50038904  0.66759564  1
  In  In47  1  0.63575243  0.49586466  0.49562747  1
  In  In48  1  0.20751980  0.48219552  -0.02362164  1
  In  In49  1  0.84049741  0.32657234  0.84831372  1
  In  In50  1  0.04125503  0.64848972  0.00321386  1
  In  In51  1  0.00058313  0.17309918  0.50368903  1
  In  In52  1  0.67151506  0.86195175  0.52387577  1
  In  In53  1  0.48627536  0.68302371  0.18941352  1
  In  In54  1  -0.00687798  0.33944177  0.00538282  1
  In  In55  1  -0.00174302  0.84315078  0.49666255  1
  In  In56  1  0.34833392  0.01652478  0.01054672  1
  In  In57  1  0.30853995  0.82007276  0.82717601  1
  In  In58  1  0.20244096  0.84278716  0.33388186  1
  In  In59  1  0.82957739  0.50351297  0.34743394  1
  In  In60  1  0.49143460  0.00492481  0.84720334  1
  In  In61  1  0.01079556  0.49993132  0.15785447  1
  In  In62  1  0.19190531  0.52050399  0.33545051  1
  In  In63  1  0.17930552  -0.00009658  0.15744265  1
  In  In64  1  0.34795496  -0.01700035  0.35378584  1
  In  In65  1  0.02229187  0.64514808  0.65045699  1
  In  In66  1  0.84527384  0.82738807  0.01130310  1
  In  In67  1  0.49421757  0.84818567  0.65364572  1
  In  In68  1  0.32528070  0.17421631  0.82404323  1
  In  In69  1  0.17908279  0.33970697  0.48181601  1
  In  In70  1  0.65366363  0.31767775  0.65496578  1
  In  In71  1  0.18701012  0.84660805  0.00421757  1
  Te  Te72  1  0.09026663  0.10880463  0.09709188  1
  Te  Te73  1  0.08328970  0.06624036  0.43514310  1
  Te  Te74  1  0.09309304  0.10652723  0.73205451  1
  Te  Te75  1  0.10337597  0.41475595  0.07636021  1
  Te  Te76  1  0.08771548  0.43902361  0.41302663  1
  Te  Te77  1  0.08547818  0.44937701  0.76850275  1
  Te  Te78  1  0.09436330  0.75977838  0.09243845  1
  Te  Te79  1  0.10015212  0.76050098  0.42158869  1
  Te  Te80  1  0.11038323  0.72528837  0.75064916  1
  Te  Te81  1  0.42718441  0.09365514  0.10538619  1
  Te  Te82  1  0.42203314  0.08523475  0.43271059  1
  Te  Te83  1  0.40183131  0.06847720  0.74122124  1
  Te  Te84  1  0.42256278  0.40509012  0.05969864  1
  Te  Te85  1  0.42311442  0.41503373  0.41607022  1
  Te  Te86  1  0.39767005  0.44106970  0.78666314  1
  Te  Te87  1  0.39886856  0.73137892  0.08224960  1
  Te  Te88  1  0.36948835  0.79833745  0.35077991  1
  Te  Te89  1  0.42702211  0.75704645  0.75838498  1
  Te  Te90  1  0.73758948  0.08092726  0.08346081  1
  Te  Te91  1  0.78001716  0.10263006  0.36799136  1
  Te  Te92  1  0.71216293  0.07392140  0.74965174  1
  Te  Te93  1  0.76852331  0.39159389  0.07096184  1
  Te  Te94  1  0.74854985  0.41242026  0.43613541  1
  Te  Te95  1  0.74735920  0.40184252  0.74252399  1
  Te  Te96  1  0.74184492  0.74863627  0.09484759  1
  Te  Te97  1  0.74529750  0.75714984  0.43009744  1
  Te  Te98  1  0.73396257  0.74021713  0.71805235  1
  Te  Te99  1  0.11328176  0.26991529  0.24774432  1
  Te  Te100  1  0.08898183  0.26748857  0.58356838  1
  Te  Te101  1  0.08247562  0.26346332  0.90506217  1
  Te  Te102  1  0.10209603  0.59421268  0.23411508  1
  Te  Te103  1  0.13096460  0.58449140  0.57148506  1
  Te  Te104  1  0.10125700  0.55967111  0.90276942  1
  Te  Te105  1  0.08311615  0.91866331  0.24546460  1
  Te  Te106  1  0.07485612  0.91979636  0.60383004  1
  Te  Te107  1  0.07750634  0.90067503  0.89779998  1
  Te  Te108  1  0.41821485  0.26176707  0.25777467  1
  Te  Te109  1  0.41831576  0.24433310  0.61105662  1
  Te  Te110  1  0.42761336  0.21932983  0.92164160  1
  Te  Te111  1  0.39908894  0.58761298  0.27160523  1
  Te  Te112  1  0.44002262  0.58055091  0.60563702  1
  Te  Te113  1  0.36111107  0.59976081  0.89842934  1
  Te  Te114  1  0.39782875  0.89910412  0.24280033  1
  Te  Te115  1  0.43581910  0.93944519  0.54928858  1
  Te  Te116  1  0.40864204  0.89942963  0.91895386  1
  Te  Te117  1  0.72372956  0.22087515  0.28435395  1
  Te  Te118  1  0.72629421  0.22717358  0.55744281  1
  Te  Te119  1  0.74181323  0.22775173  0.90386227  1
  Te  Te120  1  0.75228277  0.58681268  0.23712685  1
  Te  Te121  1  0.73448068  0.57320794  0.58446710  1
  Te  Te122  1  0.74872657  0.56669010  0.90591311  1
  Te  Te123  1  0.76032772  0.91753938  0.26594782  1
  Te  Te124  1  0.70677754  0.98703457  0.59844838  1
  Te  Te125  1  0.73890894  0.88602211  0.91954384  1
  Te  Te126  1  0.26802030  0.27086677  0.06666668  1
  Te  Te127  1  0.26999934  0.21127917  0.44898845  1
  Te  Te128  1  0.23661157  0.28086937  0.78112175  1
  Te  Te129  1  0.25511247  0.57772225  0.07787939  1
  Te  Te130  1  0.25187381  0.60379873  0.44265161  1
  Te  Te131  1  0.28534483  0.57160548  0.76531682  1
  Te  Te132  1  0.28687203  0.90715297  0.10315153  1
  Te  Te133  1  0.23639547  0.93835857  0.44025865  1
  Te  Te134  1  0.26192068  0.91720676  0.71737363  1
  Te  Te135  1  0.59493668  0.24608125  0.10779745  1
  Te  Te136  1  0.59693892  0.24999079  0.39682155  1
  Te  Te137  1  0.57193986  0.23492341  0.75105664  1
  Te  Te138  1  0.55739713  0.57547437  0.09249978  1
  Te  Te139  1  0.55916712  0.60434204  0.42117006  1
  Te  Te140  1  0.53645657  0.58532175  0.72863570  1
  Te  Te141  1  0.56251786  0.92118907  0.07536099  1
  Te  Te142  1  0.56724931  0.91879259  0.43111378  1
  Te  Te143  1  0.58156262  0.92617271  0.75363084  1
  Te  Te144  1  0.92080774  0.24302781  0.10090097  1
  Te  Te145  1  0.91852246  0.26540906  0.41553504  1
  Te  Te146  1  0.91127419  0.24487637  0.73243325  1
  Te  Te147  1  0.91696726  0.57727568  0.06513890  1
  Te  Te148  1  0.93255738  0.58799034  0.41784593  1
  Te  Te149  1  0.91662632  0.59602618  0.75316322  1
  Te  Te150  1  0.90686396  0.93782350  0.09438564  1
  Te  Te151  1  0.89105563  0.92907639  0.44596591  1
  Te  Te152  1  0.88726898  0.90189422  0.74398763  1
  Te  Te153  1  0.24673999  0.08398596  0.26521987  1
  Te  Te154  1  0.24022575  0.13515092  0.58167197  1
  Te  Te155  1  0.23350313  0.05998305  0.91530944  1
  Te  Te156  1  0.25636013  0.41553039  0.24716663  1
  Te  Te157  1  0.27568744  0.39478283  0.58626010  1
  Te  Te158  1  0.28103192  0.39025376  0.87445909  1
  Te  Te159  1  0.27340776  0.74572341  0.25018594  1
  Te  Te160  1  0.28859601  0.76899864  0.56108311  1
  Te  Te161  1  0.24986130  0.73321404  0.93205740  1
  Te  Te162  1  0.56808771  0.04355946  0.24606228  1
  Te  Te163  1  0.58551853  0.05569007  0.54193357  1
  Te  Te164  1  0.56155445  0.10526522  0.92997754  1
  Te  Te165  1  0.62109460  0.41526019  0.26048055  1
  Te  Te166  1  0.55411143  0.40739356  0.58783155  1
  Te  Te167  1  0.58682452  0.42388009  0.91022977  1
  Te  Te168  1  0.57888661  0.77243440  0.26982936  1
  Te  Te169  1  0.58873572  0.75671724  0.58622169  1
  Te  Te170  1  0.57742053  0.70699979  0.91184315  1
  Te  Te171  1  0.93809162  0.10665999  0.26490316  1
  Te  Te172  1  0.90420999  0.08056177  0.57915446  1
  Te  Te173  1  0.92065277  0.06064860  0.91970995  1
  Te  Te174  1  0.90354794  0.42254934  0.24109160  1
  Te  Te175  1  0.93783869  0.43553315  0.57343725  1
  Te  Te176  1  0.92568019  0.42686858  0.90856260  1
  Te  Te177  1  0.90385891  0.76737712  0.28169647  1
  Te  Te178  1  0.92548138  0.74497646  0.58988522  1
  Te  Te179  1  0.93192997  0.73940588  0.92457620  1
