# generated using pymatgen
data_In2Te3
_symmetry_space_group_name_H-M   'P 1'
_cell_length_a   18.78811194
_cell_length_b   18.78171762
_cell_length_c   18.78793002
_cell_angle_alpha   90.01479059
_cell_angle_beta   89.98161894
_cell_angle_gamma   90.05753128
_symmetry_Int_Tables_number   1
_chemical_formula_structural   In2Te3
_chemical_formula_sum   'In72 Te108'
_cell_volume   6629.74957375
_cell_formula_units_Z   36
loop_
 _symmetry_equiv_pos_site_id
 _symmetry_equiv_pos_as_xyz
  1  'x, y, z'
loop_
 _atom_site_type_symbol
 _atom_site_label
 _atom_site_symmetry_multiplicity
 _atom_site_fract_x
 _atom_site_fract_y
 _atom_site_fract_z
 _atom_site_occupancy
  In  In0  1  0.50173373  -0.02029935  0.17127007  1
  In  In1  1  0.31890884  0.49549832  0.16627325  1
  In  In2  1  0.83815268  0.84362816  0.65250354  1
  In  In3  1  0.68183090  0.14841332  0.48129146  1
  In  In4  1  0.66393954  0.66601223  0.65231984  1
  In  In5  1  0.49518240  0.34404729  0.83446071  1
  In  In6  1  0.85001951  0.33520080  0.50862914  1
  In  In7  1  0.02420978  0.31781432  0.33257607  1
  In  In8  1  0.50511030  0.65594098  0.16556279  1
  In  In9  1  0.15994294  0.49837247  0.66131229  1
  In  In10  1  0.47878491  0.16302390  0.35340776  1
  In  In11  1  0.65751153  0.82290679  0.15291622  1
  In  In12  1  -0.00556762  0.34205015  0.01027541  1
  In  In13  1  0.17526801  0.00800452  0.51348670  1
  In  In14  1  0.50054612  0.83105122  0.32294792  1
  In  In15  1  0.32013836  0.66223650  0.31392564  1
  In  In16  1  0.83804267  0.15066642  -0.00061752  1
  In  In17  1  0.65436579  0.00011385  0.66602964  1
  In  In18  1  0.65079111  0.35654112  0.30238254  1
  In  In19  1  0.80971019  0.63821530  0.86884022  1
  In  In20  1  0.69047840  0.80926874  0.48623521  1
  In  In21  1  0.48217308  0.00175901  0.50255511  1
  In  In22  1  -0.01159488  0.49120341  0.84086312  1
  In  In23  1  0.83621031  0.52393014  0.33530221  1
  In  In24  1  0.53015103  0.16741708  0.01111427  1
  In  In25  1  0.33520820  0.18158341  0.17880398  1
  In  In26  1  0.32217142  0.83649594  0.82398506  1
  In  In27  1  0.33483182  0.33502240  -0.00153960  1
  In  In28  1  -0.01021156  0.68996330  0.66018817  1
  In  In29  1  0.33770153  -0.00571804  -0.01833527  1
  In  In30  1  0.84888623  -0.00525193  0.82050015  1
  In  In31  1  0.17038963  0.30775713  0.50633512  1
  In  In32  1  0.32869574  0.83277563  0.18470849  1
  In  In33  1  0.86939892  0.16052066  0.66431584  1
  In  In34  1  0.32594433  0.85852934  0.49978392  1
  In  In35  1  0.65542874  0.18780820  0.83727546  1
  In  In36  1  0.52479227  0.66632791  0.48669154  1
  In  In37  1  0.16788746  0.50415328  0.32275271  1
  In  In38  1  0.17510370  0.17859728  0.33498157  1
  In  In39  1  0.51203269  0.50846785  -0.00220952  1
  In  In40  1  0.82035622  0.33903988  0.16219341  1
  In  In41  1  0.68790739  -0.00065144  0.32806470  1
  In  In42  1  0.51359247  0.66536503  0.83349787  1
  In  In43  1  -0.01884156  0.50615817  0.51334392  1
  In  In44  1  0.33817917  0.48683297  0.47761550  1
  In  In45  1  0.14655773  0.83623048  -0.00753896  1
  In  In46  1  0.84824368  0.84307446  0.00997079  1
  In  In47  1  0.67575372  0.32142600  0.00560516  1
  In  In48  1  0.35158363  0.65329934  0.01783394  1
  In  In49  1  0.85664267  0.67316134  0.18823754  1
  In  In50  1  0.33183473  0.16346667  0.80468776  1
  In  In51  1  0.48815561  0.50330585  0.68485309  1
  In  In52  1  0.47690715  0.31632042  0.51068964  1
  In  In53  1  0.00070530  0.16206148  0.51164641  1
  In  In54  1  -0.02049303  -0.02995401  0.34148785  1
  In  In55  1  -0.00008997  0.51600142  0.16722189  1
  In  In56  1  0.68041083  0.17109795  0.16151994  1
  In  In57  1  0.17440261  0.50644175  0.01640735  1
  In  In58  1  0.14856508  0.15693883  0.01847356  1
  In  In59  1  0.16527733  0.66213882  0.81281216  1
  In  In60  1  0.15881019  0.85185733  0.65850512  1
  In  In61  1  0.14315050  0.01117215  0.17622293  1
  In  In62  1  0.48668599  0.01124853  0.83192337  1
  In  In63  1  0.67248848  0.51290556  0.50793852  1
  In  In64  1  0.17226389  0.31209668  0.85410870  1
  In  In65  1  0.66616731  0.33339337  0.68732556  1
  In  In66  1  0.85562612  -0.00684788  0.16822742  1
  In  In67  1  0.13137164  0.02078968  0.80687171  1
  In  In68  1  0.66702479  0.82032849  0.84197200  1
  In  In69  1  0.31488971  0.68560584  0.64674394  1
  In  In70  1  0.82244722  0.49454360  0.64962449  1
  In  In71  1  -0.01348572  0.68736570  0.01392105  1
  Te  Te72  1  0.04763974  0.06029957  0.07213031  1
  Te  Te73  1  0.08163598  0.08103389  0.40767972  1
  Te  Te74  1  0.04646743  0.11909698  0.73141747  1
  Te  Te75  1  0.09341679  0.41194512  0.10379606  1
  Te  Te76  1  0.08231009  0.42213150  0.43189267  1
  Te  Te77  1  0.08872161  0.40911958  0.76201707  1
  Te  Te78  1  0.08552609  0.75439967  0.09937960  1
  Te  Te79  1  0.03704458  0.71021165  0.37210918  1
  Te  Te80  1  0.07566744  0.77036233  0.75986780  1
  Te  Te81  1  0.41579374  0.08350993  0.08172740  1
  Te  Te82  1  0.37603127  0.09279351  0.44115054  1
  Te  Te83  1  0.41176462  0.07159257  0.72019154  1
  Te  Te84  1  0.42617091  0.41851312  0.08649634  1
  Te  Te85  1  0.44737437  0.41783649  0.40466720  1
  Te  Te86  1  0.39851819  0.39957346  0.73862064  1
  Te  Te87  1  0.42788419  0.76475097  0.09014753  1
  Te  Te88  1  0.41149702  0.74569647  0.41499724  1
  Te  Te89  1  0.41677381  0.74651942  0.74306147  1
  Te  Te90  1  0.74497786  0.06103096  0.08171828  1
  Te  Te91  1  0.78714623  0.07498106  0.40842171  1
  Te  Te92  1  0.74446919  0.09296101  0.75003297  1
  Te  Te93  1  0.73607861  0.43332562  0.08539089  1
  Te  Te94  1  0.75369691  0.41372488  0.41936372  1
  Te  Te95  1  0.77091609  0.40885877  0.75768152  1
  Te  Te96  1  0.76410725  0.73979288  0.08186497  1
  Te  Te97  1  0.78165201  0.76008468  0.38188425  1
  Te  Te98  1  0.76007882  0.74342819  0.74553451  1
  Te  Te99  1  0.08381462  0.23167369  0.22979833  1
  Te  Te100  1  0.09327069  0.22907370  0.60904561  1
  Te  Te101  1  0.05856360  0.23503507  0.92039514  1
  Te  Te102  1  0.07736473  0.60630034  0.25781268  1
  Te  Te103  1  0.08458947  0.60065465  0.57839736  1
  Te  Te104  1  0.08327696  0.59040044  0.92293393  1
  Te  Te105  1  0.08924757  0.90327389  0.26331260  1
  Te  Te106  1  0.06266866  0.93675747  0.58200637  1
  Te  Te107  1  0.07033118  0.92807548  0.90597941  1
  Te  Te108  1  0.42634455  0.26398007  0.25922636  1
  Te  Te109  1  0.37856203  0.22275979  0.56785743  1
  Te  Te110  1  0.41963213  0.23114305  0.92205217  1
  Te  Te111  1  0.42702248  0.56594823  0.26203020  1
  Te  Te112  1  0.42156733  0.58900309  0.57414266  1
  Te  Te113  1  0.41148628  0.57287991  0.90264128  1
  Te  Te114  1  0.40087495  0.93590015  0.27637696  1
  Te  Te115  1  0.41701182  0.91229835  0.60147688  1
  Te  Te116  1  0.43064793  0.89383671  0.91664705  1
  Te  Te117  1  0.75515149  0.24911363  0.26801670  1
  Te  Te118  1  0.75038180  0.24738632  0.58766672  1
  Te  Te119  1  0.77288920  0.25434917  0.90755963  1
  Te  Te120  1  0.74715952  0.58442874  0.23622521  1
  Te  Te121  1  0.77493287  0.61234226  0.56248850  1
  Te  Te122  1  0.72614996  0.54992811  0.95017901  1
  Te  Te123  1  0.75865665  0.89775941  0.24131620  1
  Te  Te124  1  0.74503942  0.92966835  0.56620375  1
  Te  Te125  1  0.75445877  0.91984243  0.91701565  1
  Te  Te126  1  0.23821204  0.25942871  0.08926541  1
  Te  Te127  1  0.27319981  0.26207874  0.41037111  1
  Te  Te128  1  0.23975715  0.25472970  0.73532435  1
  Te  Te129  1  0.23618174  0.61143855  0.10937200  1
  Te  Te130  1  0.24141237  0.59182092  0.42545502  1
  Te  Te131  1  0.26687968  0.57519675  0.74180461  1
  Te  Te132  1  0.24798828  0.92362790  0.08297474  1
  Te  Te133  1  0.22423071  0.91271583  0.40831999  1
  Te  Te134  1  0.24730323  0.94305220  0.74346139  1
  Te  Te135  1  0.57487850  0.27088619  0.11199654  1
  Te  Te136  1  0.59242222  0.25557065  0.41549129  1
  Te  Te137  1  0.55470201  0.24039304  0.73624208  1
  Te  Te138  1  0.60644043  0.60113082  0.06796178  1
  Te  Te139  1  0.60554685  0.58302236  0.39617661  1
  Te  Te140  1  0.60621096  0.57000421  0.75477026  1
  Te  Te141  1  0.58603276  0.92039613  0.06776158  1
  Te  Te142  1  0.58678051  0.91975385  0.41601918  1
  Te  Te143  1  0.57500607  0.90630394  0.75553294  1
  Te  Te144  1  0.91591905  0.24092793  0.09689442  1
  Te  Te145  1  0.91705738  0.24144787  0.41030255  1
  Te  Te146  1  0.94425678  0.23052381  0.76791896  1
  Te  Te147  1  0.90196576  0.57508087  0.07014578  1
  Te  Te148  1  0.92353535  0.61147086  0.42131161  1
  Te  Te149  1  0.91290480  0.58639596  0.74628290  1
  Te  Te150  1  0.95337877  0.90973934  0.09115565  1
  Te  Te151  1  0.89005724  0.86879471  0.40948048  1
  Te  Te152  1  0.93910640  0.92665618  0.72501320  1
  Te  Te153  1  0.25727841  0.07528956  0.25488166  1
  Te  Te154  1  0.27922822  0.09977144  0.56969109  1
  Te  Te155  1  0.23885267  0.08801241  0.91254246  1
  Te  Te156  1  0.25043470  0.40179757  0.25726150  1
  Te  Te157  1  0.25713661  0.41076965  0.58209351  1
  Te  Te158  1  0.25528222  0.43102269  0.91125581  1
  Te  Te159  1  0.22873590  0.77328768  0.27731922  1
  Te  Te160  1  0.21800771  0.75653802  0.55565422  1
  Te  Te161  1  0.25459393  0.73801147  0.92196191  1
  Te  Te162  1  0.58005298  0.08859214  0.25357446  1
  Te  Te163  1  0.57562178  0.09790065  0.57852093  1
  Te  Te164  1  0.60010878  0.07073825  0.91783341  1
  Te  Te165  1  0.55349849  0.45527016  0.25808613  1
  Te  Te166  1  0.58206848  0.41732104  0.58649270  1
  Te  Te167  1  0.60196722  0.41961371  0.90865784  1
  Te  Te168  1  0.59765497  0.73328566  0.26256990  1
  Te  Te169  1  0.57754051  0.77081556  0.58491036  1
  Te  Te170  1  0.59392491  0.73311987  0.93725519  1
  Te  Te171  1  0.91878038  0.08382571  0.26659495  1
  Te  Te172  1  0.91527640  0.05474433  0.57234739  1
  Te  Te173  1  0.93183024  0.06240849  0.92463186  1
  Te  Te174  1  0.92235645  0.41495741  0.26005609  1
  Te  Te175  1  0.94080519  0.39612637  0.61199927  1
  Te  Te176  1  0.89700485  0.41866052  0.93000211  1
  Te  Te177  1  0.93671055  0.76995198  0.27327845  1
  Te  Te178  1  0.93654992  0.78250989  0.55561205  1
  Te  Te179  1  0.90881484  0.75208606  0.89995313  1
