# generated using pymatgen
data_In2Te3
_symmetry_space_group_name_H-M   'P 1'
_cell_length_a   18.76255153
_cell_length_b   18.76921485
_cell_length_c   18.77033964
_cell_angle_alpha   90.00863482
_cell_angle_beta   90.02024640
_cell_angle_gamma   90.01904147
_symmetry_Int_Tables_number   1
_chemical_formula_structural   In2Te3
_chemical_formula_sum   'In72 Te108'
_cell_volume   6610.13118757
_cell_formula_units_Z   36
loop_
 _symmetry_equiv_pos_site_id
 _symmetry_equiv_pos_as_xyz
  1  'x, y, z'
loop_
 _atom_site_type_symbol
 _atom_site_label
 _atom_site_symmetry_multiplicity
 _atom_site_fract_x
 _atom_site_fract_y
 _atom_site_fract_z
 _atom_site_occupancy
  In  In0  1  0.84805473  0.67470586  0.83023765  1
  In  In1  1  0.16473091  0.49720538  0.68130968  1
  In  In2  1  0.66742373  -0.00259812  0.66024944  1
  In  In3  1  -0.01286760  0.15548622  0.52262844  1
  In  In4  1  0.00698786  0.66086559  0.69018916  1
  In  In5  1  0.35885192  0.47474795  0.49285155  1
  In  In6  1  0.80420801  0.47957275  0.34541274  1
  In  In7  1  0.48146918  0.31705741  0.83883742  1
  In  In8  1  0.17422954  0.49889512  0.32436678  1
  In  In9  1  0.54465138  0.65575939  0.47830093  1
  In  In10  1  0.67521881  0.16968165  0.50058556  1
  In  In11  1  0.15397010  0.82072813  0.68289631  1
  In  In12  1  0.33279781  0.16758497  0.14910384  1
  In  In13  1  0.66790893  0.51907677  0.17701357  1
  In  In14  1  0.31659472  0.00889431  0.00341821  1
  In  In15  1  0.17921104  0.16726935  0.01106934  1
  In  In16  1  0.80667666  0.65794468  0.49967154  1
  In  In17  1  0.35304303  0.17299285  0.51272835  1
  In  In18  1  0.50175152  -0.01047806  0.16099320  1
  In  In19  1  0.00975584  0.49341183  0.15072589  1
  In  In20  1  0.35276483  0.64477677  0.67561555  1
  In  In21  1  -0.00737358  -0.00640525  -0.01234222  1
  In  In22  1  0.18234766  0.67615612  0.15500218  1
  In  In23  1  0.80759317  0.85375911  -0.03278726  1
  In  In24  1  0.49211360  0.66683921  0.83414802  1
  In  In25  1  0.48964868  0.82126322  0.00962580  1
  In  In26  1  0.14896428  0.66747349  0.51765289  1
  In  In27  1  0.35279213  0.00441884  0.65585920  1
  In  In28  1  0.82660556  0.84811682  0.66272990  1
  In  In29  1  0.65928767  0.34092846  -0.01126931  1
  In  In30  1  0.18324339  0.17676082  0.67210218  1
  In  In31  1  0.50409800  0.33837209  0.15873218  1
  In  In32  1  0.83335832  0.34720770  0.80257329  1
  In  In33  1  0.84678165  0.16468332  0.00360401  1
  In  In34  1  0.48613835  0.67121597  0.17030070  1
  In  In35  1  0.66624002  0.47917181  0.82038594  1
  In  In36  1  0.16490436  0.00072200  0.85447747  1
  In  In37  1  0.51342692  0.00337706  0.82260531  1
  In  In38  1  0.32572861  0.66755120  0.31931095  1
  In  In39  1  0.16885020  -0.02911385  0.15064317  1
  In  In40  1  0.34316156  0.50708375  0.16200161  1
  In  In41  1  -0.02219726  0.17996681  0.17339614  1
  In  In42  1  0.51716776  0.16968252  0.34050603  1
  In  In43  1  0.80683003  0.15651443  0.34259508  1
  In  In44  1  -0.01307135  0.01500519  0.33266285  1
  In  In45  1  0.67651918  0.32037125  0.34694431  1
  In  In46  1  0.66867939  0.16282739  0.15671815  1
  In  In47  1  0.66358112  0.67932747  0.66074027  1
  In  In48  1  0.18374791  0.35068318  0.14550385  1
  In  In49  1  0.51553476  0.19136138  0.66991317  1
  In  In50  1  0.81724334  0.83984558  0.34422871  1
  In  In51  1  0.00284526  0.34889252  0.32412309  1
  In  In52  1  0.34445927  0.50414297  0.83797331  1
  In  In53  1  0.84118130  0.63396313  0.16795133  1
  In  In54  1  0.34258586  0.85357817  0.50168215  1
  In  In55  1  0.65198783  0.67744114  0.00573651  1
  In  In56  1  0.65805206  0.83156355  0.17674165  1
  In  In57  1  0.84119042  0.33655761  0.50550115  1
  In  In58  1  -0.01639928  0.17765181  0.83196637  1
  In  In59  1  0.17312647  0.16894205  0.35243608  1
  In  In60  1  0.18026287  0.32890912  0.83525171  1
  In  In61  1  0.51568574  0.85605746  0.35691777  1
  In  In62  1  -0.02184463  -0.00437368  0.66575062  1
  In  In63  1  0.17740465  0.31782645  0.50796423  1
  In  In64  1  0.67505727  0.15106859  0.81206634  1
  In  In65  1  -0.00000324  0.83564342  0.15077733  1
  In  In66  1  0.00082004  0.83016224  0.49650244  1
  In  In67  1  0.83433796  0.50086670  0.00102131  1
  In  In68  1  -0.01461273  0.66551079  0.36330037  1
  In  In69  1  0.32068741  0.80689658  0.84474884  1
  In  In70  1  0.34481480  -0.01050666  0.33115403  1
  In  In71  1  0.00969431  0.51471243  0.84158549  1
  Te  Te72  1  0.07657419  0.08118779  0.09118082  1
  Te  Te73  1  0.08489696  0.07584230  0.43407667  1
  Te  Te74  1  0.08460979  0.08307354  0.75104518  1
  Te  Te75  1  0.09558739  0.42371549  0.05139867  1
  Te  Te76  1  0.09219615  0.41756302  0.42612937  1
  Te  Te77  1  0.07082056  0.40375817  0.75444336  1
  Te  Te78  1  0.08861291  0.75263208  0.06778893  1
  Te  Te79  1  0.10069738  0.75811193  0.40494061  1
  Te  Te80  1  0.07456350  0.75059750  0.78859642  1
  Te  Te81  1  0.43284855  0.08665064  0.06629973  1
  Te  Te82  1  0.43111071  0.07401560  0.42423768  1
  Te  Te83  1  0.42021022  0.10188309  0.75172282  1
  Te  Te84  1  0.42434348  0.42433966  0.06924170  1
  Te  Te85  1  0.47194795  0.40172256  0.43192370  1
  Te  Te86  1  0.43393085  0.42642764  0.74124718  1
  Te  Te87  1  0.38984925  0.73557744  0.07764158  1
  Te  Te88  1  0.41710146  0.74587689  0.41778876  1
  Te  Te89  1  0.42204464  0.76542377  0.73751234  1
  Te  Te90  1  0.75243063  0.07380950  0.07298983  1
  Te  Te91  1  0.72569835  0.05390178  0.41688193  1
  Te  Te92  1  0.77455964  0.07651029  0.72973265  1
  Te  Te93  1  0.74500759  0.41635097  0.09104079  1
  Te  Te94  1  0.71159636  0.42584041  0.45906839  1
  Te  Te95  1  0.74436543  0.42172636  0.70722746  1
  Te  Te96  1  0.75882257  0.74213887  0.09355976  1
  Te  Te97  1  0.72391314  0.75906929  0.42902776  1
  Te  Te98  1  0.74492845  0.76345433  0.76146202  1
  Te  Te99  1  0.10269889  0.25322440  0.24253514  1
  Te  Te100  1  0.07237041  0.25606420  0.60017621  1
  Te  Te101  1  0.08058722  0.24736102  0.92719488  1
  Te  Te102  1  0.07135709  0.58868402  0.25563534  1
  Te  Te103  1  0.06308655  0.56177700  0.58411402  1
  Te  Te104  1  0.10484898  0.61601826  0.89391654  1
  Te  Te105  1  0.07656393  0.91513041  0.25903872  1
  Te  Te106  1  0.08664034  0.91863497  0.58658808  1
  Te  Te107  1  0.09530501  0.89994070  0.93575670  1
  Te  Te108  1  0.42054149  0.24468161  0.24879696  1
  Te  Te109  1  0.41129330  0.28025707  0.60190656  1
  Te  Te110  1  0.39052669  0.24547753  0.92951150  1
  Te  Te111  1  0.43134640  0.56927635  0.27230160  1
  Te  Te112  1  0.43965964  0.58150055  0.57081639  1
  Te  Te113  1  0.40483150  0.60212231  0.93405334  1
  Te  Te114  1  0.41776221  0.89128252  0.23987210  1
  Te  Te115  1  0.44774119  0.91696617  0.58389881  1
  Te  Te116  1  0.41090994  0.91888656  0.91277614  1
  Te  Te117  1  0.76153667  0.25674667  0.23623899  1
  Te  Te118  1  0.75364798  0.25488763  0.59250977  1
  Te  Te119  1  0.75626409  0.25508657  0.90785227  1
  Te  Te120  1  0.74163592  0.60515735  0.27979910  1
  Te  Te121  1  0.74371268  0.56831747  0.60051074  1
  Te  Te122  1  0.73815304  0.58514935  0.91452371  1
  Te  Te123  1  0.74650274  0.92620904  0.24727435  1
  Te  Te124  1  0.72823223  0.89839913  0.56129055  1
  Te  Te125  1  0.70514091  0.94891909  0.92390534  1
  Te  Te126  1  0.28980345  0.27712675  0.04829161  1
  Te  Te127  1  0.28045289  0.26140794  0.40923402  1
  Te  Te128  1  0.27867075  0.26137700  0.74656062  1
  Te  Te129  1  0.23004950  0.55788631  0.08007825  1
  Te  Te130  1  0.24837339  0.58129335  0.43271673  1
  Te  Te131  1  0.23637600  0.60290240  0.76358784  1
  Te  Te132  1  0.26089134  0.88897142  0.07040768  1
  Te  Te133  1  0.24481060  0.92219736  0.41616628  1
  Te  Te134  1  0.25450137  0.91999728  0.75073126  1
  Te  Te135  1  0.57371230  0.23925084  0.06424629  1
  Te  Te136  1  0.56375190  0.27179683  0.44541882  1
  Te  Te137  1  0.60670685  0.27574950  0.75641861  1
  Te  Te138  1  0.56589721  0.57585692  0.07876769  1
  Te  Te139  1  0.61257974  0.54120773  0.41708209  1
  Te  Te140  1  0.57864544  0.57984050  0.74411502  1
  Te  Te141  1  0.59727206  0.91880392  0.06373918  1
  Te  Te142  1  0.62725326  0.92700137  0.42631511  1
  Te  Te143  1  0.58966545  0.90412723  0.74617478  1
  Te  Te144  1  0.92341533  0.27165332  0.07323340  1
  Te  Te145  1  0.92769134  0.24019625  0.40240510  1
  Te  Te146  1  0.90998643  0.24708767  0.72456550  1
  Te  Te147  1  0.93994288  0.59602742  0.05774779  1
  Te  Te148  1  0.91125724  0.55298644  0.43285571  1
  Te  Te149  1  0.90150923  0.56287398  0.74279281  1
  Te  Te150  1  0.89601470  0.92156124  0.08081496  1
  Te  Te151  1  0.90623307  0.93026428  0.43180258  1
  Te  Te152  1  0.92191249  0.90026780  0.76310846  1
  Te  Te153  1  0.24701007  0.07921331  0.24215646  1
  Te  Te154  1  0.24782735  0.07962108  0.57273735  1
  Te  Te155  1  0.26449251  0.10849522  0.89696986  1
  Te  Te156  1  0.27184832  0.40423668  0.25829564  1
  Te  Te157  1  0.25970158  0.41546574  0.59416942  1
  Te  Te158  1  0.23941823  0.43706680  0.91915912  1
  Te  Te159  1  0.24446456  0.76925074  0.25163466  1
  Te  Te160  1  0.25628790  0.74622835  0.59306043  1
  Te  Te161  1  0.23311551  0.70701742  0.90913733  1
  Te  Te162  1  0.59292040  0.07005619  0.25337525  1
  Te  Te163  1  0.57175992  0.08635257  0.57774485  1
  Te  Te164  1  0.60012410  0.07917175  0.92041878  1
  Te  Te165  1  0.59059207  0.41514699  0.25794614  1
  Te  Te166  1  0.50045066  0.41050262  0.59957164  1
  Te  Te167  1  0.55915095  0.42953444  0.91777458  1
  Te  Te168  1  0.57740728  0.74277043  0.26954958  1
  Te  Te169  1  0.56931010  0.76040807  0.57876766  1
  Te  Te170  1  0.58619110  0.76750818  0.90334226  1
  Te  Te171  1  0.88634270  0.07602086  0.23595409  1
  Te  Te172  1  0.87918784  0.07601200  0.58724744  1
  Te  Te173  1  0.89813644  0.06748186  0.89432701  1
  Te  Te174  1  0.90334998  0.42460911  0.23832743  1
  Te  Te175  1  0.93379383  0.43760044  0.55347285  1
  Te  Te176  1  0.91949748  0.41121908  0.91287691  1
  Te  Te177  1  0.91402503  0.74729672  0.25489199  1
  Te  Te178  1  0.91614314  0.73736367  0.58470850  1
  Te  Te179  1  0.91319762  0.75635678  0.93408283  1
