# generated using pymatgen
data_In2Te3
_symmetry_space_group_name_H-M   'P 1'
_cell_length_a   18.93544951
_cell_length_b   18.91998663
_cell_length_c   18.97154682
_cell_angle_alpha   89.99675260
_cell_angle_beta   89.90238663
_cell_angle_gamma   90.11452680
_symmetry_Int_Tables_number   1
_chemical_formula_structural   In2Te3
_chemical_formula_sum   'In72 Te108'
_cell_volume   6796.69353232
_cell_formula_units_Z   36
loop_
 _symmetry_equiv_pos_site_id
 _symmetry_equiv_pos_as_xyz
  1  'x, y, z'
loop_
 _atom_site_type_symbol
 _atom_site_label
 _atom_site_symmetry_multiplicity
 _atom_site_fract_x
 _atom_site_fract_y
 _atom_site_fract_z
 _atom_site_occupancy
  In  In0  1  0.83148504  0.00111852  0.50316153  1
  In  In1  1  0.15861981  0.52938401  0.67357131  1
  In  In2  1  0.00895863  0.46974002  0.21541942  1
  In  In3  1  0.83326759  0.82412714  -0.01431391  1
  In  In4  1  0.82385981  0.14286095  0.66440142  1
  In  In5  1  0.66880042  0.84855284  0.17438923  1
  In  In6  1  0.47571561  0.68730620  0.47704434  1
  In  In7  1  0.16048507  0.31637016  0.49369807  1
  In  In8  1  0.81459552  0.30435601  0.18472836  1
  In  In9  1  0.50337872  0.50243975  0.31546832  1
  In  In10  1  0.20143453  0.11716616  -0.02522267  1
  In  In11  1  0.50157661  0.00191687  0.81249712  1
  In  In12  1  0.01883998  0.29132985  0.00151244  1
  In  In13  1  0.19161785  0.14333540  0.31235190  1
  In  In14  1  0.66278202  0.16485877  0.81011826  1
  In  In15  1  0.16713625  0.87933652  -0.02367583  1
  In  In16  1  0.31844242  0.66927101  0.00340754  1
  In  In17  1  0.67797564  -0.01199399  -0.00545376  1
  In  In18  1  0.46288657  0.13454459  0.31927825  1
  In  In19  1  0.05584999  0.90845753  0.74373180  1
  In  In20  1  0.68025799  0.29500422  -0.01525400  1
  In  In21  1  -0.02657152  0.02565940  -0.01417117  1
  In  In22  1  -0.00128543  0.50476377  0.82003195  1
  In  In23  1  0.18873594  0.68717497  0.51823642  1
  In  In24  1  0.84346471  0.49414641  -0.04974151  1
  In  In25  1  0.14780807  0.50639436  0.34826551  1
  In  In26  1  0.02135331  0.69595647  0.36289810  1
  In  In27  1  0.51310450  0.47417893  -0.00802108  1
  In  In28  1  0.68985104  0.48274856  0.83248276  1
  In  In29  1  0.33989584  0.49353918  0.82852213  1
  In  In30  1  0.67216772  0.14367035  0.50299622  1
  In  In31  1  -0.00337046  0.16214479  0.51989829  1
  In  In32  1  0.34541751  0.31745395  0.00338830  1
  In  In33  1  0.33602618  0.84281032  0.19863617  1
  In  In34  1  0.13962293  0.70061319  0.84588393  1
  In  In35  1  0.49324139  0.83387138  -0.02280137  1
  In  In36  1  0.51718709  0.32630872  0.48499002  1
  In  In37  1  -0.03302107  0.31983545  0.35723860  1
  In  In38  1  0.18548272  0.71173004  0.18156610  1
  In  In39  1  0.81617492  0.49063482  0.46868173  1
  In  In40  1  0.49745129  0.69305864  0.82867448  1
  In  In41  1  0.18410409  0.32868172  0.85325688  1
  In  In42  1  0.82064849  0.31078253  0.81083308  1
  In  In43  1  0.34051112  0.51461451  0.16726604  1
  In  In44  1  0.85662993  -0.00277829  0.17776677  1
  In  In45  1  0.46358645  0.13797514  0.01579710  1
  In  In46  1  0.83951001  0.68612490  0.50934321  1
  In  In47  1  0.66378301  0.67752241  0.65977359  1
  In  In48  1  0.51207570  0.17567848  0.64300931  1
  In  In49  1  0.65747451  0.13754553  0.18221117  1
  In  In50  1  0.81882749  0.66066733  0.80270787  1
  In  In51  1  0.85505039  0.67113718  0.17778590  1
  In  In52  1  0.31717670  0.00797114  0.65422026  1
  In  In53  1  0.48721349  0.01680481  0.50433899  1
  In  In54  1  0.62209059  0.68581168  0.00271984  1
  In  In55  1  0.31160206  0.33997028  0.67579836  1
  In  In56  1  0.31847644  0.72268330  0.67344831  1
  In  In57  1  0.50919327  0.50413512  0.65315458  1
  In  In58  1  0.02612331  -0.01987359  0.34329981  1
  In  In59  1  0.51177885  0.67975292  0.18934232  1
  In  In60  1  -0.01600245  0.66953582  0.00370496  1
  In  In61  1  0.51938586  0.31044338  0.20826561  1
  In  In62  1  0.65862699  0.85607440  0.51228908  1
  In  In63  1  0.33689471  0.15862653  0.47798566  1
  In  In64  1  -0.03373130  0.32642963  0.64552945  1
  In  In65  1  0.65880650  0.68654099  0.33582594  1
  In  In66  1  0.02448694  0.82434481  0.18797547  1
  In  In67  1  0.35698541  0.50572596  0.50226844  1
  In  In68  1  0.02297441  0.15573378  0.18202743  1
  In  In69  1  -0.01476470  0.67807774  0.65824686  1
  In  In70  1  0.17763383  0.33758979  0.16532231  1
  In  In71  1  0.68358220  0.47556734  0.16905756  1
  Te  Te72  1  0.08761162  0.07342533  0.07276448  1
  Te  Te73  1  0.09275758  0.09959118  0.42067703  1
  Te  Te74  1  0.13321392  0.04278273  0.74627531  1
  Te  Te75  1  0.06886381  0.40928988  0.08715655  1
  Te  Te76  1  0.06097221  0.41358157  0.43383457  1
  Te  Te77  1  0.09863543  0.41330432  0.75160221  1
  Te  Te78  1  0.09216707  0.75914185  0.06185320  1
  Te  Te79  1  0.10260508  0.78802101  0.44760164  1
  Te  Te80  1  0.10126381  0.75883379  0.71549300  1
  Te  Te81  1  0.35756348  0.05386562  0.07955243  1
  Te  Te82  1  0.36079282  0.02300944  0.41137888  1
  Te  Te83  1  0.41715915  0.09849048  0.73174724  1
  Te  Te84  1  0.42923907  0.40826198  0.10358790  1
  Te  Te85  1  0.41902920  0.40986534  0.40227704  1
  Te  Te86  1  0.43107268  0.40912803  0.74487410  1
  Te  Te87  1  0.41687559  0.74915141  0.08921648  1
  Te  Te88  1  0.38032064  0.78132223  0.41953187  1
  Te  Te89  1  0.42225824  0.79519716  0.75283725  1
  Te  Te90  1  0.75985186  0.07506437  0.08930869  1
  Te  Te91  1  0.72777856  0.04563799  0.40603245  1
  Te  Te92  1  0.73787881  0.05622488  0.74735386  1
  Te  Te93  1  0.75678073  0.40856778  0.05198909  1
  Te  Te94  1  0.73898701  0.36357063  0.47501276  1
  Te  Te95  1  0.75468051  0.40888166  0.72502610  1
  Te  Te96  1  0.74456541  0.74451483  0.09116584  1
  Te  Te97  1  0.74887726  0.77137926  0.42158533  1
  Te  Te98  1  0.76167695  0.76825681  0.72153023  1
  Te  Te99  1  0.08418625  0.26715195  0.26613986  1
  Te  Te100  1  0.09013483  0.24703089  0.60808775  1
  Te  Te101  1  0.09901548  0.21054388  0.90281710  1
  Te  Te102  1  0.07543337  0.60301937  0.24725840  1
  Te  Te103  1  0.07491491  0.59318661  0.56734602  1
  Te  Te104  1  0.08260972  0.58132143  0.92028499  1
  Te  Te105  1  0.11264009  0.94303838  0.21550242  1
  Te  Te106  1  0.13458942  0.96135315  0.61961882  1
  Te  Te107  1  0.04510296  0.92209011  0.90088053  1
  Te  Te108  1  0.39633983  0.23428339  0.23293797  1
  Te  Te109  1  0.40027088  0.26739500  0.57246863  1
  Te  Te110  1  0.41823465  0.23061344  0.91161616  1
  Te  Te111  1  0.40405148  0.60786355  0.26844775  1
  Te  Te112  1  0.40539413  0.60676791  0.60746787  1
  Te  Te113  1  0.42715753  0.58647645  0.92717301  1
  Te  Te114  1  0.39384398  0.95904156  0.27305922  1
  Te  Te115  1  0.41607658  0.91805342  0.58958141  1
  Te  Te116  1  0.40803337  0.93834111  0.91394581  1
  Te  Te117  1  0.73550332  0.22227646  0.27383821  1
  Te  Te118  1  0.75576664  0.24757812  0.57671497  1
  Te  Te119  1  0.78522545  0.20652483  0.92085094  1
  Te  Te120  1  0.74276099  0.59402272  0.24814365  1
  Te  Te121  1  0.73661542  0.58689612  0.56445962  1
  Te  Te122  1  0.73657100  0.60146575  0.92507192  1
  Te  Te123  1  0.75930889  0.92357846  0.26113999  1
  Te  Te124  1  0.76258786  0.91250562  0.60379677  1
  Te  Te125  1  0.77933099  0.93185598  0.90259643  1
  Te  Te126  1  0.23631428  0.23653531  0.07045138  1
  Te  Te127  1  0.25651939  0.25696786  0.39365980  1
  Te  Te128  1  0.26314148  0.23858312  0.76900646  1
  Te  Te129  1  0.23052207  0.58815020  0.09455243  1
  Te  Te130  1  0.25374658  0.58669851  0.42404291  1
  Te  Te131  1  0.25700577  0.60278094  0.76375746  1
  Te  Te132  1  0.26630161  0.91349720  0.08254524  1
  Te  Te133  1  0.16330431  0.91569007  0.35380070  1
  Te  Te134  1  0.24450424  0.92791653  0.76213726  1
  Te  Te135  1  0.57947696  0.24155615  0.08509156  1
  Te  Te136  1  0.56466814  0.20478201  0.41039880  1
  Te  Te137  1  0.58970573  0.26315290  0.73130294  1
  Te  Te138  1  0.57641822  0.56692149  0.10283594  1
  Te  Te139  1  0.57520367  0.58892761  0.41781773  1
  Te  Te140  1  0.58513328  0.58444570  0.76548136  1
  Te  Te141  1  0.57191489  0.91640757  0.07900643  1
  Te  Te142  1  0.58171599  0.94117231  0.41885041  1
  Te  Te143  1  0.57106558  0.88006530  0.76811451  1
  Te  Te144  1  0.91788129  0.23252057  0.10053294  1
  Te  Te145  1  0.88872942  0.23709241  0.45097688  1
  Te  Te146  1  0.92954094  0.22333866  0.74849258  1
  Te  Te147  1  0.90175469  0.56538945  0.07712512  1
  Te  Te148  1  0.91404214  0.59590421  0.41092641  1
  Te  Te149  1  0.90046438  0.56211583  0.72127236  1
  Te  Te150  1  0.92388286  0.89340530  0.08756921  1
  Te  Te151  1  0.93397094  0.91362633  0.44081324  1
  Te  Te152  1  0.91645534  0.91942455  0.68820823  1
  Te  Te153  1  0.28925343  0.08625139  0.21602976  1
  Te  Te154  1  0.23515759  0.09881827  0.56823747  1
  Te  Te155  1  0.27372268  0.02219074  0.88367337  1
  Te  Te156  1  0.24939457  0.43275469  0.25914417  1
  Te  Te157  1  0.24021298  0.43315552  0.57516251  1
  Te  Te158  1  0.26019662  0.42896202  0.93927519  1
  Te  Te159  1  0.25750915  0.76481183  0.30104005  1
  Te  Te160  1  0.29062248  0.80111260  0.54697080  1
  Te  Te161  1  0.25757886  0.76981973  0.90952904  1
  Te  Te162  1  0.54513094  0.05274716  0.22830766  1
  Te  Te163  1  0.59852693  0.05902136  0.60436037  1
  Te  Te164  1  0.58188069  0.08598145  0.92308396  1
  Te  Te165  1  0.61586379  0.40161588  0.28290897  1
  Te  Te166  1  0.59600399  0.42516778  0.56260228  1
  Te  Te167  1  0.59178847  0.38525618  0.89913567  1
  Te  Te168  1  0.56432867  0.78982074  0.27602034  1
  Te  Te169  1  0.56294051  0.75705047  0.58034505  1
  Te  Te170  1  0.61482064  0.78684532  0.88666942  1
  Te  Te171  1  0.92936319  0.08564977  0.27667917  1
  Te  Te172  1  0.94243408  0.05114528  0.61403192  1
  Te  Te173  1  0.90166368  0.10607004  0.88956823  1
  Te  Te174  1  0.87899965  0.41211312  0.27084947  1
  Te  Te175  1  0.90251333  0.44264171  0.58781455  1
  Te  Te176  1  0.93626154  0.38268976  0.90259232  1
  Te  Te177  1  0.91622208  0.76798355  0.27735906  1
  Te  Te178  1  0.93209617  0.78730095  0.57060017  1
  Te  Te179  1  0.91884689  0.74057726  0.88697348  1
