# generated using pymatgen
data_In2Te3
_symmetry_space_group_name_H-M   'P 1'
_cell_length_a   19.02739765
_cell_length_b   18.99375947
_cell_length_c   19.02852978
_cell_angle_alpha   90.08095746
_cell_angle_beta   90.02737160
_cell_angle_gamma   89.76830123
_symmetry_Int_Tables_number   1
_chemical_formula_structural   In2Te3
_chemical_formula_sum   'In72 Te108'
_cell_volume   6876.88132705
_cell_formula_units_Z   36
loop_
 _symmetry_equiv_pos_site_id
 _symmetry_equiv_pos_as_xyz
  1  'x, y, z'
loop_
 _atom_site_type_symbol
 _atom_site_label
 _atom_site_symmetry_multiplicity
 _atom_site_fract_x
 _atom_site_fract_y
 _atom_site_fract_z
 _atom_site_occupancy
  In  In0  1  0.87963561  -0.03309765  0.17808827  1
  In  In1  1  0.66259170  0.16508585  0.52199254  1
  In  In2  1  0.47994123  0.52410408  -0.01336358  1
  In  In3  1  0.31742686  -0.03575415  0.32142434  1
  In  In4  1  0.18991132  -0.03776827  0.49391370  1
  In  In5  1  0.03517667  0.34421916  0.69779113  1
  In  In6  1  0.67133000  0.19098238  0.82384240  1
  In  In7  1  0.80985184  0.83301685  0.71694639  1
  In  In8  1  0.35458166  0.50628798  0.50913856  1
  In  In9  1  0.15292514  0.35633775  0.16694313  1
  In  In10  1  0.67592947  0.33750182  0.34231582  1
  In  In11  1  0.49902098  0.68065737  0.49822778  1
  In  In12  1  0.58858481  0.75234605  0.81069980  1
  In  In13  1  0.49908971  0.84865353  0.32470401  1
  In  In14  1  0.61021670  0.37226302  0.68818225  1
  In  In15  1  0.65719496  0.16965708  0.16698246  1
  In  In16  1  0.11491976  -0.04546331  0.16073960  1
  In  In17  1  0.35035618  0.35498800  0.66542637  1
  In  In18  1  0.47630545  0.33694676  0.84142314  1
  In  In19  1  0.84748043  0.64789278  0.50662419  1
  In  In20  1  0.49059632  0.67837681  0.12942509  1
  In  In21  1  0.22011243  0.66341208  0.85671735  1
  In  In22  1  0.85448663  0.81522902  -0.00171973  1
  In  In23  1  0.85778006  -0.00601938  0.85046583  1
  In  In24  1  0.67339318  0.02240393  0.32988141  1
  In  In25  1  0.62300657  0.53315784  0.82955992  1
  In  In26  1  0.85821563  0.80470999  0.34442787  1
  In  In27  1  0.15585142  0.15907631  0.35213010  1
  In  In28  1  0.16163468  0.81129148  0.00808456  1
  In  In29  1  0.00911680  0.82673732  0.52069727  1
  In  In30  1  -0.00013991  0.34131031  0.37296615  1
  In  In31  1  -0.02700856  0.34016846  -0.01095936  1
  In  In32  1  0.67801936  0.86020760  0.14759178  1
  In  In33  1  0.18719671  0.16662980  0.68251460  1
  In  In34  1  0.31749227  0.54995887  0.12841640  1
  In  In35  1  0.83023340  0.34099561  0.51273368  1
  In  In36  1  -0.00017954  0.51365498  0.50185071  1
  In  In37  1  0.79536856  0.48716574  -0.02512898  1
  In  In38  1  0.40540799  -0.05525040  0.80308862  1
  In  In39  1  0.00738119  0.17151328  0.82796697  1
  In  In40  1  0.18960705  0.56344480  0.66921410  1
  In  In41  1  0.49070665  0.82580656  0.66037692  1
  In  In42  1  0.85341230  0.17041963  0.65380407  1
  In  In43  1  0.83702757  -0.00665891  0.54686653  1
  In  In44  1  0.84635488  0.66132135  0.16112382  1
  In  In45  1  0.19809344  0.38690158  0.85680485  1
  In  In46  1  0.66577932  0.68515052  0.33432045  1
  In  In47  1  0.83758483  0.32935841  0.19392495  1
  In  In48  1  0.00865830  0.80695952  0.85379366  1
  In  In49  1  0.00337333  0.67141421  0.68510168  1
  In  In50  1  0.32894314  0.16454731  0.47033364  1
  In  In51  1  0.47984180  0.51997330  0.30302001  1
  In  In52  1  0.01590580  0.14587776  0.49403169  1
  In  In53  1  0.00541688  0.13564696  0.18710892  1
  In  In54  1  0.48507441  0.16357002  0.30245311  1
  In  In55  1  0.68758504  0.01794437  -0.00745002  1
  In  In56  1  0.04287586  0.66770273  0.29787919  1
  In  In57  1  0.33813844  0.14926839  0.84015662  1
  In  In58  1  0.64759956  0.00622279  0.69593507  1
  In  In59  1  0.18117422  0.17683958  -0.01343891  1
  In  In60  1  0.32885411  0.15664278  0.16354310  1
  In  In61  1  -0.00159143  0.49598058  0.16381598  1
  In  In62  1  0.18414584  0.32976548  0.48822572  1
  In  In63  1  0.50260701  0.15928347  0.00836181  1
  In  In64  1  0.46391494  -0.04046882  0.13939607  1
  In  In65  1  0.49205694  -0.03313225  0.50486160  1
  In  In66  1  0.67803721  0.49946160  0.18706118  1
  In  In67  1  0.82592917  0.51747590  0.67905584  1
  In  In68  1  0.19772135  0.55860014  0.33778038  1
  In  In69  1  0.26439846  0.82279380  0.64772870  1
  In  In70  1  0.49139312  0.33919630  0.48340962  1
  In  In71  1  0.81438184  0.17353808  0.00976408  1
  Te  Te72  1  0.09999156  0.08697154  0.08376858  1
  Te  Te73  1  0.08647356  0.03935779  0.41236100  1
  Te  Te74  1  0.09835210  0.08074373  0.75844629  1
  Te  Te75  1  0.08073524  0.42618136  0.05428978  1
  Te  Te76  1  0.10956023  0.44194708  0.40723678  1
  Te  Te77  1  0.10401283  0.45824447  0.76348541  1
  Te  Te78  1  0.05505544  0.71032557  0.03959751  1
  Te  Te79  1  0.08050947  0.78156158  0.39639371  1
  Te  Te80  1  0.11012659  0.73514229  0.76867233  1
  Te  Te81  1  0.39334301  0.06661219  0.06028727  1
  Te  Te82  1  0.41691860  0.05903357  0.40148337  1
  Te  Te83  1  0.41070884  0.07528054  0.73844238  1
  Te  Te84  1  0.40483641  0.43849561  0.08144073  1
  Te  Te85  1  0.40320477  0.42275536  0.39330323  1
  Te  Te86  1  0.41359889  0.44714263  0.76232137  1
  Te  Te87  1  0.40809575  0.74983387  0.02748022  1
  Te  Te88  1  0.41425098  0.76589700  0.41062770  1
  Te  Te89  1  0.43826729  0.72798690  0.76309992  1
  Te  Te90  1  0.76819074  0.06662821  0.11178607  1
  Te  Te91  1  0.75743005  0.07703032  0.44452600  1
  Te  Te92  1  0.77010101  0.08444441  0.75443841  1
  Te  Te93  1  0.74984285  0.40103045  0.09689249  1
  Te  Te94  1  0.75771783  0.42802314  0.42117404  1
  Te  Te95  1  0.72432442  0.43596968  0.75872696  1
  Te  Te96  1  0.74696363  0.74389945  0.08089204  1
  Te  Te97  1  0.75329168  0.75027493  0.43792080  1
  Te  Te98  1  0.72718368  0.72249262  0.76252927  1
  Te  Te99  1  0.07455268  0.25914426  0.26342364  1
  Te  Te100  1  0.08918620  0.25357013  0.57954319  1
  Te  Te101  1  0.09281785  0.27346608  0.90673000  1
  Te  Te102  1  0.09393532  0.61367886  0.15660966  1
  Te  Te103  1  0.08290512  0.61866439  0.56695482  1
  Te  Te104  1  0.10210800  0.61034877  0.93384374  1
  Te  Te105  1  0.06634628  0.87221988  0.26974730  1
  Te  Te106  1  0.12330209  0.88055653  0.60170816  1
  Te  Te107  1  0.06886973  0.91016014  0.94126507  1
  Te  Te108  1  0.41662576  0.26034305  0.21939645  1
  Te  Te109  1  0.40646149  0.24928309  0.57015457  1
  Te  Te110  1  0.40122337  0.24776925  0.93584507  1
  Te  Te111  1  0.39686384  0.62721471  0.23614112  1
  Te  Te112  1  0.45126284  0.57712109  0.59504118  1
  Te  Te113  1  0.43900481  0.64714646  0.90930938  1
  Te  Te114  1  0.38295736  0.86642883  0.22325632  1
  Te  Te115  1  0.38386661  0.89833096  0.58147906  1
  Te  Te116  1  0.39340848  0.87687127  0.93355490  1
  Te  Te117  1  0.75303018  0.22873014  0.26827965  1
  Te  Te118  1  0.73887479  0.26400977  0.60719819  1
  Te  Te119  1  0.75434699  0.26652979  0.91622812  1
  Te  Te120  1  0.76568846  0.59118656  0.26822797  1
  Te  Te121  1  0.74316561  0.57146712  0.57328547  1
  Te  Te122  1  0.72237849  0.59940382  0.91404406  1
  Te  Te123  1  0.75833193  0.90490533  0.26836434  1
  Te  Te124  1  0.73015195  0.91063138  0.61208152  1
  Te  Te125  1  0.75617034  0.90591967  0.91785732  1
  Te  Te126  1  0.24645855  0.26531507  0.09080541  1
  Te  Te127  1  0.26338166  0.26466969  0.37707580  1
  Te  Te128  1  0.25585519  0.27759545  0.75893647  1
  Te  Te129  1  0.24952433  0.59128253  -0.00191974  1
  Te  Te130  1  0.27973153  0.61791745  0.44522351  1
  Te  Te131  1  0.29618658  0.56401590  0.77239368  1
  Te  Te132  1  0.23515794  0.90403269  0.09681888  1
  Te  Te133  1  0.25976584  0.86234648  0.40999017  1
  Te  Te134  1  0.26312154  0.91651757  0.76158469  1
  Te  Te135  1  0.58738025  0.25716472  0.07585869  1
  Te  Te136  1  0.57800258  0.22710237  0.41045894  1
  Te  Te137  1  0.55412472  0.24564690  0.74414691  1
  Te  Te138  1  0.58811399  0.57117571  0.08942426  1
  Te  Te139  1  0.57560018  0.58444732  0.39958024  1
  Te  Te140  1  0.55399134  0.62102506  0.72961920  1
  Te  Te141  1  0.58025842  0.92211103  0.05047650  1
  Te  Te142  1  0.60187377  0.91760108  0.41266303  1
  Te  Te143  1  0.56783144  0.90707019  0.77463465  1
  Te  Te144  1  0.92810302  0.24717068  0.10224159  1
  Te  Te145  1  0.91014031  0.23611558  0.43204405  1
  Te  Te146  1  0.91587607  0.26661085  0.75286471  1
  Te  Te147  1  0.89880108  0.55734910  0.06748284  1
  Te  Te148  1  0.94085391  0.60259295  0.39646083  1
  Te  Te149  1  0.91897562  0.58571684  0.76906607  1
  Te  Te150  1  0.94724395  0.91679805  0.05746000  1
  Te  Te151  1  0.90951553  0.91069134  0.44245624  1
  Te  Te152  1  0.93515361  0.90739513  0.75636797  1
  Te  Te153  1  0.23884636  0.07523212  0.25461236  1
  Te  Te154  1  0.24604249  0.08547568  0.56828064  1
  Te  Te155  1  0.23905945  0.06745406  0.90897427  1
  Te  Te156  1  0.24263960  0.45898354  0.22969855  1
  Te  Te157  1  0.23726571  0.43097262  0.58743712  1
  Te  Te158  1  0.28613895  0.44388961  0.95982922  1
  Te  Te159  1  0.18926506  0.68857443  0.26039668  1
  Te  Te160  1  0.26151425  0.68269267  0.60153034  1
  Te  Te161  1  0.25898045  0.81027425  0.88794975  1
  Te  Te162  1  0.56150391  0.05502408  0.22515435  1
  Te  Te163  1  0.56357222  0.07325663  0.58867566  1
  Te  Te164  1  0.58948805  0.09109402  0.90370075  1
  Te  Te165  1  0.57728749  0.40900229  0.25380494  1
  Te  Te166  1  0.56700858  0.43501435  0.56470015  1
  Te  Te167  1  0.57210730  0.42115548  0.92107345  1
  Te  Te168  1  0.58622159  0.76044628  0.22744411  1
  Te  Te169  1  0.59102102  0.76817793  0.57133895  1
  Te  Te170  1  0.55476522  0.73440061  0.95701598  1
  Te  Te171  1  0.92144154  0.06276586  0.27909584  1
  Te  Te172  1  0.95478467  0.06696923  0.60791980  1
  Te  Te173  1  0.92401518  0.10040864  0.93416524  1
  Te  Te174  1  0.92038672  0.42606658  0.27454448  1
  Te  Te175  1  0.93782485  0.41334910  0.59475695  1
  Te  Te176  1  0.90762471  0.43137637  0.89672616  1
  Te  Te177  1  0.93861966  0.76350035  0.22266384  1
  Te  Te178  1  0.90029422  0.75506178  0.60643679  1
  Te  Te179  1  0.89823003  0.71906143  0.89554725  1
