# generated using pymatgen
data_In2Te3
_symmetry_space_group_name_H-M   'P 1'
_cell_length_a   19.00646106
_cell_length_b   19.00433147
_cell_length_c   18.97805719
_cell_angle_alpha   90.07500580
_cell_angle_beta   89.82729527
_cell_angle_gamma   89.94957226
_symmetry_Int_Tables_number   1
_chemical_formula_structural   In2Te3
_chemical_formula_sum   'In72 Te108'
_cell_volume   6854.93108714
_cell_formula_units_Z   36
loop_
 _symmetry_equiv_pos_site_id
 _symmetry_equiv_pos_as_xyz
  1  'x, y, z'
loop_
 _atom_site_type_symbol
 _atom_site_label
 _atom_site_symmetry_multiplicity
 _atom_site_fract_x
 _atom_site_fract_y
 _atom_site_fract_z
 _atom_site_occupancy
  In  In0  1  0.19312208  0.49355131  0.31741750  1
  In  In1  1  -0.00525761  0.84816642  0.83463336  1
  In  In2  1  0.17268699  0.32846480  0.50910327  1
  In  In3  1  0.67826784  -0.01151148  0.66383613  1
  In  In4  1  0.81943050  0.16369621  0.33062606  1
  In  In5  1  0.16410395  -0.01062935  0.83849552  1
  In  In6  1  0.17192101  0.18265504  0.00090354  1
  In  In7  1  0.82321767  0.48803964  0.63530197  1
  In  In8  1  0.17448346  0.66443379  0.49750810  1
  In  In9  1  0.18006508  0.15851776  0.66461259  1
  In  In10  1  0.32376695  0.19776472  0.81453592  1
  In  In11  1  0.81621136  0.66643360  0.82133166  1
  In  In12  1  0.17032011  0.48032065  0.64891525  1
  In  In13  1  0.48760012  0.51494929  0.67501463  1
  In  In14  1  0.49532126  0.83103017  0.32454062  1
  In  In15  1  0.29941793  0.46541802  0.84926757  1
  In  In16  1  0.50121414  0.02961109  0.85243231  1
  In  In17  1  0.82190176  0.29825328  0.16142121  1
  In  In18  1  0.32800712  0.00067662  0.02812287  1
  In  In19  1  0.31585375  0.00726790  0.66028152  1
  In  In20  1  0.35050104  0.49409027  0.17298088  1
  In  In21  1  0.83311877  0.82891650  0.01507158  1
  In  In22  1  0.14899106  0.16846698  0.32444663  1
  In  In23  1  0.68311854  0.50859258  0.83718527  1
  In  In24  1  -0.02110245  0.82549135  0.17525126  1
  In  In25  1  -0.01467258  0.51168002  0.83896702  1
  In  In26  1  0.00157203  0.15520437  0.18349276  1
  In  In27  1  -0.04302227  -0.00795601  0.36598347  1
  In  In28  1  0.17554871  0.67833577  0.82320461  1
  In  In29  1  0.50100867  -0.00533821  0.17264524  1
  In  In30  1  0.47714124  0.02906044  0.48550072  1
  In  In31  1  0.49274604  0.83875880  0.69298355  1
  In  In32  1  0.66220124  0.49248792  0.48454883  1
  In  In33  1  0.50483937  0.19062930  0.64329879  1
  In  In34  1  0.82402732  0.68275751  0.47988749  1
  In  In35  1  0.51499172  0.65955992  0.49603886  1
  In  In36  1  0.49625157  0.32709528  0.82593541  1
  In  In37  1  0.00698495  0.15914238  0.84765306  1
  In  In38  1  0.65543248  0.34798366  0.01854865  1
  In  In39  1  0.34919835  0.81724566  0.16869511  1
  In  In40  1  0.67847990  0.49788455  0.21707039  1
  In  In41  1  0.17424685  0.65379060  0.17047198  1
  In  In42  1  0.64971885  0.15687316  0.16735185  1
  In  In43  1  -0.00458833  0.65114824  0.01740509  1
  In  In44  1  -0.00644472  0.54701734  0.49008821  1
  In  In45  1  0.70307333  -0.03933158  0.32740582  1
  In  In46  1  0.35789736  0.81997383  0.85294585  1
  In  In47  1  0.82331216  -0.01015871  0.83159774  1
  In  In48  1  0.82857101  0.32785935  0.48995474  1
  In  In49  1  0.84048075  0.81605228  0.65591264  1
  In  In50  1  0.50640171  0.19687462  0.33476899  1
  In  In51  1  -0.02507085  0.67860913  0.33244566  1
  In  In52  1  0.81711743  0.14680024  -0.00351209  1
  In  In53  1  0.01160290  0.33324459  0.34118235  1
  In  In54  1  0.66279219  0.82763763  0.50354075  1
  In  In55  1  -0.00663797  0.32042220  0.67526153  1
  In  In56  1  0.16695069  0.00831542  0.18093750  1
  In  In57  1  0.48918990  0.65924671  0.18137733  1
  In  In58  1  0.17422798  0.83168067  0.31494521  1
  In  In59  1  0.13727820  0.85319524  0.65724913  1
  In  In60  1  0.68106203  0.32084341  0.65173149  1
  In  In61  1  0.03819819  0.33409675  0.00535948  1
  In  In62  1  0.46984553  0.34086774  0.47110903  1
  In  In63  1  0.48632497  0.50880905  0.02484721  1
  In  In64  1  -0.02420142  0.01917905  0.60499165  1
  In  In65  1  0.21193292  0.35379125  0.15802938  1
  In  In66  1  -0.00648580  0.49006544  0.16100630  1
  In  In67  1  0.67029750  0.67592809  0.00831441  1
  In  In68  1  0.50155728  0.64598510  0.83784154  1
  In  In69  1  0.65056134  -0.01987364  0.01579988  1
  In  In70  1  0.86456872  0.33388991  0.86037944  1
  In  In71  1  0.31510266  0.83992499  0.48640063  1
  Te  Te72  1  0.08573468  0.08484359  0.07712696  1
  Te  Te73  1  0.05976406  0.08741285  0.40985804  1
  Te  Te74  1  0.07893363  0.07358997  0.74429620  1
  Te  Te75  1  0.11851293  0.44627510  0.07254471  1
  Te  Te76  1  0.08320541  0.43620212  0.42175948  1
  Te  Te77  1  0.07290394  0.42087431  0.75526498  1
  Te  Te78  1  0.08324786  0.74736848  0.09350094  1
  Te  Te79  1  0.08707106  0.75006064  0.40872864  1
  Te  Te80  1  0.06656652  0.75106558  0.74288965  1
  Te  Te81  1  0.43537091  0.08481440  0.07721344  1
  Te  Te82  1  0.40186970  0.11306544  0.39540465  1
  Te  Te83  1  0.41895388  0.09123758  0.73386029  1
  Te  Te84  1  0.42300132  0.39360378  0.08886684  1
  Te  Te85  1  0.48069748  0.45832930  0.38274959  1
  Te  Te86  1  0.40283042  0.41276207  0.74584101  1
  Te  Te87  1  0.41770155  0.72889712  0.07464219  1
  Te  Te88  1  0.41291194  0.74681781  0.41848507  1
  Te  Te89  1  0.40814207  0.72521076  0.74703086  1
  Te  Te90  1  0.74996000  0.06383528  0.10126104  1
  Te  Te91  1  0.75318459  0.06571775  0.41945119  1
  Te  Te92  1  0.74731110  0.08393805  0.75156226  1
  Te  Te93  1  0.75485798  0.42204201  0.10308482  1
  Te  Te94  1  0.74313982  0.40346425  0.39955801  1
  Te  Te95  1  0.76704511  0.40743598  0.75589163  1
  Te  Te96  1  0.74490211  0.75656915  0.11091959  1
  Te  Te97  1  0.71568296  0.73998106  0.39590539  1
  Te  Te98  1  0.74045657  0.76721931  0.74932154  1
  Te  Te99  1  0.08835598  0.27874711  0.22081160  1
  Te  Te100  1  0.07453948  0.23658520  0.58125626  1
  Te  Te101  1  0.10734334  0.26508478  0.88782539  1
  Te  Te102  1  0.07119460  0.57465355  0.26304503  1
  Te  Te103  1  0.08371660  0.59577156  0.59948524  1
  Te  Te104  1  0.09077795  0.58770543  0.91643038  1
  Te  Te105  1  0.06556090  0.92836749  0.26442960  1
  Te  Te106  1  0.08954878  0.94394204  0.55331010  1
  Te  Te107  1  0.08713818  0.90620537  0.93038526  1
  Te  Te108  1  0.47177427  0.28603077  0.22186036  1
  Te  Te109  1  0.40050764  0.26851417  0.57744285  1
  Te  Te110  1  0.40887509  0.25469545  0.91696683  1
  Te  Te111  1  0.42885929  0.56669007  0.28056553  1
  Te  Te112  1  0.41310341  0.59408723  0.57887065  1
  Te  Te113  1  0.40016122  0.56379116  0.91415241  1
  Te  Te114  1  0.39692351  0.92698769  0.26122523  1
  Te  Te115  1  0.41817166  0.91516542  0.58372241  1
  Te  Te116  1  0.42611122  0.92553441  0.93554243  1
  Te  Te117  1  0.71874348  0.25438382  0.26218891  1
  Te  Te118  1  0.77692850  0.22620181  0.58751390  1
  Te  Te119  1  0.74982923  0.26341850  0.92877647  1
  Te  Te120  1  0.78620711  0.59615925  0.23250367  1
  Te  Te121  1  0.74145828  0.59572029  0.57394166  1
  Te  Te122  1  0.76847083  0.58138721  0.93714521  1
  Te  Te123  1  0.76705643  0.87355955  0.22772181  1
  Te  Te124  1  0.76911696  0.91790521  0.56264443  1
  Te  Te125  1  0.74083749  0.89914782  0.91841389  1
  Te  Te126  1  0.26765847  0.22850907  0.10207839  1
  Te  Te127  1  0.23917974  0.25600176  0.40112493  1
  Te  Te128  1  0.25623456  0.27564301  0.71172021  1
  Te  Te129  1  0.27400125  0.58627212  0.08669163  1
  Te  Te130  1  0.26253411  0.57084272  0.42298808  1
  Te  Te131  1  0.24803020  0.56689961  0.74778419  1
  Te  Te132  1  0.23983047  0.90191877  0.10092487  1
  Te  Te133  1  0.24890324  0.93030345  0.39334707  1
  Te  Te134  1  0.25975409  0.90404993  0.75600517  1
  Te  Te135  1  0.56738284  0.24929579  0.08446015  1
  Te  Te136  1  0.58595072  0.25592476  0.44294290  1
  Te  Te137  1  0.59818186  0.24332943  0.75305943  1
  Te  Te138  1  0.59975869  0.57317652  0.10077104  1
  Te  Te139  1  0.61820611  0.60759351  0.40026390  1
  Te  Te140  1  0.60521535  0.59011572  0.74049235  1
  Te  Te141  1  0.57637237  0.88800027  0.10379329  1
  Te  Te142  1  0.57511854  0.92124529  0.42215624  1
  Te  Te143  1  0.58411663  0.93093607  0.76970470  1
  Te  Te144  1  0.92810124  0.23644205  0.06805701  1
  Te  Te145  1  0.92544086  0.23510888  0.41541691  1
  Te  Te146  1  0.90594692  0.22923062  0.75872706  1
  Te  Te147  1  0.90109323  0.60623516  0.12976836  1
  Te  Te148  1  0.88382123  0.56936075  0.38953329  1
  Te  Te149  1  0.90192771  0.57999592  0.73069708  1
  Te  Te150  1  0.93295178  0.91796502  0.07287546  1
  Te  Te151  1  0.89507414  0.88350492  0.44561900  1
  Te  Te152  1  0.92308473  0.92979878  0.72343881  1
  Te  Te153  1  0.25405153  0.11460166  0.23298841  1
  Te  Te154  1  0.24393202  0.08055254  0.55759469  1
  Te  Te155  1  0.25876152  0.08556075  0.90864901  1
  Te  Te156  1  0.29243625  0.38661257  0.28214582  1
  Te  Te157  1  0.26391864  0.44199390  0.54065702  1
  Te  Te158  1  0.21828687  0.39995120  0.95134277  1
  Te  Te159  1  0.26915983  0.72697680  0.26225257  1
  Te  Te160  1  0.24201261  0.76240268  0.59412894  1
  Te  Te161  1  0.24350707  0.76189491  0.92169223  1
  Te  Te162  1  0.59074448  0.06386913  0.27279632  1
  Te  Te163  1  0.58382101  0.07773468  0.57936987  1
  Te  Te164  1  0.59965030  0.09433060  0.93859178  1
  Te  Te165  1  0.55489699  0.41541040  0.25040505  1
  Te  Te166  1  0.58646282  0.42265716  0.59784917  1
  Te  Te167  1  0.57909426  0.43103136  0.91422090  1
  Te  Te168  1  0.58530070  0.75719895  0.23541597  1
  Te  Te169  1  0.57887270  0.75183215  0.60273429  1
  Te  Te170  1  0.58463182  0.74125216  0.91051049  1
  Te  Te171  1  0.89792805  0.06437333  0.24459349  1
  Te  Te172  1  0.87289096  0.10584590  0.55366513  1
  Te  Te173  1  0.92020943  0.06195520  0.92454516  1
  Te  Te174  1  0.91198710  0.39179539  0.24179266  1
  Te  Te175  1  0.93799446  0.41778112  0.56767852  1
  Te  Te176  1  0.92711345  0.43147391  0.95521327  1
  Te  Te177  1  0.88598130  0.79761073  0.29274292  1
  Te  Te178  1  0.93016208  0.76519132  0.54620503  1
  Te  Te179  1  0.91915518  0.73804355  0.91241526  1
