# generated using pymatgen
data_In2Te3
_symmetry_space_group_name_H-M   'P 1'
_cell_length_a   18.94065720
_cell_length_b   18.94139648
_cell_length_c   18.91727224
_cell_angle_alpha   90.05558211
_cell_angle_beta   89.88203179
_cell_angle_gamma   90.14434388
_symmetry_Int_Tables_number   1
_chemical_formula_structural   In2Te3
_chemical_formula_sum   'In72 Te108'
_cell_volume   6786.76875714
_cell_formula_units_Z   36
loop_
 _symmetry_equiv_pos_site_id
 _symmetry_equiv_pos_as_xyz
  1  'x, y, z'
loop_
 _atom_site_type_symbol
 _atom_site_label
 _atom_site_symmetry_multiplicity
 _atom_site_fract_x
 _atom_site_fract_y
 _atom_site_fract_z
 _atom_site_occupancy
  In  In0  1  0.36949304  0.83005752  0.16470614  1
  In  In1  1  0.81718076  0.64283050  0.49655549  1
  In  In2  1  0.82951356  0.49269397  0.32656758  1
  In  In3  1  0.81769671  0.82327861  0.67270417  1
  In  In4  1  0.82501770  0.83686079  -0.02722016  1
  In  In5  1  0.02193471  0.82400407  0.17773488  1
  In  In6  1  0.19488750  0.17233004  0.33642017  1
  In  In7  1  0.33829980  0.85342370  0.83955882  1
  In  In8  1  0.52003424  0.49401340  -0.00616213  1
  In  In9  1  0.00019807  0.48669071  0.18305130  1
  In  In10  1  0.66008983  0.65978340  0.68446315  1
  In  In11  1  0.18490251  0.15743681  -0.00370437  1
  In  In12  1  0.31246566  0.65506060  0.33130885  1
  In  In13  1  0.50851716  0.83818032  0.32718214  1
  In  In14  1  0.02229198  0.05304035  0.34970746  1
  In  In15  1  0.18725710  0.35324891  0.17432375  1
  In  In16  1  0.00797819  0.81217448  0.81121295  1
  In  In17  1  -0.00462932  0.33302552  0.64915601  1
  In  In18  1  0.17321756  0.00624002  0.81709300  1
  In  In19  1  0.16073656  0.85129159  0.36545263  1
  In  In20  1  0.83447679  0.66171345  0.81507044  1
  In  In21  1  0.34265190  -0.00624550  0.66914546  1
  In  In22  1  0.66089500  0.13851946  0.84812777  1
  In  In23  1  0.79738515  0.18227706  0.67684778  1
  In  In24  1  0.01433310  0.48843826  0.51384295  1
  In  In25  1  0.01715147  0.17155288  0.16711441  1
  In  In26  1  0.32938642  0.50934550  0.16349704  1
  In  In27  1  0.16350109  0.49117695  0.67139151  1
  In  In28  1  0.63904707  -0.02351249  0.01809007  1
  In  In29  1  0.83449540  0.01685271  0.51547228  1
  In  In30  1  0.00822064  0.16810778  0.84552751  1
  In  In31  1  0.65914976  0.33837085  0.33316746  1
  In  In32  1  0.82717303  -0.02237451  0.16854066  1
  In  In33  1  0.83806772  0.67238849  0.15853469  1
  In  In34  1  0.83523430  0.49857771  0.01093802  1
  In  In35  1  0.64584158  0.00064707  0.64713393  1
  In  In36  1  0.65329427  0.67707060  0.31377413  1
  In  In37  1  0.65525103  0.33346189  0.66603776  1
  In  In38  1  0.51475751  0.49263509  0.66699174  1
  In  In39  1  0.35228390  0.14653111  0.19229541  1
  In  In40  1  0.83643498  0.18324719  -0.00768133  1
  In  In41  1  0.49205791  0.68398722  0.85800678  1
  In  In42  1  0.48442288  0.50034787  0.33472803  1
  In  In43  1  0.49312186  0.83821176  0.65880046  1
  In  In44  1  0.50544281  0.30792539  0.17620157  1
  In  In45  1  -0.01071684  0.51032733  0.81965111  1
  In  In46  1  0.65465601  0.15149455  0.17790077  1
  In  In47  1  0.81192562  0.36086950  0.81768786  1
  In  In48  1  0.00172162  0.01699367  0.67665343  1
  In  In49  1  0.32768727  0.33871265  -0.01596847  1
  In  In50  1  0.16057576  0.66945977  0.81247879  1
  In  In51  1  0.29237902  0.69029335  0.64017093  1
  In  In52  1  0.33240423  0.49578846  0.51616040  1
  In  In53  1  0.83094557  0.32627762  0.16956312  1
  In  In54  1  0.35431748  0.13185647  0.47617111  1
  In  In55  1  0.36848264  0.50722801  0.85105556  1
  In  In56  1  0.50434560  0.32432176  0.82857671  1
  In  In57  1  0.33165410  0.29344901  0.64521908  1
  In  In58  1  0.16901446  0.02088390  0.48843053  1
  In  In59  1  0.01023027  0.68593389  0.31660571  1
  In  In60  1  0.64590110  0.17788086  0.48850769  1
  In  In61  1  0.51292351  0.66050250  0.49236494  1
  In  In62  1  -0.00606058  0.03175637  0.00897980  1
  In  In63  1  0.17088173  0.85193847  -0.01182551  1
  In  In64  1  0.14362222  0.48220151  0.34763324  1
  In  In65  1  0.79134796  0.87024221  0.33857068  1
  In  In66  1  0.36565439  -0.01305890  0.02457506  1
  In  In67  1  -0.01119770  0.83353798  0.49285652  1
  In  In68  1  0.35889113  0.16106298  0.81062519  1
  In  In69  1  0.66281661  0.67055397  -0.00747016  1
  In  In70  1  0.20646023  0.67858701  0.13950944  1
  In  In71  1  0.63796055  0.00666152  0.36626824  1
  Te  Te72  1  0.10870700  0.07092208  0.09790654  1
  Te  Te73  1  0.07112522  0.14143260  0.47716094  1
  Te  Te74  1  0.10187254  0.11402285  0.73808989  1
  Te  Te75  1  0.09217978  0.42265055  0.08664963  1
  Te  Te76  1  0.08315041  0.37845727  0.43640225  1
  Te  Te77  1  0.07756826  0.40034167  0.75708111  1
  Te  Te78  1  0.09085996  0.74718646  0.06770231  1
  Te  Te79  1  0.09089450  0.73545970  0.43530017  1
  Te  Te80  1  0.09073408  0.74858915  0.70912452  1
  Te  Te81  1  0.44588983  0.09041331  0.09149271  1
  Te  Te82  1  0.42882766  0.05525057  0.36978267  1
  Te  Te83  1  0.43991872  0.04445256  0.77160447  1
  Te  Te84  1  0.41860136  0.41060423  0.08352545  1
  Te  Te85  1  0.43822881  0.41709505  0.44942837  1
  Te  Te86  1  0.40955252  0.40313669  0.73641121  1
  Te  Te87  1  0.38478707  0.72862124  0.06287259  1
  Te  Te88  1  0.41794657  0.73709380  0.40414780  1
  Te  Te89  1  0.40576175  0.74626316  0.74621705  1
  Te  Te90  1  0.76091558  0.08313908  0.07954182  1
  Te  Te91  1  0.75260388  0.09317851  0.41399027  1
  Te  Te92  1  0.74604598  0.05973456  0.74696778  1
  Te  Te93  1  0.74616216  0.41160327  0.08765610  1
  Te  Te94  1  0.74701237  0.41797599  0.42084282  1
  Te  Te95  1  0.74366789  0.44275229  0.71605232  1
  Te  Te96  1  0.74840946  0.76568005  0.08222514  1
  Te  Te97  1  0.74085002  0.74898552  0.41557959  1
  Te  Te98  1  0.72482821  0.76272768  0.77526540  1
  Te  Te99  1  0.10002709  0.26038837  0.25828229  1
  Te  Te100  1  0.09595204  0.27264705  0.55855535  1
  Te  Te101  1  0.09001695  0.24960306  0.93523068  1
  Te  Te102  1  0.10230349  0.59152316  0.24278150  1
  Te  Te103  1  0.08830018  0.58852306  0.59187198  1
  Te  Te104  1  0.07785303  0.59210343  0.90413546  1
  Te  Te105  1  0.08015736  0.93053126  0.26576093  1
  Te  Te106  1  0.07338119  0.93223733  0.57346221  1
  Te  Te107  1  0.07075547  0.93498216  0.90562504  1
  Te  Te108  1  0.39780783  0.26556437  0.27025192  1
  Te  Te109  1  0.43287945  0.20538059  0.58262627  1
  Te  Te110  1  0.42429401  0.23836576  0.92507577  1
  Te  Te111  1  0.42208049  0.60212487  0.23985299  1
  Te  Te112  1  0.41977225  0.59549923  0.59513771  1
  Te  Te113  1  0.40634846  0.60921365  0.96210445  1
  Te  Te114  1  0.40975083  0.93346472  0.26499429  1
  Te  Te115  1  0.41332486  0.91745317  0.56392016  1
  Te  Te116  1  0.43791313  0.88171315  0.94673835  1
  Te  Te117  1  0.74940364  0.23702325  0.26131123  1
  Te  Te118  1  0.74656674  0.26512233  0.56245676  1
  Te  Te119  1  0.73838104  0.25789712  0.90557287  1
  Te  Te120  1  0.74584333  0.58170872  0.23636327  1
  Te  Te121  1  0.73027659  0.56783203  0.59112279  1
  Te  Te122  1  0.75188732  0.57753121  0.91097110  1
  Te  Te123  1  0.69456807  0.93348238  0.23376217  1
  Te  Te124  1  0.74419031  0.90925998  0.57201249  1
  Te  Te125  1  0.73061209  0.92876548  0.91260364  1
  Te  Te126  1  0.26484951  0.24336005  0.09502770  1
  Te  Te127  1  0.29445574  0.25203568  0.40993951  1
  Te  Te128  1  0.25539347  0.25121119  0.76401100  1
  Te  Te129  1  0.22663723  0.55308704  0.06643974  1
  Te  Te130  1  0.23373601  0.57370534  0.43227826  1
  Te  Te131  1  0.27164370  0.57405400  0.74554673  1
  Te  Te132  1  0.25452537  0.91258628  0.09691404  1
  Te  Te133  1  0.26862092  0.91411261  0.44719171  1
  Te  Te134  1  0.23764948  0.89899332  0.73432912  1
  Te  Te135  1  0.60270085  0.25021008  0.08310124  1
  Te  Te136  1  0.55857560  0.24097268  0.38616554  1
  Te  Te137  1  0.58444886  0.22566945  0.74602613  1
  Te  Te138  1  0.58961169  0.58302043  0.08579681  1
  Te  Te139  1  0.59989111  0.57032673  0.40896441  1
  Te  Te140  1  0.57097673  0.58116856  0.77934033  1
  Te  Te141  1  0.58032489  0.90464494  0.13249743  1
  Te  Te142  1  0.58021239  0.89585652  0.44218820  1
  Te  Te143  1  0.56277566  0.93177014  0.75121318  1
  Te  Te144  1  0.93490993  0.26173191  0.07683844  1
  Te  Te145  1  0.95343812  0.17828567  0.38198110  1
  Te  Te146  1  0.90631449  0.25165774  0.75992571  1
  Te  Te147  1  0.93648215  0.58584080  0.08522916  1
  Te  Te148  1  0.92947029  0.58718910  0.40093328  1
  Te  Te149  1  0.91804018  0.58987995  0.71947196  1
  Te  Te150  1  0.93057670  0.90895153  0.07939482  1
  Te  Te151  1  0.91460569  0.93663237  0.40845339  1
  Te  Te152  1  0.91443348  0.91350738  0.74805476  1
  Te  Te153  1  0.25707001  0.06038416  0.26592282  1
  Te  Te154  1  0.25654888  0.09094363  0.59108072  1
  Te  Te155  1  0.27340824  0.06187654  0.91655723  1
  Te  Te156  1  0.26774393  0.42849962  0.27855758  1
  Te  Te157  1  0.23798960  0.39517742  0.57822617  1
  Te  Te158  1  0.25270346  0.43087110  0.89980002  1
  Te  Te159  1  0.24048594  0.76951117  0.25848659  1
  Te  Te160  1  0.25832984  0.78488805  0.53559472  1
  Te  Te161  1  0.24948533  0.75080056  0.90867999  1
  Te  Te162  1  0.55312550  0.10390825  0.28657506  1
  Te  Te163  1  0.55635163  0.08892986  0.56774092  1
  Te  Te164  1  0.56737158  0.08684066  0.95119642  1
  Te  Te165  1  0.57712134  0.42698507  0.23940140  1
  Te  Te166  1  0.56241750  0.39594066  0.56673054  1
  Te  Te167  1  0.59675030  0.41482348  0.89766389  1
  Te  Te168  1  0.57534401  0.75995567  0.21715283  1
  Te  Te169  1  0.59356828  0.75062954  0.58373505  1
  Te  Te170  1  0.57521100  0.77789515  0.93674010  1
  Te  Te171  1  0.91356693  0.08309933  0.23573822  1
  Te  Te172  1  0.91268450  0.11375433  0.60082036  1
  Te  Te173  1  0.89913079  0.07684619  0.90106625  1
  Te  Te174  1  0.92657216  0.38892953  0.27200053  1
  Te  Te175  1  0.90245205  0.42305736  0.58151547  1
  Te  Te176  1  0.91569303  0.41354281  0.91428249  1
  Te  Te177  1  0.89473240  0.77399593  0.26103021  1
  Te  Te178  1  0.90351914  0.74079938  0.57848912  1
  Te  Te179  1  0.92358871  0.73826671  0.91369687  1
