# generated using pymatgen
data_In2Te3
_symmetry_space_group_name_H-M   'P 1'
_cell_length_a   18.79846315
_cell_length_b   18.78432906
_cell_length_c   18.79624609
_cell_angle_alpha   89.90274453
_cell_angle_beta   90.00281518
_cell_angle_gamma   89.98010233
_symmetry_Int_Tables_number   1
_chemical_formula_structural   In2Te3
_chemical_formula_sum   'In72 Te108'
_cell_volume   6637.25499095
_cell_formula_units_Z   36
loop_
 _symmetry_equiv_pos_site_id
 _symmetry_equiv_pos_as_xyz
  1  'x, y, z'
loop_
 _atom_site_type_symbol
 _atom_site_label
 _atom_site_symmetry_multiplicity
 _atom_site_fract_x
 _atom_site_fract_y
 _atom_site_fract_z
 _atom_site_occupancy
  In  In0  1  0.81817543  -0.01402020  0.15547365  1
  In  In1  1  0.51559967  0.65439606  0.82489453  1
  In  In2  1  0.17524555  0.80276820  0.69685481  1
  In  In3  1  0.65268636  0.65016894  0.32032297  1
  In  In4  1  0.14811165  0.68273705  0.86452597  1
  In  In5  1  0.33385965  0.15663948  0.16722437  1
  In  In6  1  0.14770948  0.49765466  0.68448282  1
  In  In7  1  -0.01452417  0.35820873  0.00015381  1
  In  In8  1  0.51529990  0.18891578  -0.00174021  1
  In  In9  1  0.18338355  0.81450314  0.31127922  1
  In  In10  1  0.16842827  0.32304114  0.49578161  1
  In  In11  1  0.17949704  0.34262992  0.84604923  1
  In  In12  1  0.17286905  0.17054544  0.00155879  1
  In  In13  1  0.67463700  0.81636209  0.49594461  1
  In  In14  1  0.67483296  0.01033408  0.68769324  1
  In  In15  1  0.49953891  0.81235976  0.31258844  1
  In  In16  1  0.33881552  0.35148265  0.34192057  1
  In  In17  1  0.65845236  -0.00335417  -0.01139887  1
  In  In18  1  0.53225898  0.84223141  0.65726021  1
  In  In19  1  0.67308945  0.48568393  0.51378619  1
  In  In20  1  0.01145980  0.79622548  0.15056061  1
  In  In21  1  -0.00975728  0.01283506  0.66865911  1
  In  In22  1  0.01574726  0.00449322  -0.01607566  1
  In  In23  1  0.34426456  0.81901816  0.15526966  1
  In  In24  1  0.50072260  0.83784220  0.00466575  1
  In  In25  1  0.00175097  0.17059179  0.17680593  1
  In  In26  1  0.16182926  0.31181144  0.16288867  1
  In  In27  1  0.66310486  0.65259284  0.00250773  1
  In  In28  1  0.32879082  0.66761418  0.65697586  1
  In  In29  1  0.35515814  0.34895864  0.68113409  1
  In  In30  1  -0.03072566  0.18725806  0.81160290  1
  In  In31  1  0.15196578  0.00902963  0.50401561  1
  In  In32  1  0.81758909  0.63515718  0.49614445  1
  In  In33  1  0.32234085  -0.00672569  0.30851697  1
  In  In34  1  0.69103614  0.19753227  0.52454331  1
  In  In35  1  0.86873793  0.01288312  0.49815523  1
  In  In36  1  0.35944326  0.16536589  0.85007914  1
  In  In37  1  0.33126912  0.82351057  0.85349185  1
  In  In38  1  0.15104139  0.15901555  0.67174315  1
  In  In39  1  0.66152914  0.65588861  0.66594124  1
  In  In40  1  0.34202908  0.54325280  0.15078171  1
  In  In41  1  -0.00341640  0.83140350  0.85221863  1
  In  In42  1  0.83001331  0.17957332  0.34209179  1
  In  In43  1  0.34407245  0.48479624  0.48052789  1
  In  In44  1  -0.03293918  0.47678385  0.51710087  1
  In  In45  1  0.33829268  0.19812926  0.49900975  1
  In  In46  1  0.84266143  0.66563557  0.15640477  1
  In  In47  1  0.65915164  0.34755684  0.32264495  1
  In  In48  1  0.15612226  0.64731999  0.49953423  1
  In  In49  1  0.82000282  0.17918543  -0.02598084  1
  In  In50  1  0.01016288  -0.01984814  0.33952593  1
  In  In51  1  0.33122622  -0.01464201  0.00843868  1
  In  In52  1  0.33604285  0.49858975  0.84965960  1
  In  In53  1  -0.00993932  0.83485246  0.49203972  1
  In  In54  1  0.50607194  0.49567517  0.68269266  1
  In  In55  1  0.14871278  0.50253674  0.30770590  1
  In  In56  1  0.83692412  0.50376704  0.32356499  1
  In  In57  1  -0.01421129  0.50975642  0.83287150  1
  In  In58  1  0.51272732  0.50683019  -0.00827263  1
  In  In59  1  0.79999990  0.35769507  0.14536947  1
  In  In60  1  0.66864320  0.00164938  0.31315275  1
  In  In61  1  -0.00930914  0.51273354  0.16402975  1
  In  In62  1  0.35360213  0.00821508  0.69751032  1
  In  In63  1  -0.02848650  0.17291665  0.50393580  1
  In  In64  1  0.67772178  0.20761456  0.81616094  1
  In  In65  1  0.51320036  0.00902609  0.51415591  1
  In  In66  1  0.51524918  0.15321018  0.33456820  1
  In  In67  1  0.82420849  0.83310216  -0.01767647  1
  In  In68  1  0.51491962  0.35040626  0.15812076  1
  In  In69  1  0.82481442  0.82677554  0.66688747  1
  In  In70  1  0.36623983  0.81844999  0.45872267  1
  In  In71  1  0.82700923  0.66152354  0.84255660  1
  Te  Te72  1  0.09234742  0.07965274  0.09395875  1
  Te  Te73  1  0.07333987  0.09906051  0.41208451  1
  Te  Te74  1  0.07819790  0.07700554  0.77459585  1
  Te  Te75  1  0.09266387  0.42417187  0.08528831  1
  Te  Te76  1  0.08201658  0.42544436  0.42379171  1
  Te  Te77  1  0.06763849  0.39419574  0.75752924  1
  Te  Te78  1  0.10698678  0.70458121  0.08621805  1
  Te  Te79  1  0.08429319  0.74835731  0.40877892  1
  Te  Te80  1  0.05518459  0.73062882  0.74970934  1
  Te  Te81  1  0.42793882  0.08357398  0.07364329  1
  Te  Te82  1  0.40886774  0.07469453  0.42026092  1
  Te  Te83  1  0.44626718  0.11163025  0.74330619  1
  Te  Te84  1  0.41011600  0.42782399  0.07730069  1
  Te  Te85  1  0.45304336  0.41061494  0.41443841  1
  Te  Te86  1  0.44386670  0.40562458  0.79255566  1
  Te  Te87  1  0.43343656  0.72683814  0.07834627  1
  Te  Te88  1  0.43664116  0.70102039  0.39674975  1
  Te  Te89  1  0.42144383  0.75342995  0.74310757  1
  Te  Te90  1  0.74414812  0.09173593  0.07633695  1
  Te  Te91  1  0.74007442  0.08148605  0.42597262  1
  Te  Te92  1  0.76835390  0.10686996  0.74903472  1
  Te  Te93  1  0.71703456  0.44647026  0.05892635  1
  Te  Te94  1  0.76367904  0.40830456  0.41698308  1
  Te  Te95  1  0.73090701  0.35402950  0.73874987  1
  Te  Te96  1  0.74192236  0.75720212  0.08364390  1
  Te  Te97  1  0.75623951  0.73503307  0.39810160  1
  Te  Te98  1  0.73110911  0.75290666  0.76071518  1
  Te  Te99  1  0.06756563  0.26641900  0.26661179  1
  Te  Te100  1  0.06881648  0.25771094  0.59181613  1
  Te  Te101  1  0.06772613  0.24663345  0.92070616  1
  Te  Te102  1  0.07999652  0.61280399  0.23288934  1
  Te  Te103  1  0.05837479  0.58092450  0.59403381  1
  Te  Te104  1  0.08831297  0.56293522  0.92616468  1
  Te  Te105  1  0.08906568  0.90619371  0.23456852  1
  Te  Te106  1  0.07927886  0.90973184  0.59574256  1
  Te  Te107  1  0.10336528  0.90000357  0.92670672  1
  Te  Te108  1  0.42395049  0.25106051  0.25285161  1
  Te  Te109  1  0.43236480  0.25822742  0.59313188  1
  Te  Te110  1  0.42173436  0.27733088  0.92226949  1
  Te  Te111  1  0.39880055  0.60800816  0.27168536  1
  Te  Te112  1  0.41998790  0.57521047  0.58163886  1
  Te  Te113  1  0.41210113  0.60645598  0.92504322  1
  Te  Te114  1  0.43158258  0.92457028  0.23213134  1
  Te  Te115  1  0.40904695  0.91378986  0.58694467  1
  Te  Te116  1  0.42806559  0.92981814  0.90304705  1
  Te  Te117  1  0.74085193  0.24820477  0.23912763  1
  Te  Te118  1  0.78058992  0.29659246  0.59302807  1
  Te  Te119  1  0.72613633  0.29099404  0.93634761  1
  Te  Te120  1  0.74377423  0.56892699  0.22560535  1
  Te  Te121  1  0.76588990  0.55476316  0.61661613  1
  Te  Te122  1  0.75471820  0.55988698  0.92809861  1
  Te  Te123  1  0.74106973  0.89502606  0.24264506  1
  Te  Te124  1  0.74981753  0.92477628  0.57337724  1
  Te  Te125  1  0.75343866  0.92849585  0.89639369  1
  Te  Te126  1  0.27356074  0.25962599  0.07077883  1
  Te  Te127  1  0.24165094  0.24100474  0.39004102  1
  Te  Te128  1  0.25167573  0.24817376  0.74710189  1
  Te  Te129  1  0.23892586  0.62022183  0.07717156  1
  Te  Te130  1  0.24781211  0.57491947  0.40345249  1
  Te  Te131  1  0.24400352  0.59201828  0.75921716  1
  Te  Te132  1  0.24179933  0.90908867  0.09693808  1
  Te  Te133  1  0.24084676  0.91673078  0.42016083  1
  Te  Te134  1  0.24465023  0.91870905  0.76301037  1
  Te  Te135  1  0.60860064  0.25543780  0.09340117  1
  Te  Te136  1  0.58907313  0.25255529  0.42322674  1
  Te  Te137  1  0.59596200  0.29179412  0.72011532  1
  Te  Te138  1  0.56249304  0.59764579  0.10031834  1
  Te  Te139  1  0.58688019  0.56575595  0.42270997  1
  Te  Te140  1  0.61580319  0.55261641  0.77285033  1
  Te  Te141  1  0.59149581  0.91477546  0.09236467  1
  Te  Te142  1  0.57554783  0.90661903  0.41838296  1
  Te  Te143  1  0.58575931  0.92254208  0.76638386  1
  Te  Te144  1  0.90933131  0.24803433  0.08239662  1
  Te  Te145  1  0.90961698  0.27672082  0.41848530  1
  Te  Te146  1  0.87810173  0.29543128  0.76401575  1
  Te  Te147  1  0.90893365  0.57624749  0.05858116  1
  Te  Te148  1  0.93310328  0.58341121  0.40982833  1
  Te  Te149  1  0.89481217  0.58077482  0.73744141  1
  Te  Te150  1  0.92679621  0.91382434  0.07532270  1
  Te  Te151  1  0.89202355  0.90121309  0.39561872  1
  Te  Te152  1  0.91009503  0.91578024  0.75602664  1
  Te  Te153  1  0.22921606  0.08805563  0.24592825  1
  Te  Te154  1  0.25672770  0.08649589  0.58582294  1
  Te  Te155  1  0.25188813  0.07734787  0.91168186  1
  Te  Te156  1  0.25757148  0.42228093  0.23374082  1
  Te  Te157  1  0.24626849  0.42290699  0.59150082  1
  Te  Te158  1  0.24168362  0.43353666  0.94282351  1
  Te  Te159  1  0.28535393  0.71982337  0.25668779  1
  Te  Te160  1  0.24494810  0.75793591  0.56543935  1
  Te  Te161  1  0.25062613  0.74694681  0.95341371  1
  Te  Te162  1  0.58246886  0.08209941  0.22548347  1
  Te  Te163  1  0.59067792  0.10636978  0.60011799  1
  Te  Te164  1  0.59404147  0.10433254  0.89953061  1
  Te  Te165  1  0.58056386  0.44831257  0.24769110  1
  Te  Te166  1  0.57430404  0.39973882  0.58905531  1
  Te  Te167  1  0.60952107  0.39699500  0.95610415  1
  Te  Te168  1  0.58075626  0.73208997  0.21730715  1
  Te  Te169  1  0.57150424  0.72739317  0.56481966  1
  Te  Te170  1  0.59166628  0.75310789  0.91042856  1
  Te  Te171  1  0.90759829  0.07302611  0.25744051  1
  Te  Te172  1  0.88544713  0.11150558  0.61667971  1
  Te  Te173  1  0.90938378  0.07731953  0.90327641  1
  Te  Te174  1  0.91319862  0.40234631  0.23804829  1
  Te  Te175  1  0.90866979  0.38352250  0.61710153  1
  Te  Te176  1  0.89058971  0.41624568  0.90373091  1
  Te  Te177  1  0.92290897  0.74270784  0.25466040  1
  Te  Te178  1  0.90569644  0.73843659  0.57458491  1
  Te  Te179  1  0.92639946  0.72757507  0.93987196  1
