# generated using pymatgen
data_In2Te3
_symmetry_space_group_name_H-M   'P 1'
_cell_length_a   18.98649322
_cell_length_b   18.95980811
_cell_length_c   19.01301759
_cell_angle_alpha   89.95979176
_cell_angle_beta   90.39242885
_cell_angle_gamma   89.93664623
_symmetry_Int_Tables_number   1
_chemical_formula_structural   In2Te3
_chemical_formula_sum   'In72 Te108'
_cell_volume   6844.14472724
_cell_formula_units_Z   36
loop_
 _symmetry_equiv_pos_site_id
 _symmetry_equiv_pos_as_xyz
  1  'x, y, z'
loop_
 _atom_site_type_symbol
 _atom_site_label
 _atom_site_symmetry_multiplicity
 _atom_site_fract_x
 _atom_site_fract_y
 _atom_site_fract_z
 _atom_site_occupancy
  In  In0  1  0.64520656  0.14704451  0.82822278  1
  In  In1  1  0.48641833  0.66398787  0.49079506  1
  In  In2  1  0.31139833  0.50231429  0.47966778  1
  In  In3  1  0.85093501  0.82345929  0.35438599  1
  In  In4  1  0.17361924  0.85808133  0.69942796  1
  In  In5  1  0.50086665  -0.02193369  0.18492651  1
  In  In6  1  0.03942448  0.60063441  0.32086726  1
  In  In7  1  0.16944945  0.52890462  -0.01313137  1
  In  In8  1  -0.00910690  0.18847867  0.84126490  1
  In  In9  1  0.86695885  0.35192084  0.47911303  1
  In  In10  1  0.81675968  0.19458600  0.36824975  1
  In  In11  1  0.46590875  0.34634231  0.44648982  1
  In  In12  1  0.32873862  -0.02673818  0.01167485  1
  In  In13  1  0.51484431  0.49813010  0.62506747  1
  In  In14  1  0.84850291  0.40791065  0.19541735  1
  In  In15  1  0.04284106  0.48219652  0.48549335  1
  In  In16  1  0.00498994  0.02821809  0.68831005  1
  In  In17  1  -0.01762336  0.63310123  0.67805773  1
  In  In18  1  0.00527225  0.83138706  0.84705230  1
  In  In19  1  0.16090589  0.65925018  0.85030295  1
  In  In20  1  0.16910695  0.00695879  0.85375052  1
  In  In21  1  0.64324680  0.81862190  0.20612266  1
  In  In22  1  0.00506835  0.02128149  0.34667851  1
  In  In23  1  0.47523263  0.34676497  0.15349291  1
  In  In24  1  0.81471289  0.33122263  0.79992589  1
  In  In25  1  0.49552117  0.14005167  0.00567097  1
  In  In26  1  0.16940278  0.46157557  0.66306418  1
  In  In27  1  0.81806823  0.82583791  0.66306041  1
  In  In28  1  0.64953377  0.31846646  -0.03189364  1
  In  In29  1  0.16627620  0.71383481  0.53240666  1
  In  In30  1  0.15572006  0.00375520  0.16120246  1
  In  In31  1  0.17674433  0.83067940  0.33497112  1
  In  In32  1  0.16488415  0.32498969  0.83287505  1
  In  In33  1  0.65621898  0.49456748  0.14818996  1
  In  In34  1  0.65122334  -0.02113503  0.65246069  1
  In  In35  1  -0.01052661  0.84540111  0.53933605  1
  In  In36  1  0.67338484  0.65428542  0.64162312  1
  In  In37  1  0.49325894  0.18309536  0.29230425  1
  In  In38  1  0.32940725  0.71916183  0.01798846  1
  In  In39  1  0.65090124  0.79931695  0.48301592  1
  In  In40  1  0.01949929  0.18628242  0.19322993  1
  In  In41  1  0.36070860  0.49875804  0.83209516  1
  In  In42  1  0.50821421  0.33823359  0.81756140  1
  In  In43  1  0.73538521  0.51233210  0.79090216  1
  In  In44  1  0.85797787  0.63800465  0.15664576  1
  In  In45  1  0.81329107  -0.00074617  0.83808845  1
  In  In46  1  0.49802418  0.81051813  0.31645705  1
  In  In47  1  0.03552200  0.78849682  0.15958704  1
  In  In48  1  0.15870657  0.19357474  0.34072152  1
  In  In49  1  0.00493689  0.35749629  0.01453196  1
  In  In50  1  0.32228060  -0.00877418  0.32457340  1
  In  In51  1  0.46753563  -0.01591593  0.51682481  1
  In  In52  1  0.32999476  0.16284913  0.83677886  1
  In  In53  1  0.19030526  0.18643371  0.63997625  1
  In  In54  1  0.33456591  0.32808559  0.02286681  1
  In  In55  1  0.65970948  0.68643789  0.00635450  1
  In  In56  1  0.35454748  0.83697318  0.82515034  1
  In  In57  1  0.31436668  0.68744639  0.68196196  1
  In  In58  1  0.65263862  0.38307601  0.37858732  1
  In  In59  1  0.86188781  0.78648459  0.00628462  1
  In  In60  1  0.64850972  0.83386520  0.83178718  1
  In  In61  1  0.70621346  0.19576175  0.17471241  1
  In  In62  1  0.49188633  0.16920374  0.66958622  1
  In  In63  1  0.47005896  0.49915464  0.02243530  1
  In  In64  1  0.86550243  0.16530036  0.01265084  1
  In  In65  1  0.33546088  0.16904449  0.47950053  1
  In  In66  1  0.33513194  0.67180537  0.31388840  1
  In  In67  1  -0.00864462  0.17206974  0.50417059  1
  In  In68  1  0.83772508  0.49578419  0.00295103  1
  In  In69  1  0.85435489  -0.02985661  0.17714280  1
  In  In70  1  0.66301181  0.02199504  0.35882003  1
  In  In71  1  0.66964201  -0.04413140  0.04025312  1
  Te  Te72  1  0.06270699  0.09382963  0.09076132  1
  Te  Te73  1  0.10338936  0.08986551  0.43697723  1
  Te  Te74  1  0.10711328  0.11459624  0.76017635  1
  Te  Te75  1  0.12464972  0.41922541  0.07791570  1
  Te  Te76  1  0.12988161  0.40762388  0.38991146  1
  Te  Te77  1  0.07006047  0.41341420  0.76097956  1
  Te  Te78  1  0.06708071  0.69504496  0.05065631  1
  Te  Te79  1  0.06992423  0.77421447  0.43342690  1
  Te  Te80  1  0.08205322  0.74388356  0.73836966  1
  Te  Te81  1  0.41071130  0.07194477  0.10750024  1
  Te  Te82  1  0.43047747  0.08089953  0.38739848  1
  Te  Te83  1  0.43679629  0.08477810  0.77476362  1
  Te  Te84  1  0.36456805  0.45185800  0.11919584  1
  Te  Te85  1  0.40066349  0.45839293  0.36647952  1
  Te  Te86  1  0.42288910  0.41727336  0.72153850  1
  Te  Te87  1  0.42992256  0.76794959  0.11260721  1
  Te  Te88  1  0.39859652  0.76386662  0.41873717  1
  Te  Te89  1  0.42677085  0.72066862  0.76978249  1
  Te  Te90  1  0.77219643  0.06689458  0.08507017  1
  Te  Te91  1  0.75842766  0.08432502  0.45235083  1
  Te  Te92  1  0.73983529  0.07751889  0.73201285  1
  Te  Te93  1  0.74053874  0.39421314  0.06591525  1
  Te  Te94  1  0.77148979  0.45777534  0.43005283  1
  Te  Te95  1  0.75900793  0.40962149  0.68769096  1
  Te  Te96  1  0.75214466  0.74986347  0.11499774  1
  Te  Te97  1  0.75750149  0.72633869  0.41094988  1
  Te  Te98  1  0.73845874  0.74001434  0.75482662  1
  Te  Te99  1  0.10354269  0.29496362  0.24626292  1
  Te  Te100  1  0.07504864  0.26419128  0.58806636  1
  Te  Te101  1  0.08762362  0.25167894  0.94065206  1
  Te  Te102  1  0.05096265  0.52731137  0.18856538  1
  Te  Te103  1  0.10224939  0.58877461  0.59237329  1
  Te  Te104  1  0.07252073  0.54283224  0.87456628  1
  Te  Te105  1  0.06567089  0.91438507  0.25721722  1
  Te  Te106  1  0.09189490  0.93930287  0.60082075  1
  Te  Te107  1  0.09029276  0.91275361  0.93321208  1
  Te  Te108  1  0.37928097  0.26496088  0.23887406  1
  Te  Te109  1  0.42551682  0.25662780  0.56616865  1
  Te  Te110  1  0.43121809  0.25604300  0.92006874  1
  Te  Te111  1  0.40807135  0.56216055  0.25120897  1
  Te  Te112  1  0.39033697  0.58713801  0.58745183  1
  Te  Te113  1  0.39234156  0.59973438  0.93925105  1
  Te  Te114  1  0.38904144  0.88738095  0.23615800  1
  Te  Te115  1  0.41876247  0.87829049  0.60068423  1
  Te  Te116  1  0.42849039  0.91982318  0.92129030  1
  Te  Te117  1  0.76012700  0.30358027  0.26926981  1
  Te  Te118  1  0.77151457  0.24060268  0.50524589  1
  Te  Te119  1  0.75192403  0.21781288  0.91936594  1
  Te  Te120  1  0.77204514  0.54218163  0.23419577  1
  Te  Te121  1  0.69529811  0.57601653  0.51577097  1
  Te  Te122  1  0.74046159  0.58325502  0.92837668  1
  Te  Te123  1  0.74679224  0.91625400  0.27297959  1
  Te  Te124  1  0.73967943  0.90032596  0.55823301  1
  Te  Te125  1  0.76471218  0.89294449  0.93584935  1
  Te  Te126  1  0.27682743  0.24311783  0.12414206  1
  Te  Te127  1  0.25082864  0.27853359  0.42245615  1
  Te  Te128  1  0.27159768  0.26589434  0.74296423  1
  Te  Te129  1  0.21660703  0.63811363  0.08031623  1
  Te  Te130  1  0.24259695  0.62948901  0.43266825  1
  Te  Te131  1  0.24712270  0.56769744  0.75383469  1
  Te  Te132  1  0.23116732  0.89972867  0.09130896  1
  Te  Te133  1  0.24424116  0.92286099  0.42610440  1
  Te  Te134  1  0.27244733  0.95329490  0.75914941  1
  Te  Te135  1  0.57870122  0.24726719  0.08450407  1
  Te  Te136  1  0.57745875  0.24857894  0.39624589  1
  Te  Te137  1  0.60408428  0.25884865  0.73346958  1
  Te  Te138  1  0.56472393  0.59815245  0.08960153  1
  Te  Te139  1  0.58515401  0.59025736  0.41124036  1
  Te  Te140  1  0.59852024  0.56015868  0.73421895  1
  Te  Te141  1  0.54944694  0.86696709  0.08663763  1
  Te  Te142  1  0.56810096  0.91560867  0.41109388  1
  Te  Te143  1  0.56147728  0.91724358  0.74859755  1
  Te  Te144  1  0.91547277  0.27249316  0.10974915  1
  Te  Te145  1  0.95099749  0.26329173  0.38935486  1
  Te  Te146  1  0.89971496  0.23214807  0.73592613  1
  Te  Te147  1  0.95039892  0.58408753  0.05136337  1
  Te  Te148  1  0.94270083  0.57725981  0.42926737  1
  Te  Te149  1  0.86745635  0.55410110  0.72186140  1
  Te  Te150  1  0.94132067  0.88947926  0.08380739  1
  Te  Te151  1  0.91777299  0.93211156  0.43496328  1
  Te  Te152  1  0.90966137  0.91403273  0.74801515  1
  Te  Te153  1  0.23593057  0.09248202  0.25338438  1
  Te  Te154  1  0.28000654  0.08489405  0.58543288  1
  Te  Te155  1  0.25322629  0.09501683  0.94510311  1
  Te  Te156  1  0.16942420  0.52176899  0.30281840  1
  Te  Te157  1  0.25211408  0.39522487  0.56240629  1
  Te  Te158  1  0.26497298  0.41281255  0.91411356  1
  Te  Te159  1  0.22231680  0.73167301  0.23642318  1
  Te  Te160  1  0.27955728  0.80752282  0.59216827  1
  Te  Te161  1  0.24010017  0.77386872  0.90558250  1
  Te  Te162  1  0.60596325  0.08455255  0.23155886  1
  Te  Te163  1  0.56926239  0.08090526  0.57245100  1
  Te  Te164  1  0.60110461  0.05317210  0.94085061  1
  Te  Te165  1  0.57595984  0.41314330  0.24576455  1
  Te  Te166  1  0.57747096  0.40174289  0.53106863  1
  Te  Te167  1  0.56547130  0.43525961  0.91978075  1
  Te  Te168  1  0.59039439  0.70073596  0.27871074  1
  Te  Te169  1  0.56404366  0.74966385  0.59566993  1
  Te  Te170  1  0.56651339  0.73689068  0.90547724  1
  Te  Te171  1  0.89902346  0.08832883  0.26163990  1
  Te  Te172  1  0.91243396  0.08093034  0.58865327  1
  Te  Te173  1  0.92629378  0.06823751  0.91286635  1
  Te  Te174  1  0.95148253  0.46753092  0.28716929  1
  Te  Te175  1  0.96788936  0.39574277  0.57992054  1
  Te  Te176  1  0.90127946  0.39770352  0.90768654  1
  Te  Te177  1  0.92719673  0.73577044  0.25134873  1
  Te  Te178  1  0.90366879  0.72880667  0.58528839  1
  Te  Te179  1  0.91770846  0.72219390  0.88893021  1
