# generated using pymatgen
data_In2Te3
_symmetry_space_group_name_H-M   'P 1'
_cell_length_a   18.89551633
_cell_length_b   18.87740683
_cell_length_c   18.88553933
_cell_angle_alpha   89.96067923
_cell_angle_beta   90.20839913
_cell_angle_gamma   90.11102608
_symmetry_Int_Tables_number   1
_chemical_formula_structural   In2Te3
_chemical_formula_sum   'In72 Te108'
_cell_volume   6736.38194070
_cell_formula_units_Z   36
loop_
 _symmetry_equiv_pos_site_id
 _symmetry_equiv_pos_as_xyz
  1  'x, y, z'
loop_
 _atom_site_type_symbol
 _atom_site_label
 _atom_site_symmetry_multiplicity
 _atom_site_fract_x
 _atom_site_fract_y
 _atom_site_fract_z
 _atom_site_occupancy
  In  In0  1  0.01147845  0.65865929  0.00775010  1
  In  In1  1  0.32463595  0.13938151  0.16901622  1
  In  In2  1  0.01230404  0.52532960  0.18975724  1
  In  In3  1  0.69020803  -0.03981348  0.32158920  1
  In  In4  1  0.83545388  0.13188296  0.00206997  1
  In  In5  1  0.52588120  0.17728777  -0.02747681  1
  In  In6  1  0.50939946  0.54253040  -0.02009794  1
  In  In7  1  0.01211614  0.34503884  0.34896649  1
  In  In8  1  0.51544099  0.79195024  -0.03986448  1
  In  In9  1  -0.01097817  0.34746237  0.67293391  1
  In  In10  1  0.00684765  0.16479383  0.83866051  1
  In  In11  1  0.12240885  0.01002924  0.18131720  1
  In  In12  1  0.49109605  -0.00958945  0.14847981  1
  In  In13  1  0.29762494  0.81849703  0.18231063  1
  In  In14  1  0.17467206  0.02853079  0.51123226  1
  In  In15  1  0.32576778  0.32566299  -0.02510840  1
  In  In16  1  0.32846019  -0.02274032  -0.02275632  1
  In  In17  1  0.82333741  0.67442712  0.85332491  1
  In  In18  1  0.83622201  0.69149000  0.15015951  1
  In  In19  1  0.16112564  0.83222658  0.67126570  1
  In  In20  1  0.51218655  0.13592032  0.35188642  1
  In  In21  1  0.15188478  0.81976784  0.02754493  1
  In  In22  1  -0.00835587  0.00355758  0.67442391  1
  In  In23  1  0.32194132  0.65723689  -0.01232948  1
  In  In24  1  0.85493655  0.14680530  0.33802773  1
  In  In25  1  0.67195818  0.17649570  0.51696444  1
  In  In26  1  0.66696061  0.84229754  0.48328288  1
  In  In27  1  0.01546983  0.16386283  0.51206063  1
  In  In28  1  0.15991916  0.79118631  0.36540926  1
  In  In29  1  -0.02450852  0.15289816  0.17317017  1
  In  In30  1  0.16821079  0.20048549  -0.00942793  1
  In  In31  1  0.67698878  0.67018841  0.65895979  1
  In  In32  1  0.33443907  0.32196252  0.36856065  1
  In  In33  1  0.14530185  0.36173441  0.18528016  1
  In  In34  1  0.32387568  0.50998909  0.15681959  1
  In  In35  1  0.89530226  0.66601570  0.53862102  1
  In  In36  1  0.48747268  0.65480965  0.49398265  1
  In  In37  1  0.17503042  0.36200890  0.51523191  1
  In  In38  1  0.68309182  0.34345735  -0.02223536  1
  In  In39  1  0.50519979  0.66868245  0.15310661  1
  In  In40  1  0.15945505  -0.00917674  0.83694287  1
  In  In41  1  0.81888571  0.35160913  0.51717004  1
  In  In42  1  0.49274401  0.49443882  0.64907486  1
  In  In43  1  0.84071730  0.49850453  0.67454845  1
  In  In44  1  0.83777040  0.53264767  0.34787846  1
  In  In45  1  0.16479774  0.37228288  0.80694344  1
  In  In46  1  0.65816381  -0.01018816  -0.01308839  1
  In  In47  1  0.34714407  0.81115499  0.80096205  1
  In  In48  1  0.67841794  0.16096649  0.13966541  1
  In  In49  1  0.35691345  0.82716427  0.51607961  1
  In  In50  1  0.63160870  -0.01090133  0.68029180  1
  In  In51  1  0.33154085  -0.00363933  0.34298098  1
  In  In52  1  0.83745091  -0.00937462  0.49812636  1
  In  In53  1  0.80719430  -0.02588134  0.83154559  1
  In  In54  1  0.35355806  0.14303235  0.78479660  1
  In  In55  1  0.82933282  0.33329534  0.15745155  1
  In  In56  1  0.86464935  0.36492405  0.85807847  1
  In  In57  1  0.51236600  -0.00555643  0.51081752  1
  In  In58  1  0.64642562  0.18605492  0.79848459  1
  In  In59  1  0.33017188  0.34381863  0.67612954  1
  In  In60  1  0.63700275  0.48615752  0.51971120  1
  In  In61  1  0.15831673  0.48477187  -0.00539818  1
  In  In62  1  0.19012814  0.65801446  0.79941500  1
  In  In63  1  0.67527741  0.51484325  0.83810233  1
  In  In64  1  0.64481822  0.34607339  0.30691058  1
  In  In65  1  0.15088459  0.63925559  0.52573152  1
  In  In66  1  0.02035451  0.81761440  0.83421852  1
  In  In67  1  0.67303755  0.69001959  0.32641356  1
  In  In68  1  0.47059277  0.34602839  0.17768876  1
  In  In69  1  0.48728687  0.48087868  0.32708983  1
  In  In70  1  0.47600552  0.32743071  0.52462294  1
  In  In71  1  0.85855391  0.82222288  0.32236051  1
  Te  Te72  1  0.07848301  0.10655530  0.06615768  1
  Te  Te73  1  0.06634464  0.06645107  0.41665637  1
  Te  Te74  1  0.09727013  0.09154644  0.74085254  1
  Te  Te75  1  0.05051381  0.41280593  0.07776655  1
  Te  Te76  1  0.10817590  0.44756693  0.40574108  1
  Te  Te77  1  0.06751542  0.46201257  0.73510243  1
  Te  Te78  1  0.06738344  0.74191885  0.12069833  1
  Te  Te79  1  0.05453912  0.73372725  0.45512827  1
  Te  Te80  1  0.06526001  0.72268460  0.72200942  1
  Te  Te81  1  0.42108312  0.09273050  0.05825555  1
  Te  Te82  1  0.40383865  0.08534755  0.44376022  1
  Te  Te83  1  0.44216454  0.04931728  0.71561170  1
  Te  Te84  1  0.41136820  0.42869167  0.06041263  1
  Te  Te85  1  0.40258933  0.43559603  0.44482357  1
  Te  Te86  1  0.43812707  0.40732334  0.75703367  1
  Te  Te87  1  0.39612373  0.75725324  0.07566484  1
  Te  Te88  1  0.41092061  0.74494266  0.40733211  1
  Te  Te89  1  0.46281146  0.78761838  0.71399210  1
  Te  Te90  1  0.75879734  0.04170795  0.09583952  1
  Te  Te91  1  0.73131502  0.08073401  0.41419938  1
  Te  Te92  1  0.74163160  0.07630537  0.74127411  1
  Te  Te93  1  0.74794682  0.42631858  0.07890715  1
  Te  Te94  1  0.74016369  0.41845992  0.40458857  1
  Te  Te95  1  0.75460134  0.40849253  0.76303812  1
  Te  Te96  1  0.75904601  0.79304195  0.07685119  1
  Te  Te97  1  0.77193691  0.74735982  0.42964056  1
  Te  Te98  1  0.74590168  0.76231274  0.75594002  1
  Te  Te99  1  0.07358520  0.24554106  0.25142732  1
  Te  Te100  1  0.09066187  0.26225876  0.59969078  1
  Te  Te101  1  0.07918731  0.28351751  0.90123768  1
  Te  Te102  1  0.11617204  0.56355428  0.28921036  1
  Te  Te103  1  0.06518530  0.54237345  0.60038586  1
  Te  Te104  1  0.09825953  0.59160766  0.90357457  1
  Te  Te105  1  0.08800296  0.88866982  0.26760156  1
  Te  Te106  1  0.08169982  0.92516823  0.58197598  1
  Te  Te107  1  0.07454393  0.91813072  0.93851920  1
  Te  Te108  1  0.41934085  0.22809528  0.26220976  1
  Te  Te109  1  0.37132821  0.23419871  0.57864941  1
  Te  Te110  1  0.41712257  0.24082327  0.88827255  1
  Te  Te111  1  0.41384015  0.58971730  0.25001865  1
  Te  Te112  1  0.39871439  0.60054827  0.60224433  1
  Te  Te113  1  0.42427733  0.62086509  0.88883127  1
  Te  Te114  1  0.40594107  0.90891283  0.24479270  1
  Te  Te115  1  0.42113497  0.92713275  0.61248609  1
  Te  Te116  1  0.42997138  0.90501338  0.89689805  1
  Te  Te117  1  0.74651326  0.23782861  0.25568988  1
  Te  Te118  1  0.76389494  0.24872868  0.60538697  1
  Te  Te119  1  0.74486343  0.22074800  0.91647461  1
  Te  Te120  1  0.75242645  0.59321401  0.23989004  1
  Te  Te121  1  0.75626487  0.57642047  0.56612237  1
  Te  Te122  1  0.74569604  0.58794179  0.94667912  1
  Te  Te123  1  0.75367654  0.86956378  0.22120633  1
  Te  Te124  1  0.73978206  0.92061739  0.59075267  1
  Te  Te125  1  0.75874643  0.88612867  0.94316238  1
  Te  Te126  1  0.25506081  0.26256385  0.10071743  1
  Te  Te127  1  0.21908591  0.25299060  0.42451808  1
  Te  Te128  1  0.24373667  0.24986963  0.76107197  1
  Te  Te129  1  0.22085994  0.59267579  0.08341832  1
  Te  Te130  1  0.21862693  0.57490659  0.40811382  1
  Te  Te131  1  0.27286875  0.57353596  0.71206435  1
  Te  Te132  1  0.24041680  0.93530960  0.09291611  1
  Te  Te133  1  0.24719223  0.90526976  0.43081414  1
  Te  Te134  1  0.25742627  0.92553203  0.74370496  1
  Te  Te135  1  0.57206568  0.26090010  0.09204600  1
  Te  Te136  1  0.57366225  0.26536714  0.41699668  1
  Te  Te137  1  0.55120388  0.27693171  0.73256189  1
  Te  Te138  1  0.60741874  0.62423801  0.05470120  1
  Te  Te139  1  0.59043220  0.57610185  0.40177345  1
  Te  Te140  1  0.58279427  0.58354624  0.73876189  1
  Te  Te141  1  0.56953934  0.89130677  0.06499330  1
  Te  Te142  1  0.56452200  0.91071074  0.39411833  1
  Te  Te143  1  0.58945235  0.86838098  0.76067783  1
  Te  Te144  1  0.91375844  0.24483791  0.06737902  1
  Te  Te145  1  0.91049827  0.25859567  0.42609578  1
  Te  Te146  1  0.90888294  0.25335168  0.76249715  1
  Te  Te147  1  0.91184757  0.57398615  0.08568199  1
  Te  Te148  1  0.94783589  0.60809335  0.41259341  1
  Te  Te149  1  0.90737661  0.58719817  0.76929677  1
  Te  Te150  1  0.99037773  0.93877940  0.15637657  1
  Te  Te151  1  0.92983434  0.91911191  0.41067135  1
  Te  Te152  1  0.91475512  0.89715922  0.75068294  1
  Te  Te153  1  0.23083299  0.08578623  0.27195537  1
  Te  Te154  1  0.27298735  0.11097374  0.57930743  1
  Te  Te155  1  0.25012646  0.09280610  0.91389537  1
  Te  Te156  1  0.26840734  0.41067336  0.25779975  1
  Te  Te157  1  0.24992760  0.45391306  0.61086697  1
  Te  Te158  1  0.26714700  0.44254192  0.89696708  1
  Te  Te159  1  0.24149742  0.71341762  0.26834954  1
  Te  Te160  1  0.25046506  0.74436412  0.58714896  1
  Te  Te161  1  0.23813140  0.76582505  0.90718359  1
  Te  Te162  1  0.58928140  0.07169555  0.23469463  1
  Te  Te163  1  0.56542609  0.10850478  0.60044063  1
  Te  Te164  1  0.58062019  0.06986187  0.88305904  1
  Te  Te165  1  0.58222396  0.44611955  0.21077768  1
  Te  Te166  1  0.59635601  0.37119391  0.61493860  1
  Te  Te167  1  0.57329360  0.41990665  0.91071001  1
  Te  Te168  1  0.57706325  0.76208215  0.24221874  1
  Te  Te169  1  0.58192876  0.75029381  0.56933764  1
  Te  Te170  1  0.62476599  0.75831274  0.86687832  1
  Te  Te171  1  0.90214513  0.04075451  0.24379508  1
  Te  Te172  1  0.90417458  0.09474936  0.58898973  1
  Te  Te173  1  0.92035307  0.05684305  0.90249942  1
  Te  Te174  1  0.91161791  0.42045709  0.26016338  1
  Te  Te175  1  0.93650208  0.43926020  0.55862226  1
  Te  Te176  1  0.95129849  0.43694210  0.94774587  1
  Te  Te177  1  0.94779490  0.73516077  0.23978827  1
  Te  Te178  1  0.93768349  0.77276620  0.62529014  1
  Te  Te179  1  0.92402246  0.75984821  0.93604758  1
