# generated using pymatgen
data_In2Te3
_symmetry_space_group_name_H-M   'P 1'
_cell_length_a   19.00709016
_cell_length_b   19.03489890
_cell_length_c   19.01336760
_cell_angle_alpha   90.13769695
_cell_angle_beta   90.09667959
_cell_angle_gamma   89.99987199
_symmetry_Int_Tables_number   1
_chemical_formula_structural   In2Te3
_chemical_formula_sum   'In72 Te108'
_cell_volume   6878.96946638
_cell_formula_units_Z   36
loop_
 _symmetry_equiv_pos_site_id
 _symmetry_equiv_pos_as_xyz
  1  'x, y, z'
loop_
 _atom_site_type_symbol
 _atom_site_label
 _atom_site_symmetry_multiplicity
 _atom_site_fract_x
 _atom_site_fract_y
 _atom_site_fract_z
 _atom_site_occupancy
  In  In0  1  0.00515982  0.64442770  0.33358910  1
  In  In1  1  0.36935731  0.36504946  0.01995482  1
  In  In2  1  -0.02546424  0.51096168  0.12582585  1
  In  In3  1  0.19352972  -0.02243477  0.83160758  1
  In  In4  1  -0.01182258  -0.02353746  0.66923352  1
  In  In5  1  0.34089297  0.18176601  0.82276943  1
  In  In6  1  0.63963552  0.46208318  0.48851589  1
  In  In7  1  0.33677767  0.49810751  0.83131516  1
  In  In8  1  0.79574279  0.47464880  0.33623802  1
  In  In9  1  0.80985153  0.34818127  0.14124477  1
  In  In10  1  0.50079781  0.85889679  0.33614270  1
  In  In11  1  0.22062031  0.51238887  0.29683234  1
  In  In12  1  0.17757253  0.17382283  0.65466280  1
  In  In13  1  0.51176116  0.66128537  0.49211517  1
  In  In14  1  0.36704647  0.18402088  0.49251730  1
  In  In15  1  0.60912434  0.24885719  0.19130249  1
  In  In16  1  0.67775609  0.37605827  0.70780220  1
  In  In17  1  0.02937445  0.82762848  0.17944243  1
  In  In18  1  0.78595001  0.19852682  0.01359353  1
  In  In19  1  0.69063093  0.18118254  0.84394030  1
  In  In20  1  0.51895183  0.65826989  0.81125746  1
  In  In21  1  0.34081065  0.01204728  0.02089144  1
  In  In22  1  0.83536637  0.81032831  0.32755965  1
  In  In23  1  -0.00577487  0.50383159  0.84747348  1
  In  In24  1  0.66910406  0.82577129  0.85068707  1
  In  In25  1  -0.00571865  0.46781081  0.49490107  1
  In  In26  1  0.50257507  0.35986826  0.86009638  1
  In  In27  1  0.84481461  0.18030456  0.34397023  1
  In  In28  1  -0.01551332  0.81686099  0.50916828  1
  In  In29  1  0.63991797  0.01080128  0.65879012  1
  In  In30  1  0.17370961  0.17236282  0.32888450  1
  In  In31  1  0.34129419  0.66933566  -0.02364223  1
  In  In32  1  0.34468345  0.65243277  0.65325781  1
  In  In33  1  0.17914600  0.66253804  0.15745728  1
  In  In34  1  0.84430096  0.17520527  0.63830934  1
  In  In35  1  -0.00329219  -0.00216143  0.01188535  1
  In  In36  1  0.64959154  0.64550805  0.00417170  1
  In  In37  1  0.50300827  0.03778434  0.18317040  1
  In  In38  1  0.16057110  0.00833466  0.19938895  1
  In  In39  1  0.35022738  0.47515300  0.45993276  1
  In  In40  1  0.84141385  -0.01817990  0.20234838  1
  In  In41  1  0.65052570  0.82300546  0.16314706  1
  In  In42  1  0.31451785  0.82285395  0.15531431  1
  In  In43  1  0.65074080  0.49098481  0.17314898  1
  In  In44  1  0.16255768  0.50903410  -0.02525778  1
  In  In45  1  -0.01880044  0.18144632  0.17682887  1
  In  In46  1  0.49860530  0.19999745  0.65185106  1
  In  In47  1  0.66161903  0.00362557  0.03386456  1
  In  In48  1  0.66406102  0.83318691  0.49434818  1
  In  In49  1  0.16908874  0.01498074  0.48719362  1
  In  In50  1  0.16271780  0.63497200  0.49174054  1
  In  In51  1  0.66418451  0.23689941  0.47850772  1
  In  In52  1  0.68980560  0.60934499  0.66437981  1
  In  In53  1  0.17854785  0.19751986  0.01001947  1
  In  In54  1  0.17337979  0.81049354  -0.00708650  1
  In  In55  1  0.33876446  0.84930056  0.52361714  1
  In  In56  1  -0.00238292  0.33476329  0.33161214  1
  In  In57  1  0.80946199  -0.00288843  0.50267816  1
  In  In58  1  0.33422445  0.02073004  0.34694346  1
  In  In59  1  0.15446385  0.49695287  0.66893861  1
  In  In60  1  0.50396744  0.83804886  0.65511031  1
  In  In61  1  0.18853853  0.37499884  0.15009080  1
  In  In62  1  -0.02306207  0.35711951  0.68450774  1
  In  In63  1  0.66849098  0.66715076  0.32226859  1
  In  In64  1  0.01894046  0.14656717  0.84522936  1
  In  In65  1  0.16220377  0.33362818  0.50162255  1
  In  In66  1  0.80215895  -0.00253236  0.85186098  1
  In  In67  1  0.01375379  0.77917125  0.85382947  1
  In  In68  1  0.83747477  0.62782211  0.88931524  1
  In  In69  1  0.16976168  0.83215915  0.69556068  1
  In  In70  1  0.84524843  0.80047268  0.68246412  1
  In  In71  1  0.47659589  0.02230570  0.85683302  1
  Te  Te72  1  0.08209300  0.09670341  0.09054351  1
  Te  Te73  1  0.08113039  0.11044757  0.42175340  1
  Te  Te74  1  0.09290719  0.06534697  0.73766672  1
  Te  Te75  1  0.07424229  0.41865689  0.05896710  1
  Te  Te76  1  0.10517672  0.42755610  0.39594081  1
  Te  Te77  1  0.08965310  0.40947029  0.77136593  1
  Te  Te78  1  0.07482595  0.72975430  0.07109081  1
  Te  Te79  1  0.08361706  0.74107519  0.41814684  1
  Te  Te80  1  0.06467832  0.73709388  0.72565953  1
  Te  Te81  1  0.43576997  0.10825957  0.07431912  1
  Te  Te82  1  0.44652812  0.10085146  0.39881374  1
  Te  Te83  1  0.42482665  0.09149196  0.73480092  1
  Te  Te84  1  0.44292820  0.45785018  0.10902261  1
  Te  Te85  1  0.45512593  0.39156957  0.39809218  1
  Te  Te86  1  0.41161760  0.40035546  0.75162071  1
  Te  Te87  1  0.40810082  0.73234000  0.09133440  1
  Te  Te88  1  0.42304104  0.76486202  0.42765749  1
  Te  Te89  1  0.41841739  0.74974133  0.74275756  1
  Te  Te90  1  0.77364612  0.07468078  0.10530090  1
  Te  Te91  1  0.74202650  0.10917232  0.42840367  1
  Te  Te92  1  0.75550602  0.08603854  0.73533175  1
  Te  Te93  1  0.72795721  0.43773619  0.05644203  1
  Te  Te94  1  0.72257979  0.36508387  0.40663854  1
  Te  Te95  1  0.78534566  0.45470219  0.77903497  1
  Te  Te96  1  0.73460203  0.73027292  0.08962421  1
  Te  Te97  1  0.75467465  0.73156424  0.42877247  1
  Te  Te98  1  0.73263969  0.72957255  0.75361522  1
  Te  Te99  1  0.09705390  0.27120155  0.23088066  1
  Te  Te100  1  0.07093508  0.26543435  0.59832301  1
  Te  Te101  1  0.07655875  0.25509357  0.92372895  1
  Te  Te102  1  0.08348113  0.56190999  0.23113685  1
  Te  Te103  1  0.05849161  0.57480257  0.58267110  1
  Te  Te104  1  0.08560850  0.60793396  0.89914196  1
  Te  Te105  1  0.07716327  0.92199899  0.27998487  1
  Te  Te106  1  0.09145902  0.91119375  0.57705933  1
  Te  Te107  1  0.07525087  0.91739772  0.90882860  1
  Te  Te108  1  0.47418871  0.26704262  0.25934205  1
  Te  Te109  1  0.39157617  0.28338640  0.59902675  1
  Te  Te110  1  0.42300091  0.25002946  0.92894738  1
  Te  Te111  1  0.35171683  0.51524813  0.22008742  1
  Te  Te112  1  0.42515513  0.56210693  0.56585253  1
  Te  Te113  1  0.44038733  0.57373595  0.91020095  1
  Te  Te114  1  0.39925615  0.92514928  0.24254886  1
  Te  Te115  1  0.44974733  0.93704508  0.56255862  1
  Te  Te116  1  0.40125321  0.91981271  0.92553047  1
  Te  Te117  1  0.75854612  0.24750383  0.24062079  1
  Te  Te118  1  0.74243784  0.27891205  0.60708479  1
  Te  Te119  1  0.78185148  0.28844524  0.89307592  1
  Te  Te120  1  0.75899999  0.58199548  0.23682435  1
  Te  Te121  1  0.75278474  0.53428558  0.55604022  1
  Te  Te122  1  0.70432166  0.56206670  0.89413198  1
  Te  Te123  1  0.73143551  0.90233224  0.26762930  1
  Te  Te124  1  0.74809888  0.90742231  0.60914501  1
  Te  Te125  1  0.74660967  0.90351724  0.95513023  1
  Te  Te126  1  0.28037039  0.26490614  0.09702085  1
  Te  Te127  1  0.26151705  0.26120842  0.41338699  1
  Te  Te128  1  0.24454919  0.26207037  0.74896983  1
  Te  Te129  1  0.26176293  0.57519834  0.06711451  1
  Te  Te130  1  0.28169733  0.60001470  0.40562439  1
  Te  Te131  1  0.24679568  0.58737277  0.74828677  1
  Te  Te132  1  0.21885064  0.92517276  0.08003868  1
  Te  Te133  1  0.25324101  0.91300240  0.41457858  1
  Te  Te134  1  0.27689802  0.92555766  0.72439068  1
  Te  Te135  1  0.64164184  0.24705403  0.03948354  1
  Te  Te136  1  0.52843052  0.25638482  0.41009129  1
  Te  Te137  1  0.58505045  0.25774288  0.76816170  1
  Te  Te138  1  0.55540540  0.58033245  0.10176605  1
  Te  Te139  1  0.57908582  0.56899087  0.39375336  1
  Te  Te140  1  0.56938970  0.54831499  0.72380455  1
  Te  Te141  1  0.55570142  0.91816906  0.09470930  1
  Te  Te142  1  0.58829605  0.93640781  0.42594244  1
  Te  Te143  1  0.58121949  0.92048268  0.76558606  1
  Te  Te144  1  0.91611311  0.26399175  0.07134936  1
  Te  Te145  1  0.92262535  0.26541054  0.43428951  1
  Te  Te146  1  0.92753820  0.22945417  0.75150221  1
  Te  Te147  1  0.90407485  0.58089858  0.02124300  1
  Te  Te148  1  0.90767589  0.55607011  0.40542305  1
  Te  Te149  1  0.89301392  0.57218720  0.76012242  1
  Te  Te150  1  0.92122669  0.90295672  0.10058283  1
  Te  Te151  1  0.90361798  0.90945613  0.42062437  1
  Te  Te152  1  0.90132891  0.91087451  0.77377652  1
  Te  Te153  1  0.27158963  0.10421625  0.23610206  1
  Te  Te154  1  0.26965635  0.09082437  0.56905687  1
  Te  Te155  1  0.24541745  0.09172151  0.91629814  1
  Te  Te156  1  0.28765932  0.37996575  0.26318782  1
  Te  Te157  1  0.25050616  0.43363443  0.57236493  1
  Te  Te158  1  0.26014583  0.40492816  0.92222220  1
  Te  Te159  1  0.23747536  0.75195840  0.25649955  1
  Te  Te160  1  0.24230468  0.73814230  0.57881327  1
  Te  Te161  1  0.25545082  0.75150073  0.88955954  1
  Te  Te162  1  0.61761246  0.10709676  0.23874048  1
  Te  Te163  1  0.60012827  0.12342192  0.57068802  1
  Te  Te164  1  0.60064214  0.08189413  0.91816877  1
  Te  Te165  1  0.57086727  0.38941480  0.24902917  1
  Te  Te166  1  0.57176355  0.41365716  0.61091775  1
  Te  Te167  1  0.59412859  0.37690648  0.97822122  1
  Te  Te168  1  0.55813093  0.74404887  0.25449437  1
  Te  Te169  1  0.59744064  0.73338071  0.59468111  1
  Te  Te170  1  0.56368585  0.75023383  0.92395448  1
  Te  Te171  1  0.93418380  0.07747554  0.27481862  1
  Te  Te172  1  0.92741352  0.07025805  0.56763747  1
  Te  Te173  1  0.90254620  0.08304348  0.92734288  1
  Te  Te174  1  0.91025603  0.41893406  0.24002181  1
  Te  Te175  1  0.88800114  0.42351544  0.58683839  1
  Te  Te176  1  0.88795682  0.40546514  0.88547822  1
  Te  Te177  1  0.92520753  0.72932306  0.23774626  1
  Te  Te178  1  0.89816059  0.71968077  0.57379644  1
  Te  Te179  1  0.89655254  0.75617730  0.93436017  1
