# generated using pymatgen
data_In2Te3
_symmetry_space_group_name_H-M   'P 1'
_cell_length_a   19.00873539
_cell_length_b   19.02600779
_cell_length_c   19.01417143
_cell_angle_alpha   89.74910488
_cell_angle_beta   90.04047435
_cell_angle_gamma   90.01602489
_symmetry_Int_Tables_number   1
_chemical_formula_structural   In2Te3
_chemical_formula_sum   'In72 Te108'
_cell_volume   6876.60393951
_cell_formula_units_Z   36
loop_
 _symmetry_equiv_pos_site_id
 _symmetry_equiv_pos_as_xyz
  1  'x, y, z'
loop_
 _atom_site_type_symbol
 _atom_site_label
 _atom_site_symmetry_multiplicity
 _atom_site_fract_x
 _atom_site_fract_y
 _atom_site_fract_z
 _atom_site_occupancy
  In  In0  1  0.67520245  0.66940373  0.32085373  1
  In  In1  1  0.16820973  -0.00231819  0.49530930  1
  In  In2  1  0.66555810  0.85496922  0.19328377  1
  In  In3  1  0.51501846  0.84487884  0.00664063  1
  In  In4  1  0.32368445  0.65301423  0.66181639  1
  In  In5  1  0.68066323  0.15542385  0.50619884  1
  In  In6  1  0.35790801  0.00365012  0.32983209  1
  In  In7  1  0.86956255  0.31887326  0.51413571  1
  In  In8  1  0.67333061  0.49652215  0.51269325  1
  In  In9  1  0.51893646  0.14324774  0.01807466  1
  In  In10  1  0.35209335  0.15842941  0.17565850  1
  In  In11  1  0.34930734  0.14623064  0.49587802  1
  In  In12  1  -0.00589604  0.82706950  0.85537401  1
  In  In13  1  0.83925835  0.17091804  0.00107489  1
  In  In14  1  0.32626610  0.86088788  0.16654555  1
  In  In15  1  0.83125848  0.68139237  0.84407898  1
  In  In16  1  -0.02928145  0.63167619  0.34917259  1
  In  In17  1  0.02151016  0.11981012  0.70171249  1
  In  In18  1  0.65945513  0.14916272  0.18665724  1
  In  In19  1  0.17116730  0.65435230  0.50407141  1
  In  In20  1  0.16952207  0.64425776  0.82047192  1
  In  In21  1  0.67009611  0.51542823  0.17328073  1
  In  In22  1  0.18337761  0.15018614  -0.02257824  1
  In  In23  1  0.66209510  0.18062882  0.86148965  1
  In  In24  1  0.16226466  0.83948824  0.31273759  1
  In  In25  1  0.49236580  0.68088646  0.50606929  1
  In  In26  1  0.49097657  0.50500456  0.32533776  1
  In  In27  1  0.64666771  0.85266512  0.45968196  1
  In  In28  1  0.81656029  0.00109675  0.84431263  1
  In  In29  1  0.49034038  0.85008948  0.64800136  1
  In  In30  1  0.83904652  0.19415800  0.69204069  1
  In  In31  1  -0.01288553  -0.00441025  0.00486233  1
  In  In32  1  0.16408931  0.82496970  0.64046564  1
  In  In33  1  0.33715089  0.67478670  0.35091712  1
  In  In34  1  0.16034505  0.34698054  0.16093592  1
  In  In35  1  0.17330288  0.31208389  0.85062514  1
  In  In36  1  0.30227344  0.32395884  0.65606867  1
  In  In37  1  0.50594775  0.68878689  0.15943557  1
  In  In38  1  0.82490562  0.00741797  0.16697895  1
  In  In39  1  0.08097579  0.34552316  0.51816503  1
  In  In40  1  0.69738354  0.33060325  0.33555079  1
  In  In41  1  0.32994244  0.64383408  -0.01295446  1
  In  In42  1  -0.05786987  0.35992573  0.33787936  1
  In  In43  1  0.83443997  0.47622048  0.65233819  1
  In  In44  1  0.85276488  0.82091464  0.66921916  1
  In  In45  1  0.17238666  0.83378610  0.02007108  1
  In  In46  1  0.84246544  0.66295673  0.18374819  1
  In  In47  1  0.50240627  0.14316184  0.67548881  1
  In  In48  1  0.00272934  0.49170134  0.82632623  1
  In  In49  1  0.32175993  0.49230605  0.13503021  1
  In  In50  1  -0.01361216  0.35319769  0.02952257  1
  In  In51  1  0.00854969  0.83092278  0.52396355  1
  In  In52  1  0.82499454  0.50274700  0.03225758  1
  In  In53  1  -0.00125175  0.65746190  0.64682303  1
  In  In54  1  0.16670347  0.15995331  0.34120471  1
  In  In55  1  0.33560073  -0.00532597  0.66797625  1
  In  In56  1  0.85139969  0.00660036  0.48742335  1
  In  In57  1  0.49656130  0.49910180  0.67013586  1
  In  In58  1  0.14043332  0.49228506  -0.00765344  1
  In  In59  1  0.02816397  0.00066883  0.32169465  1
  In  In60  1  0.65979348  0.83985657  0.84580091  1
  In  In61  1  0.34244425  0.32305301  -0.01169504  1
  In  In62  1  0.49729335  0.32704370  0.81847792  1
  In  In63  1  0.66744900  -0.02154008  0.65894601  1
  In  In64  1  0.34435157  0.31783391  0.32155333  1
  In  In65  1  0.51165895  0.33074308  0.48560129  1
  In  In66  1  0.66915938  0.68003581  -0.00624913  1
  In  In67  1  0.66768087  0.48062043  0.79880959  1
  In  In68  1  0.10960837  0.68418643  0.19030225  1
  In  In69  1  -0.00249047  0.16415565  0.14879755  1
  In  In70  1  0.35125705  0.83929891  0.83404535  1
  In  In71  1  0.48327962  0.49328521  -0.02871510  1
  Te  Te72  1  0.09607004  0.07600562  0.07754099  1
  Te  Te73  1  0.06919848  0.09572954  0.43571194  1
  Te  Te74  1  0.13564238  0.11096268  0.80385136  1
  Te  Te75  1  0.06037790  0.45126096  0.11638433  1
  Te  Te76  1  0.07331238  0.40394414  0.38436686  1
  Te  Te77  1  0.08643996  0.39176002  0.76037574  1
  Te  Te78  1  0.05996144  0.75712026  0.07539577  1
  Te  Te79  1  0.09467797  0.75891570  0.42337033  1
  Te  Te80  1  0.07377284  0.74942163  0.74274481  1
  Te  Te81  1  0.39605144  0.07484339  0.06436871  1
  Te  Te82  1  0.44073292  0.10953406  0.38858706  1
  Te  Te83  1  0.40875943  0.07675487  0.76719174  1
  Te  Te84  1  0.43141027  0.40292152  0.08246901  1
  Te  Te85  1  0.40943536  0.41856709  0.41871229  1
  Te  Te86  1  0.39753101  0.41026402  0.74239970  1
  Te  Te87  1  0.40048345  0.75036546  0.06966783  1
  Te  Te88  1  0.43021585  0.77032218  0.40783788  1
  Te  Te89  1  0.41818193  0.74796019  0.73404328  1
  Te  Te90  1  0.73989524  0.08242609  0.06826539  1
  Te  Te91  1  0.74547058  0.06923152  0.40374436  1
  Te  Te92  1  0.74095328  0.08239280  0.74027334  1
  Te  Te93  1  0.72868786  0.41039397  0.09079520  1
  Te  Te94  1  0.77207056  0.41264831  0.43752761  1
  Te  Te95  1  0.77337504  0.39083255  0.75493566  1
  Te  Te96  1  0.73446494  0.74379407  0.11092910  1
  Te  Te97  1  0.74724347  0.75961900  0.40915008  1
  Te  Te98  1  0.74089886  0.75570357  0.74790333  1
  Te  Te99  1  0.08541883  0.24447333  0.24336919  1
  Te  Te100  1  0.07846388  0.22698191  0.61708372  1
  Te  Te101  1  0.07512284  0.25931191  0.95392230  1
  Te  Te102  1  0.09523054  0.58022662  0.29073087  1
  Te  Te103  1  0.07663091  0.56077161  0.56954695  1
  Te  Te104  1  0.06171230  0.59880654  0.91615769  1
  Te  Te105  1  0.08070523  0.91388372  0.21592228  1
  Te  Te106  1  0.07380942  0.94097927  0.60352268  1
  Te  Te107  1  0.09047347  0.92128744  0.92011556  1
  Te  Te108  1  0.44394019  0.25119600  0.24013775  1
  Te  Te109  1  0.42569656  0.24843827  0.58690166  1
  Te  Te110  1  0.43440337  0.23203634  0.91597451  1
  Te  Te111  1  0.40977114  0.58600426  0.22533454  1
  Te  Te112  1  0.41014793  0.57041837  0.56786169  1
  Te  Te113  1  0.40355120  0.57628385  0.88215007  1
  Te  Te114  1  0.43999553  0.93264658  0.22802051  1
  Te  Te115  1  0.41823179  0.94042423  0.55926895  1
  Te  Te116  1  0.41583687  0.92496711  0.93229482  1
  Te  Te117  1  0.76363367  0.22435194  0.26041433  1
  Te  Te118  1  0.75082140  0.26027102  0.58878283  1
  Te  Te119  1  0.77791612  0.25979653  0.90065312  1
  Te  Te120  1  0.77338652  0.55299043  0.28109267  1
  Te  Te121  1  0.74785816  0.58395893  0.60262891  1
  Te  Te122  1  0.74195277  0.57713221  0.91194136  1
  Te  Te123  1  0.76499115  0.92508210  0.27637435  1
  Te  Te124  1  0.76807169  0.90655923  0.57163286  1
  Te  Te125  1  0.75863741  0.90023598  0.93674504  1
  Te  Te126  1  0.25058720  0.25082689  0.08665575  1
  Te  Te127  1  0.25807993  0.24558076  0.42332724  1
  Te  Te128  1  0.25806075  0.22677881  0.76247400  1
  Te  Te129  1  0.22123544  0.59242263  0.07946074  1
  Te  Te130  1  0.25714171  0.57342079  0.41606739  1
  Te  Te131  1  0.22792076  0.55892869  0.71962477  1
  Te  Te132  1  0.26496767  0.94157035  0.06030551  1
  Te  Te133  1  0.25474160  0.91521695  0.40440196  1
  Te  Te134  1  0.24256315  0.90118058  0.74418391  1
  Te  Te135  1  0.60714740  0.24021354  0.08347573  1
  Te  Te136  1  0.59747967  0.23749370  0.40711624  1
  Te  Te137  1  0.59457722  0.24357151  0.73956852  1
  Te  Te138  1  0.56894744  0.58301031  0.07143021  1
  Te  Te139  1  0.58422462  0.58358202  0.41815252  1
  Te  Te140  1  0.58871229  0.58709864  0.74038855  1
  Te  Te141  1  0.58865708  0.93496054  0.09610508  1
  Te  Te142  1  0.61722413  0.96712872  0.36668373  1
  Te  Te143  1  0.56816593  0.92290196  0.75792085  1
  Te  Te144  1  0.89231722  0.26538472  0.10786338  1
  Te  Te145  1  0.89878632  0.23388014  0.39833652  1
  Te  Te146  1  0.96862916  0.25969451  0.73216280  1
  Te  Te147  1  0.92065458  0.60260329  0.07685013  1
  Te  Te148  1  0.91430090  0.59095171  0.47678501  1
  Te  Te149  1  0.90648499  0.58952448  0.74818781  1
  Te  Te150  1  0.92312676  0.91414352  0.10904426  1
  Te  Te151  1  0.94225988  0.91288987  0.41392483  1
  Te  Te152  1  0.91742814  0.91873861  0.76088226  1
  Te  Te153  1  0.24844780  0.07410500  0.25008851  1
  Te  Te154  1  0.24495202  0.08876651  0.58835707  1
  Te  Te155  1  0.26916083  0.09231173  0.87226895  1
  Te  Te156  1  0.25524052  0.42138218  0.25087100  1
  Te  Te157  1  0.21195338  0.39492334  0.56652524  1
  Te  Te158  1  0.25212227  0.42462880  0.91862523  1
  Te  Te159  1  0.25211445  0.74355055  0.23373289  1
  Te  Te160  1  0.27098718  0.75549543  0.56331819  1
  Te  Te161  1  0.24190584  0.74692304  0.90481154  1
  Te  Te162  1  0.56654724  0.04755869  0.24427886  1
  Te  Te163  1  0.57723130  0.06350298  0.57144383  1
  Te  Te164  1  0.59591823  0.06614134  0.91900306  1
  Te  Te165  1  0.59172889  0.41631385  0.25921004  1
  Te  Te166  1  0.58715719  0.40297146  0.59410264  1
  Te  Te167  1  0.58873860  0.40672439  0.90847662  1
  Te  Te168  1  0.56675245  0.76434892  0.27210971  1
  Te  Te169  1  0.59470650  0.76660098  0.57582914  1
  Te  Te170  1  0.56215788  0.73982719  0.90686922  1
  Te  Te171  1  0.92390543  0.08574435  0.25382309  1
  Te  Te172  1  0.90639555  0.09108495  0.60158796  1
  Te  Te173  1  0.92434704  0.09004174  0.90317880  1
  Te  Te174  1  0.87752188  0.44694625  0.24289066  1
  Te  Te175  1  0.95539902  0.41805143  0.58626713  1
  Te  Te176  1  0.90757508  0.42650222  0.92357080  1
  Te  Te177  1  0.91479057  0.74653666  0.27885512  1
  Te  Te178  1  0.89777303  0.72467252  0.55141422  1
  Te  Te179  1  0.88158781  0.78092426  0.93990355  1
