# generated using pymatgen
data_In2Te3
_symmetry_space_group_name_H-M   'P 1'
_cell_length_a   18.76968710
_cell_length_b   18.76477118
_cell_length_c   18.76472206
_cell_angle_alpha   89.94961189
_cell_angle_beta   89.94688727
_cell_angle_gamma   89.88676434
_symmetry_Int_Tables_number   1
_chemical_formula_structural   In2Te3
_chemical_formula_sum   'In72 Te108'
_cell_volume   6609.08351265
_cell_formula_units_Z   36
loop_
 _symmetry_equiv_pos_site_id
 _symmetry_equiv_pos_as_xyz
  1  'x, y, z'
loop_
 _atom_site_type_symbol
 _atom_site_label
 _atom_site_symmetry_multiplicity
 _atom_site_fract_x
 _atom_site_fract_y
 _atom_site_fract_z
 _atom_site_occupancy
  In  In0  1  -0.01597588  0.84018458  0.48273319  1
  In  In1  1  0.82963955  0.86738914  0.64836075  1
  In  In2  1  0.16360917  0.81836594  0.00043211  1
  In  In3  1  0.68016430  0.85239195  0.18853196  1
  In  In4  1  0.66725564  0.66699992  0.65646438  1
  In  In5  1  0.33393738  0.65144001  0.34293161  1
  In  In6  1  0.82901796  0.33352352  0.18354031  1
  In  In7  1  0.68742145  0.14251762  0.80745470  1
  In  In8  1  0.33289296  0.83159090  0.16699935  1
  In  In9  1  0.18292718  -0.00354276  0.82025280  1
  In  In10  1  0.84400181  0.49955828  0.64432678  1
  In  In11  1  0.63336061  0.66567640  0.00181211  1
  In  In12  1  0.02784706  0.49366007  0.82526821  1
  In  In13  1  0.34542435  0.17980839  0.85613061  1
  In  In14  1  0.03883592  0.33749027  0.00055783  1
  In  In15  1  -0.03163376  0.16127267  0.49885800  1
  In  In16  1  0.52319054  -0.00266921  0.85012627  1
  In  In17  1  0.65908554  0.50417836  0.81280364  1
  In  In18  1  0.18144143  0.21994472  0.01121355  1
  In  In19  1  0.14673279  -0.01432498  0.50449727  1
  In  In20  1  0.50468795  0.83336581  0.33544599  1
  In  In21  1  -0.02053670  0.66030425  0.33638109  1
  In  In22  1  0.82767242  0.47970078  0.01788149  1
  In  In23  1  0.50109294  0.82198189  0.66252368  1
  In  In24  1  -0.01023635  0.00287520  -0.00394235  1
  In  In25  1  0.83403202  0.14787918  0.01050143  1
  In  In26  1  0.17431453  0.33691825  0.50167191  1
  In  In27  1  0.16976054  0.65917455  0.14374639  1
  In  In28  1  0.50228407  0.66370343  0.50725943  1
  In  In29  1  0.52691706  0.16404950  0.64685331  1
  In  In30  1  0.65884472  0.85233877  0.84903070  1
  In  In31  1  0.36268488  0.49315000  0.49702135  1
  In  In32  1  -0.01561048  0.66125345  -0.00562645  1
  In  In33  1  -0.00476554  0.16404853  0.17223228  1
  In  In34  1  -0.01572017  0.34511511  0.67051314  1
  In  In35  1  -0.01321009  0.52505767  0.49823789  1
  In  In36  1  0.01535284  0.68114580  0.67055762  1
  In  In37  1  -0.03315871  0.00518431  0.33688476  1
  In  In38  1  0.49109552  0.33305958  0.83782849  1
  In  In39  1  0.35026534  0.47338090  0.17571609  1
  In  In40  1  0.34676092  0.03613537  0.04203444  1
  In  In41  1  0.17682566  0.49336538  0.31988057  1
  In  In42  1  0.83896748  0.31298975  0.82548831  1
  In  In43  1  0.82114936  0.65710460  0.47790003  1
  In  In44  1  0.53980857  0.02672735  0.20502638  1
  In  In45  1  0.53383192  0.01704824  0.48856360  1
  In  In46  1  0.50332331  0.82348310  -0.00903343  1
  In  In47  1  -0.01354616  0.00447584  0.65046324  1
  In  In48  1  0.68320334  0.34146343  0.34770315  1
  In  In49  1  0.33206142  0.14159726  0.48829706  1
  In  In50  1  0.18001966  0.18088544  0.68270674  1
  In  In51  1  0.83133252  0.68077388  0.84583312  1
  In  In52  1  0.17946841  0.68518978  0.55056946  1
  In  In53  1  0.28879387  0.49983295  0.83783172  1
  In  In54  1  0.49411073  0.50757986  0.00878405  1
  In  In55  1  0.35205236  -0.01778212  0.68561337  1
  In  In56  1  0.64288473  0.30499605  0.03265425  1
  In  In57  1  0.15009011  0.85235812  0.34397132  1
  In  In58  1  0.34039834  0.66709412  -0.00300122  1
  In  In59  1  0.66458259  0.01816760  -0.00134684  1
  In  In60  1  0.84045894  0.84693269  -0.00109721  1
  In  In61  1  0.33474071  0.32711007  0.68019936  1
  In  In62  1  0.51399429  0.34696453  0.48492641  1
  In  In63  1  0.67233104  0.67118641  0.33502693  1
  In  In64  1  0.15281802  0.01280463  0.19681120  1
  In  In65  1  0.82797644  0.66161412  0.17716925  1
  In  In66  1  0.34468114  0.83078993  0.82318224  1
  In  In67  1  0.51085967  0.48145850  0.31800929  1
  In  In68  1  -0.02877131  0.31275357  0.34453883  1
  In  In69  1  0.16556041  0.17580158  0.30539083  1
  In  In70  1  0.68118221  0.31766363  0.61310449  1
  In  In71  1  0.32573492  0.01370129  0.35478030  1
  Te  Te72  1  0.09648073  0.09492364  0.07943404  1
  Te  Te73  1  0.08532120  0.08856224  0.40638282  1
  Te  Te74  1  0.08145578  0.08353334  0.74665673  1
  Te  Te75  1  0.12624383  0.43549367  0.06405883  1
  Te  Te76  1  0.07407473  0.41702395  0.41680706  1
  Te  Te77  1  0.10263378  0.39949342  0.73891513  1
  Te  Te78  1  0.06152170  0.75506408  0.09378173  1
  Te  Te79  1  0.08560348  0.73321574  0.42618662  1
  Te  Te80  1  0.11062930  0.71609977  0.77578975  1
  Te  Te81  1  0.47004448  0.11044759  0.08976291  1
  Te  Te82  1  0.44610276  0.10222032  0.39499610  1
  Te  Te83  1  0.42701163  0.10008319  0.75276070  1
  Te  Te84  1  0.42305408  0.39214912  0.07241429  1
  Te  Te85  1  0.40449581  0.39446709  0.38929983  1
  Te  Te86  1  0.41156911  0.43300995  0.75635977  1
  Te  Te87  1  0.43027768  0.73798594  0.09588789  1
  Te  Te88  1  0.40831705  0.75566624  0.42522400  1
  Te  Te89  1  0.39600970  0.73022409  0.72269487  1
  Te  Te90  1  0.74394142  0.07996488  0.10658529  1
  Te  Te91  1  0.71728751  0.04198141  0.37672138  1
  Te  Te92  1  0.76471458  0.05668340  0.71520482  1
  Te  Te93  1  0.72272288  0.41457479  0.10579379  1
  Te  Te94  1  0.77893064  0.42725922  0.42167026  1
  Te  Te95  1  0.75544369  0.40982918  0.73576451  1
  Te  Te96  1  0.73806088  0.75673584  0.07024297  1
  Te  Te97  1  0.75437661  0.77000883  0.40958090  1
  Te  Te98  1  0.74660109  0.76397512  0.74952199  1
  Te  Te99  1  0.07733618  0.27652999  0.23349993  1
  Te  Te100  1  0.08298705  0.23441663  0.57330100  1
  Te  Te101  1  0.07707043  0.23009571  0.90704324  1
  Te  Te102  1  0.08079873  0.58581965  0.24513411  1
  Te  Te103  1  0.08870665  0.56549871  0.60210430  1
  Te  Te104  1  0.09096866  0.58247748  0.92563989  1
  Te  Te105  1  0.05108296  0.90988197  0.24550726  1
  Te  Te106  1  0.07496285  0.88804797  0.59526136  1
  Te  Te107  1  0.08867847  0.91749908  0.91144887  1
  Te  Te108  1  0.39054371  0.20536172  0.21317257  1
  Te  Te109  1  0.41220303  0.24460474  0.57717242  1
  Te  Te110  1  0.40673607  0.27898263  0.94926722  1
  Te  Te111  1  0.42775487  0.58803162  0.24348276  1
  Te  Te112  1  0.40212426  0.59650110  0.59470456  1
  Te  Te113  1  0.41447036  0.57793461  0.90042125  1
  Te  Te114  1  0.41609031  0.92957172  0.24863797  1
  Te  Te115  1  0.43504462  0.92861568  0.57043021  1
  Te  Te116  1  0.40412186  0.92932916  0.92857994  1
  Te  Te117  1  0.74175303  0.23462615  0.25368680  1
  Te  Te118  1  0.78076996  0.23539956  0.54258953  1
  Te  Te119  1  0.74212842  0.24930788  0.92580674  1
  Te  Te120  1  0.73430513  0.56966940  0.24439484  1
  Te  Te121  1  0.73258521  0.56477033  0.56358982  1
  Te  Te122  1  0.74952261  0.57929947  0.92606170  1
  Te  Te123  1  0.76165863  0.95490103  0.25627632  1
  Te  Te124  1  0.71929285  0.94997955  0.59516864  1
  Te  Te125  1  0.76387029  0.94437163  0.90718928  1
  Te  Te126  1  0.27499739  0.25647372  0.11909625  1
  Te  Te127  1  0.25584863  0.24733363  0.40744742  1
  Te  Te128  1  0.24225902  0.27139410  0.78877703  1
  Te  Te129  1  0.26457338  0.56069353  0.07598622  1
  Te  Te130  1  0.23733065  0.57758303  0.43440678  1
  Te  Te131  1  0.21064033  0.60074164  0.75893012  1
  Te  Te132  1  0.23686517  0.92033140  0.08857401  1
  Te  Te133  1  0.25884866  0.90294361  0.43800632  1
  Te  Te134  1  0.23397823  0.88857518  0.72367985  1
  Te  Te135  1  0.55856879  0.24119927  0.13796067  1
  Te  Te136  1  0.59929167  0.24184197  0.42595109  1
  Te  Te137  1  0.59475318  0.25950852  0.74598788  1
  Te  Te138  1  0.58792284  0.57093793  0.10509192  1
  Te  Te139  1  0.58394843  0.57219766  0.41556743  1
  Te  Te140  1  0.56871468  0.59150377  0.73696025  1
  Te  Te141  1  0.57709224  0.91915665  0.08441423  1
  Te  Te142  1  0.60849605  0.92118409  0.39797779  1
  Te  Te143  1  0.58947497  0.92899592  0.73388955  1
  Te  Te144  1  0.91668087  0.26336585  0.07271016  1
  Te  Te145  1  0.86489583  0.22381833  0.40745178  1
  Te  Te146  1  0.91837436  0.22992008  0.73405996  1
  Te  Te147  1  0.92211827  0.56742676  0.09842406  1
  Te  Te148  1  0.87920691  0.54384590  0.38539658  1
  Te  Te149  1  0.91035695  0.58482702  0.75379256  1
  Te  Te150  1  0.90632188  0.93463167  0.09699759  1
  Te  Te151  1  0.88340211  0.93842947  0.43981590  1
  Te  Te152  1  0.93238767  0.90383029  0.74641864  1
  Te  Te153  1  0.28261352  0.09638364  0.22602001  1
  Te  Te154  1  0.24632695  0.07058686  0.59463533  1
  Te  Te155  1  0.24982094  0.08428006  0.92763031  1
  Te  Te156  1  0.24949909  0.38751774  0.24523135  1
  Te  Te157  1  0.25827810  0.42590868  0.59077385  1
  Te  Te158  1  0.22250832  0.41652384  0.94237566  1
  Te  Te159  1  0.23830546  0.74946056  0.25638920  1
  Te  Te160  1  0.28024588  0.77136880  0.61182210  1
  Te  Te161  1  0.24684403  0.73800869  0.90033762  1
  Te  Te162  1  0.62478052  0.12455004  0.29042666  1
  Te  Te163  1  0.63599864  0.08984924  0.57524701  1
  Te  Te164  1  0.57862686  0.11884620  0.91856738  1
  Te  Te165  1  0.57107802  0.36661019  0.24424374  1
  Te  Te166  1  0.57863735  0.42204662  0.59328698  1
  Te  Te167  1  0.59653115  0.41438653  0.92197795  1
  Te  Te168  1  0.58036087  0.74625724  0.23588999  1
  Te  Te169  1  0.60171941  0.76694410  0.56032891  1
  Te  Te170  1  0.56442960  0.73519371  0.88293790  1
  Te  Te171  1  0.88956504  0.10031090  0.25288814  1
  Te  Te172  1  0.87304823  0.08670864  0.59009764  1
  Te  Te173  1  0.91467658  0.08929487  0.90185060  1
  Te  Te174  1  0.93776527  0.41562706  0.24165998  1
  Te  Te175  1  0.90696144  0.39796888  0.54914455  1
  Te  Te176  1  0.91610081  0.41736969  0.90978816  1
  Te  Te177  1  0.89635330  0.75914776  0.26517333  1
  Te  Te178  1  0.90249985  0.73787146  0.58161117  1
  Te  Te179  1  0.93595387  0.77467606  0.90182609  1
