# generated using pymatgen
data_In2Te3
_symmetry_space_group_name_H-M   'P 1'
_cell_length_a   18.88761909
_cell_length_b   18.87396481
_cell_length_c   18.89119144
_cell_angle_alpha   89.94295332
_cell_angle_beta   89.85368208
_cell_angle_gamma   89.95304355
_symmetry_Int_Tables_number   1
_chemical_formula_structural   In2Te3
_chemical_formula_sum   'In72 Te108'
_cell_volume   6734.38481940
_cell_formula_units_Z   36
loop_
 _symmetry_equiv_pos_site_id
 _symmetry_equiv_pos_as_xyz
  1  'x, y, z'
loop_
 _atom_site_type_symbol
 _atom_site_label
 _atom_site_symmetry_multiplicity
 _atom_site_fract_x
 _atom_site_fract_y
 _atom_site_fract_z
 _atom_site_occupancy
  In  In0  1  0.16341260  0.50286263  0.64426131  1
  In  In1  1  0.15804258  0.46122397  0.04203858  1
  In  In2  1  0.51440412  0.50644235  0.67172432  1
  In  In3  1  0.29142579  0.33892461  0.34111455  1
  In  In4  1  0.34954446  0.17372557  0.48508256  1
  In  In5  1  0.85368617  0.34997737  0.18218856  1
  In  In6  1  0.02351483  0.63230396  0.32193564  1
  In  In7  1  0.02321766  0.01804270  0.65756681  1
  In  In8  1  0.13887437  0.82500783  0.00195194  1
  In  In9  1  0.35763129  0.01349431  0.66246671  1
  In  In10  1  0.50361274  0.65103148  0.49009061  1
  In  In11  1  0.33430847  0.82708553  0.17966328  1
  In  In12  1  0.84677143  0.48456189  0.31837315  1
  In  In13  1  0.48090512  0.83054521  0.32330696  1
  In  In14  1  0.00052519  0.83687882  0.16846188  1
  In  In15  1  0.83647357  0.35038067  0.80485405  1
  In  In16  1  0.67695988  0.67987469  -0.01909806  1
  In  In17  1  0.64832498  0.46949451  0.17618172  1
  In  In18  1  0.66180529  0.65600203  0.34209910  1
  In  In19  1  0.82733382  0.01652619  0.18430696  1
  In  In20  1  0.82695247  0.17447056  0.00445522  1
  In  In21  1  0.49307946  0.64786352  0.16807777  1
  In  In22  1  0.85016845  0.51129586  0.01520064  1
  In  In23  1  0.85681182  0.64203526  0.14446781  1
  In  In24  1  0.34343817  0.03074658  0.01462484  1
  In  In25  1  0.32395004  0.47470147  0.17763812  1
  In  In26  1  0.32685509  0.32809832  0.64973831  1
  In  In27  1  0.61595465  0.88276092  0.14171647  1
  In  In28  1  0.19117669  0.83935831  0.66149784  1
  In  In29  1  0.16487485  0.66790969  0.83692819  1
  In  In30  1  0.63574518  0.86372950  0.83411586  1
  In  In31  1  0.48619425  0.48647693  -0.00289648  1
  In  In32  1  0.34667946  0.85340634  0.80483503  1
  In  In33  1  0.01959375  0.17647681  0.51529640  1
  In  In34  1  0.16564316  0.19163848  0.65979876  1
  In  In35  1  0.48427295  0.29589579  0.86205844  1
  In  In36  1  0.82485734  0.83191330  -0.02837723  1
  In  In37  1  -0.00265078  0.65703062  0.04761657  1
  In  In38  1  0.02674441  0.66088504  0.65903791  1
  In  In39  1  0.82299040  -0.00049964  0.83085870  1
  In  In40  1  0.84039050  0.18216278  0.66779613  1
  In  In41  1  -0.03240333  -0.00614408  0.32340072  1
  In  In42  1  0.66789586  0.49371961  0.49871801  1
  In  In43  1  0.16972465  -0.01198171  0.48427653  1
  In  In44  1  0.66695231  0.84102762  0.49045625  1
  In  In45  1  0.31696620  0.83036641  0.49752236  1
  In  In46  1  -0.00937065  0.86021667  0.85622256  1
  In  In47  1  0.86217970  0.35436051  0.51545732  1
  In  In48  1  0.00751153  0.51622619  0.84306998  1
  In  In49  1  0.83139262  0.83049366  0.35229414  1
  In  In50  1  0.15466761  0.18096150  0.30175997  1
  In  In51  1  0.48813393  0.16039449  0.32209712  1
  In  In52  1  0.64658739  0.13825841  0.50900017  1
  In  In53  1  0.19028247  0.19113809  0.03108101  1
  In  In54  1  0.18015643  0.82327506  0.33505651  1
  In  In55  1  0.64716516  0.31631419  0.31685251  1
  In  In56  1  -0.00457315  0.02862851  0.00154433  1
  In  In57  1  0.82092043  0.18378331  0.34260514  1
  In  In58  1  0.19556990  0.02428880  0.16742991  1
  In  In59  1  0.35089655  0.69849480  0.65657608  1
  In  In60  1  0.67058844  0.66376627  0.65834495  1
  In  In61  1  0.83368234  0.66277386  0.81929309  1
  In  In62  1  0.34716257  0.66455302  0.00327670  1
  In  In63  1  0.33966229  0.50174359  0.83452766  1
  In  In64  1  0.17366840  0.61646402  0.45312765  1
  In  In65  1  0.62852198  0.30452839  0.01899639  1
  In  In66  1  0.17353969  0.32681665  0.85445213  1
  In  In67  1  0.82389451  0.82410947  0.63953771  1
  In  In68  1  0.65769028  0.16099630  0.84051210  1
  In  In69  1  0.49175519  0.01920593  0.83899734  1
  In  In70  1  0.66332240  0.32898028  0.66975132  1
  In  In71  1  0.64663242  0.00885723  0.32889908  1
  Te  Te72  1  0.08087645  0.09879290  0.10329811  1
  Te  Te73  1  0.07786016  0.07911027  0.40345471  1
  Te  Te74  1  0.07888575  0.11384273  0.75175535  1
  Te  Te75  1  0.07017591  0.34323345  0.07168320  1
  Te  Te76  1  0.13669240  0.36463927  0.46193785  1
  Te  Te77  1  0.10146755  0.42796987  0.76177323  1
  Te  Te78  1  0.10444841  0.73578523  0.12142858  1
  Te  Te79  1  0.08263360  0.73929209  0.41270967  1
  Te  Te80  1  0.08262965  0.77158535  0.76151968  1
  Te  Te81  1  0.42544462  0.13950787  0.07945240  1
  Te  Te82  1  0.43291229  0.06876133  0.42506468  1
  Te  Te83  1  0.40101603  0.10934781  0.76531569  1
  Te  Te84  1  0.41841841  0.39305772  0.09118670  1
  Te  Te85  1  0.37534405  0.42173629  0.42979896  1
  Te  Te86  1  0.42237305  0.40268407  0.75564657  1
  Te  Te87  1  0.43393517  0.75957769  0.08322705  1
  Te  Te88  1  0.40283839  0.73603489  0.41280655  1
  Te  Te89  1  0.44092673  0.75174113  0.75746964  1
  Te  Te90  1  0.74700719  0.07293507  0.07592725  1
  Te  Te91  1  0.75240655  0.07185437  0.41820699  1
  Te  Te92  1  0.74241830  0.08737025  0.73728862  1
  Te  Te93  1  0.74545827  0.41005465  0.07548576  1
  Te  Te94  1  0.74793883  0.40183473  0.40211501  1
  Te  Te95  1  0.74591633  0.43595723  0.72727791  1
  Te  Te96  1  0.76274882  0.75134573  0.08368407  1
  Te  Te97  1  0.75519029  0.72798874  0.43640049  1
  Te  Te98  1  0.74603809  0.77400899  0.76657564  1
  Te  Te99  1  0.09954182  0.28967159  0.21614655  1
  Te  Te100  1  0.07643250  0.29471716  0.59081719  1
  Te  Te101  1  0.08503178  0.23709722  0.93239504  1
  Te  Te102  1  0.10035548  0.54366662  0.23439037  1
  Te  Te103  1  0.06107103  0.54954400  0.54079986  1
  Te  Te104  1  0.10227662  0.58020343  0.94475766  1
  Te  Te105  1  0.09249393  0.92624233  0.24919851  1
  Te  Te106  1  0.08241094  0.90295441  0.57530437  1
  Te  Te107  1  0.09658841  0.94728744  0.91865978  1
  Te  Te108  1  0.37885047  0.24615996  0.26154453  1
  Te  Te109  1  0.42842970  0.24245572  0.58692076  1
  Te  Te110  1  0.39167878  0.24932656  0.97006819  1
  Te  Te111  1  0.40318628  0.57305250  0.25908753  1
  Te  Te112  1  0.41001052  0.57728837  0.58567796  1
  Te  Te113  1  0.43735550  0.59624832  0.90142987  1
  Te  Te114  1  0.42771854  0.92991409  0.22788989  1
  Te  Te115  1  0.40739208  0.89018924  0.59669196  1
  Te  Te116  1  0.40938042  0.92169889  0.92337874  1
  Te  Te117  1  0.74778249  0.24775539  0.22656026  1
  Te  Te118  1  0.74968900  0.25358886  0.56405812  1
  Te  Te119  1  0.74538955  0.26654707  0.90499185  1
  Te  Te120  1  0.74419191  0.58010230  0.23620172  1
  Te  Te121  1  0.75774407  0.57314950  0.58235940  1
  Te  Te122  1  0.75479154  0.56985456  0.91014095  1
  Te  Te123  1  0.74300305  0.90837368  0.25279216  1
  Te  Te124  1  0.73464802  0.92942741  0.58751876  1
  Te  Te125  1  0.72690444  0.93969687  0.93179830  1
  Te  Te126  1  0.29791436  0.27294909  0.09549435  1
  Te  Te127  1  0.21412667  0.23637382  0.43762882  1
  Te  Te128  1  0.26546293  0.24547000  0.76354311  1
  Te  Te129  1  0.25628140  0.57714326  0.08391905  1
  Te  Te130  1  0.29060023  0.54667832  0.39204238  1
  Te  Te131  1  0.25482548  0.59014651  0.74205507  1
  Te  Te132  1  0.24233628  0.90904321  0.07896479  1
  Te  Te133  1  0.27405664  0.93006643  0.39053371  1
  Te  Te134  1  0.24126324  0.94704710  0.75178642  1
  Te  Te135  1  0.55651994  0.22055913  0.11606675  1
  Te  Te136  1  0.57169707  0.24057563  0.42500948  1
  Te  Te137  1  0.56784861  0.23729313  0.74509377  1
  Te  Te138  1  0.59106439  0.57739860  0.07292022  1
  Te  Te139  1  0.56815973  0.54985377  0.39595394  1
  Te  Te140  1  0.59966670  0.58520020  0.76035206  1
  Te  Te141  1  0.55084533  0.97973871  0.05576908  1
  Te  Te142  1  0.56002153  0.92102270  0.41821302  1
  Te  Te143  1  0.57140345  0.95039984  0.72856531  1
  Te  Te144  1  0.92032674  0.25774460  0.08398411  1
  Te  Te145  1  0.93156104  0.25753163  0.41919469  1
  Te  Te146  1  0.93688053  0.26712253  0.73774182  1
  Te  Te147  1  0.96096124  0.52887166  0.12461632  1
  Te  Te148  1  0.90921820  0.58716651  0.40157209  1
  Te  Te149  1  0.92194786  0.57543912  0.73185716  1
  Te  Te150  1  0.91484922  0.91591581  0.07110530  1
  Te  Te151  1  0.91879640  0.91338475  0.43516778  1
  Te  Te152  1  0.91742889  0.92044781  0.73882823  1
  Te  Te153  1  0.27703518  0.10789006  0.25836146  1
  Te  Te154  1  0.24316659  0.08080541  0.57869786  1
  Te  Te155  1  0.24802298  0.09989951  0.92859544  1
  Te  Te156  1  0.19563961  0.41879788  0.24882959  1
  Te  Te157  1  0.25438184  0.42048663  0.55271207  1
  Te  Te158  1  0.26202023  0.42037286  0.93498008  1
  Te  Te159  1  0.25631964  0.72765319  0.25441585  1
  Te  Te160  1  0.22370214  0.72117716  0.56438705  1
  Te  Te161  1  0.25548170  0.75993163  0.91670239  1
  Te  Te162  1  0.59544868  0.10769356  0.22994625  1
  Te  Te163  1  0.58594160  0.04775028  0.60586055  1
  Te  Te164  1  0.57528705  0.08830034  0.94451962  1
  Te  Te165  1  0.54451284  0.39783268  0.24982783  1
  Te  Te166  1  0.57006339  0.40454518  0.57368034  1
  Te  Te167  1  0.58188804  0.40379982  0.91137661  1
  Te  Te168  1  0.58843679  0.74963373  0.24729839  1
  Te  Te169  1  0.57723032  0.75133477  0.57758741  1
  Te  Te170  1  0.57357759  0.76900388  0.92854229  1
  Te  Te171  1  0.92227781  0.11643024  0.24581549  1
  Te  Te172  1  0.91405753  0.08450520  0.57485924  1
  Te  Te173  1  0.91281111  0.10184006  0.89729353  1
  Te  Te174  1  0.95446492  0.38634055  0.28614993  1
  Te  Te175  1  0.94316110  0.45399974  0.58327315  1
  Te  Te176  1  0.92241996  0.41746189  0.91903348  1
  Te  Te177  1  0.91315965  0.74418560  0.25112729  1
  Te  Te178  1  0.92571445  0.73479830  0.58295705  1
  Te  Te179  1  0.93409026  0.72732291  0.92292762  1
