# generated using pymatgen
data_In2Te3
_symmetry_space_group_name_H-M   'P 1'
_cell_length_a   18.76659157
_cell_length_b   18.77555827
_cell_length_c   18.77470364
_cell_angle_alpha   90.01498268
_cell_angle_beta   90.04132898
_cell_angle_gamma   89.96847045
_symmetry_Int_Tables_number   1
_chemical_formula_structural   In2Te3
_chemical_formula_sum   'In72 Te108'
_cell_volume   6615.32458835
_cell_formula_units_Z   36
loop_
 _symmetry_equiv_pos_site_id
 _symmetry_equiv_pos_as_xyz
  1  'x, y, z'
loop_
 _atom_site_type_symbol
 _atom_site_label
 _atom_site_symmetry_multiplicity
 _atom_site_fract_x
 _atom_site_fract_y
 _atom_site_fract_z
 _atom_site_occupancy
  In  In0  1  0.67584164  0.28184029  0.67288096  1
  In  In1  1  0.16928484  0.50150166  0.02155228  1
  In  In2  1  0.51983578  0.86649280  0.67689094  1
  In  In3  1  0.50538587  0.83816611  0.30087446  1
  In  In4  1  0.18746300  0.49841416  0.31599178  1
  In  In5  1  0.48909016  0.81153858  0.02219518  1
  In  In6  1  0.66208146  0.65769386  0.00884200  1
  In  In7  1  0.82983199  0.33857928  0.13614394  1
  In  In8  1  0.16638110  0.14732053  0.67067958  1
  In  In9  1  0.84564922  0.67529006  0.16345819  1
  In  In10  1  0.84262807  0.00460253  0.14654354  1
  In  In11  1  0.34820810  0.32192626  -0.00018362  1
  In  In12  1  0.15716921  0.85312663  0.67271035  1
  In  In13  1  0.15268590  0.16777411  0.32871558  1
  In  In14  1  0.84880564  0.49731683  0.68861540  1
  In  In15  1  0.66596066  0.33987485  -0.00848022  1
  In  In16  1  0.00643001  0.82961463  0.84340958  1
  In  In17  1  0.80844315  0.69005926  0.49133130  1
  In  In18  1  0.34035340  -0.01746080  0.31722107  1
  In  In19  1  -0.00824036  0.49227438  0.84948215  1
  In  In20  1  -0.00218262  -0.00648795  -0.01745968  1
  In  In21  1  0.50256605  0.36247289  0.16702020  1
  In  In22  1  0.83271444  0.00455183  0.81869259  1
  In  In23  1  0.81437797  0.49848441  0.32154313  1
  In  In24  1  0.64590467  0.33251415  0.34080183  1
  In  In25  1  -0.00492963  0.85730228  0.50994186  1
  In  In26  1  0.31794488  0.81776265  0.84967698  1
  In  In27  1  0.31939051  0.66746956  0.68218548  1
  In  In28  1  0.82862853  0.31836307  0.84100138  1
  In  In29  1  0.51126593  0.66058904  0.48819744  1
  In  In30  1  0.69175350  0.70161961  0.68725089  1
  In  In31  1  0.17585448  0.68472362  0.15642645  1
  In  In32  1  -0.01606833  0.69058607  0.33677290  1
  In  In33  1  0.35356123  0.51052196  0.83632990  1
  In  In34  1  0.34166296  0.84820479  0.48961447  1
  In  In35  1  0.50178884  0.65342173  0.84953159  1
  In  In36  1  0.69231599  0.15379487  0.15215240  1
  In  In37  1  -0.00897030  0.31544048  0.67800376  1
  In  In38  1  0.34170388  0.66607397  0.27600593  1
  In  In39  1  0.15952460  0.00194073  0.82343084  1
  In  In40  1  0.33672322  0.16143093  0.16100118  1
  In  In41  1  -0.00449941  0.49433125  0.51777069  1
  In  In42  1  0.69361169  0.83886647  0.48744803  1
  In  In43  1  0.33545929  0.16322982  0.52711348  1
  In  In44  1  0.01517665  0.50035951  0.14848221  1
  In  In45  1  0.66188635  0.50602146  0.49003860  1
  In  In46  1  0.00827351  0.18451380  0.15588815  1
  In  In47  1  0.50765639  0.18042864  0.34487290  1
  In  In48  1  0.65806580  0.50050354  0.85107295  1
  In  In49  1  0.49549394  -0.01539610  0.16144915  1
  In  In50  1  0.01539447  0.65987615  0.67841852  1
  In  In51  1  0.50925517  0.00498473  0.84334881  1
  In  In52  1  0.32945737  0.47487647  0.49332801  1
  In  In53  1  0.31812624  0.37101314  0.32668921  1
  In  In54  1  0.67001177  -0.00009334  0.35081442  1
  In  In55  1  0.15228356  0.32167309  0.83685102  1
  In  In56  1  0.01564727  -0.02826625  0.31542322  1
  In  In57  1  0.49591028  0.48509312  0.66843898  1
  In  In58  1  0.48147294  0.32784333  0.49354849  1
  In  In59  1  0.18557032  0.34217480  0.51154687  1
  In  In60  1  0.51103499  0.14833995  -0.00436044  1
  In  In61  1  0.84447294  0.82071710  0.33785548  1
  In  In62  1  0.15013104  0.15653152  -0.01913329  1
  In  In63  1  0.14381825  0.66580675  0.48913600  1
  In  In64  1  -0.00047928  0.67119288  0.00673577  1
  In  In65  1  0.83131486  0.84537080  0.68199504  1
  In  In66  1  0.65560509  0.83367625  0.15502109  1
  In  In67  1  0.00505051  0.31075783  0.33070733  1
  In  In68  1  0.33476826  0.15803552  0.83587518  1
  In  In69  1  -0.02401054  0.13550106  0.51872989  1
  In  In70  1  0.52783406  0.03328555  0.53304965  1
  In  In71  1  0.82353656  0.14991770  0.35130929  1
  Te  Te72  1  0.08259080  0.06952738  0.08778781  1
  Te  Te73  1  0.07279571  0.07202903  0.41527285  1
  Te  Te74  1  0.06539063  0.10211921  0.76811211  1
  Te  Te75  1  0.06988275  0.39781919  0.05839752  1
  Te  Te76  1  0.08643520  0.42081856  0.41429971  1
  Te  Te77  1  0.07850062  0.42121967  0.74460050  1
  Te  Te78  1  0.08915648  0.77371846  0.07198358  1
  Te  Te79  1  0.08369988  0.78206515  0.41049230  1
  Te  Te80  1  0.10788726  0.74292581  0.76622011  1
  Te  Te81  1  0.40437323  0.06403034  0.06616279  1
  Te  Te82  1  0.41810536  0.08032142  0.41640068  1
  Te  Te83  1  0.42067653  0.07602731  0.74569606  1
  Te  Te84  1  0.41142279  0.43359097  0.07500796  1
  Te  Te85  1  0.43920044  0.43699799  0.39314753  1
  Te  Te86  1  0.42274958  0.40146278  0.76388929  1
  Te  Te87  1  0.40003901  0.72544527  0.10778584  1
  Te  Te88  1  0.41700690  0.74754330  0.40005000  1
  Te  Te89  1  0.42670736  0.75707269  0.74568382  1
  Te  Te90  1  0.76030918  0.07746660  0.04616947  1
  Te  Te91  1  0.73226123  0.08807637  0.45111736  1
  Te  Te92  1  0.74714158  0.08560669  0.72118720  1
  Te  Te93  1  0.72574652  0.43294353  0.09148823  1
  Te  Te94  1  0.75579020  0.40294167  0.42482693  1
  Te  Te95  1  0.73467705  0.41238125  0.74723423  1
  Te  Te96  1  0.75873939  0.76185551  0.06954205  1
  Te  Te97  1  0.72157101  0.73722239  0.37610698  1
  Te  Te98  1  0.77178337  0.76519669  0.79770380  1
  Te  Te99  1  0.11171957  0.27591507  0.22859507  1
  Te  Te100  1  0.08276443  0.24387629  0.56824517  1
  Te  Te101  1  0.05270575  0.24484544  0.91355545  1
  Te  Te102  1  0.07616528  0.59431116  0.25541352  1
  Te  Te103  1  0.10523434  0.56487295  0.59782273  1
  Te  Te104  1  0.09102158  0.58575519  0.91921973  1
  Te  Te105  1  0.10903593  0.90883092  0.21910201  1
  Te  Te106  1  0.07514402  0.94889227  0.59380711  1
  Te  Te107  1  0.12164700  0.89850232  0.93409404  1
  Te  Te108  1  0.41324748  0.25803597  0.25349225  1
  Te  Te109  1  0.42535010  0.24951132  0.60799113  1
  Te  Te110  1  0.43970273  0.24801396  0.90388047  1
  Te  Te111  1  0.43509574  0.57839894  0.20294352  1
  Te  Te112  1  0.41321992  0.58571044  0.58170714  1
  Te  Te113  1  0.39552608  0.60804014  0.94250259  1
  Te  Te114  1  0.38556978  0.87836886  0.20247960  1
  Te  Te115  1  0.41821826  0.93745621  0.58846956  1
  Te  Te116  1  0.41640703  0.90610824  0.92575215  1
  Te  Te117  1  0.75478924  0.25132921  0.25459482  1
  Te  Te118  1  0.78039205  0.21441110  0.59536113  1
  Te  Te119  1  0.71391201  0.23661020  0.89495317  1
  Te  Te120  1  0.74457952  0.59935810  0.24079443  1
  Te  Te121  1  0.75645255  0.58519375  0.59264687  1
  Te  Te122  1  0.75636341  0.58417126  0.91971893  1
  Te  Te123  1  0.74941878  0.92063713  0.24784078  1
  Te  Te124  1  0.74398335  0.92660795  0.59376799  1
  Te  Te125  1  0.74197145  0.90159481  0.87781793  1
  Te  Te126  1  0.24181187  0.24240131  0.07368633  1
  Te  Te127  1  0.26016111  0.24738394  0.41097964  1
  Te  Te128  1  0.25145821  0.24978872  0.74498666  1
  Te  Te129  1  0.26671761  0.60867899  0.06315744  1
  Te  Te130  1  0.25808478  0.59093317  0.41716920  1
  Te  Te131  1  0.24059051  0.58499250  0.77365003  1
  Te  Te132  1  0.24394846  0.90532223  0.14748779  1
  Te  Te133  1  0.24388370  0.93006128  0.41624640  1
  Te  Te134  1  0.26886420  0.92356218  0.74887391  1
  Te  Te135  1  0.57737661  0.24153438  0.09963919  1
  Te  Te136  1  0.59989379  0.23498152  0.45179783  1
  Te  Te137  1  0.55096710  0.22150135  0.72304676  1
  Te  Te138  1  0.55076364  0.61744451  0.10232781  1
  Te  Te139  1  0.58447226  0.58013387  0.38888615  1
  Te  Te140  1  0.58631007  0.59443016  0.73283551  1
  Te  Te141  1  0.59199802  0.93078771  0.05733848  1
  Te  Te142  1  0.56452927  0.91444629  0.42258467  1
  Te  Te143  1  0.61778178  0.91401502  0.77935157  1
  Te  Te144  1  0.90245149  0.23337257  0.06401837  1
  Te  Te145  1  0.91193472  0.24697307  0.43145771  1
  Te  Te146  1  0.90942856  0.22296223  0.75875161  1
  Te  Te147  1  0.90322229  0.56802086  0.07091611  1
  Te  Te148  1  0.91063875  0.58473794  0.42613917  1
  Te  Te149  1  0.91144390  0.60399208  0.77548871  1
  Te  Te150  1  0.91141340  0.90356996  0.06385392  1
  Te  Te151  1  0.90058030  0.93530259  0.41946679  1
  Te  Te152  1  0.94711587  0.92465984  0.74127677  1
  Te  Te153  1  0.24105848  0.07578901  0.24298247  1
  Te  Te154  1  0.24102761  0.06159967  0.57573098  1
  Te  Te155  1  0.25740501  0.06284718  0.92647775  1
  Te  Te156  1  0.26103805  0.43396081  0.20533766  1
  Te  Te157  1  0.26755960  0.41267053  0.61132920  1
  Te  Te158  1  0.24836666  0.41046798  0.91664905  1
  Te  Te159  1  0.22652296  0.75891289  0.27629352  1
  Te  Te160  1  0.24295895  0.75522388  0.57789677  1
  Te  Te161  1  0.21711940  0.77945058  0.95149056  1
  Te  Te162  1  0.58087722  0.08254533  0.24818947  1
  Te  Te163  1  0.60002742  0.09082096  0.65424539  1
  Te  Te164  1  0.61373219  0.10072176  0.89735881  1
  Te  Te165  1  0.61438380  0.43232379  0.23521400  1
  Te  Te166  1  0.59252322  0.40400628  0.58202841  1
  Te  Te167  1  0.55976999  0.42053992  0.92526828  1
  Te  Te168  1  0.57320565  0.72822473  0.22354245  1
  Te  Te169  1  0.58817793  0.75753671  0.57952805  1
  Te  Te170  1  0.58717198  0.75775305  0.91700438  1
  Te  Te171  1  0.92554496  0.08931113  0.25327526  1
  Te  Te172  1  0.87751712  0.09354033  0.62243047  1
  Te  Te173  1  0.90584275  0.08986186  0.91734689  1
  Te  Te174  1  0.92343542  0.41433025  0.24996657  1
  Te  Te175  1  0.89921034  0.39721140  0.58432617  1
  Te  Te176  1  0.90134646  0.40961520  0.93181361  1
  Te  Te177  1  0.93752730  0.78218092  0.22382532  1
  Te  Te178  1  0.92457644  0.74221233  0.58527871  1
  Te  Te179  1  0.90713672  0.75867354  0.92702530  1
