# generated using pymatgen
data_In2Te3
_symmetry_space_group_name_H-M   'P 1'
_cell_length_a   18.99011919
_cell_length_b   18.97719439
_cell_length_c   18.95398042
_cell_angle_alpha   89.98693097
_cell_angle_beta   89.91189774
_cell_angle_gamma   89.87002797
_symmetry_Int_Tables_number   1
_chemical_formula_structural   In2Te3
_chemical_formula_sum   'In72 Te108'
_cell_volume   6830.59416577
_cell_formula_units_Z   36
loop_
 _symmetry_equiv_pos_site_id
 _symmetry_equiv_pos_as_xyz
  1  'x, y, z'
loop_
 _atom_site_type_symbol
 _atom_site_label
 _atom_site_symmetry_multiplicity
 _atom_site_fract_x
 _atom_site_fract_y
 _atom_site_fract_z
 _atom_site_occupancy
  In  In0  1  0.14271565  0.61775607  0.14241252  1
  In  In1  1  0.33349453  0.60131450  0.31084528  1
  In  In2  1  0.83021229  0.17713566  0.67153076  1
  In  In3  1  0.31536690  0.18920059  0.49729273  1
  In  In4  1  0.36877522  0.16392584  0.17868240  1
  In  In5  1  0.49232603  0.49371793  0.64794263  1
  In  In6  1  0.15694008  0.18025716  0.65602901  1
  In  In7  1  0.00308956  0.84431031  0.84060096  1
  In  In8  1  0.63727708  0.67721332  0.69377722  1
  In  In9  1  0.84619623  0.51265069  -0.01894243  1
  In  In10  1  0.02864950  0.65953695  -0.02206063  1
  In  In11  1  0.33451857  0.36565957  0.29394587  1
  In  In12  1  -0.02033336  0.01782368  0.34119510  1
  In  In13  1  0.50129087  0.16205237  0.31290906  1
  In  In14  1  0.17821437  0.32771659  0.82230005  1
  In  In15  1  0.35428225  0.34549424  0.03989562  1
  In  In16  1  0.34504183  0.00504308  0.65927030  1
  In  In17  1  -0.00017944  0.48415640  0.16455339  1
  In  In18  1  0.84893461  0.32620650  0.50281012  1
  In  In19  1  0.81577672  0.86396896  0.35609235  1
  In  In20  1  0.68396737  0.50054144  0.48571484  1
  In  In21  1  0.49894591  0.83757136  0.67935214  1
  In  In22  1  0.31992215  0.48562671  0.81869778  1
  In  In23  1  0.85166143  0.32882001  0.11954085  1
  In  In24  1  0.85206660  0.53201018  0.67180613  1
  In  In25  1  0.50245942  0.34286338  0.84124809  1
  In  In26  1  0.65188274  0.02986051  0.32822794  1
  In  In27  1  0.67407246  0.84703430  0.19025992  1
  In  In28  1  0.17135753  0.83132752  0.02378434  1
  In  In29  1  -0.00356088  0.01666227  0.00400564  1
  In  In30  1  0.66080103  0.85527308  0.82494615  1
  In  In31  1  0.34732294  0.82922918  0.84301465  1
  In  In32  1  -0.01827996  0.87293952  0.17074448  1
  In  In33  1  0.32992732  -0.02079284  0.33250120  1
  In  In34  1  0.00947976  0.00523695  0.68365350  1
  In  In35  1  0.67163918  0.13931379  0.88385423  1
  In  In36  1  0.50248848  0.00971255  0.51420127  1
  In  In37  1  0.66652392  0.32320847  0.67363640  1
  In  In38  1  0.18319792  0.81424313  0.33979586  1
  In  In39  1  0.85146163  0.34805584  0.87816472  1
  In  In40  1  0.00948560  0.33233323  0.66408994  1
  In  In41  1  0.16997061  0.65173596  0.49014877  1
  In  In42  1  0.65339896  0.32817259  0.04764190  1
  In  In43  1  0.67145514  0.47176678  0.85321170  1
  In  In44  1  0.17131721  0.02101327  0.80620655  1
  In  In45  1  0.02398913  0.65074032  0.65746879  1
  In  In46  1  0.49732903  0.79809682  0.34815684  1
  In  In47  1  0.02001273  0.17269730  0.51260863  1
  In  In48  1  0.65404678  0.84798598  0.52401558  1
  In  In49  1  0.64573528  0.65505556  0.31835997  1
  In  In50  1  0.29874579  0.64065995  -0.00163967  1
  In  In51  1  0.32735589  0.80754891  0.17295119  1
  In  In52  1  0.82612265  0.70500051  0.51775209  1
  In  In53  1  0.51125425  0.01097723  0.16476413  1
  In  In54  1  0.45888421  0.63436735  0.49922672  1
  In  In55  1  -0.00937733  0.67503718  0.32578306  1
  In  In56  1  0.84606410  0.69825312  0.81127403  1
  In  In57  1  0.63473356  0.47949689  0.18998299  1
  In  In58  1  0.48947596  0.30229619  0.46934353  1
  In  In59  1  0.34960343  0.15274990  0.83721815  1
  In  In60  1  0.14745061  0.82221785  0.64816617  1
  In  In61  1  0.80867042  0.66190237  0.17201428  1
  In  In62  1  0.49731279  0.84443433  0.01627275  1
  In  In63  1  0.82306766  0.17546038  0.30522128  1
  In  In64  1  0.67839124  0.65611175  0.02257913  1
  In  In65  1  0.85206186  0.01824019  0.85633849  1
  In  In66  1  0.18832868  0.00300314  0.16206503  1
  In  In67  1  0.15588073  0.18347060  -0.00223476  1
  In  In68  1  0.13816694  0.20076142  0.32259857  1
  In  In69  1  0.30773419  0.45284060  0.51699439  1
  In  In70  1  0.88041612  0.47853797  0.35546621  1
  In  In71  1  0.48845666  0.67148598  0.85219426  1
  Te  Te72  1  0.08550034  0.09383140  0.10079580  1
  Te  Te73  1  0.09596546  0.08599820  0.41215465  1
  Te  Te74  1  0.06742996  0.12020639  0.76326780  1
  Te  Te75  1  0.10429406  0.39978740  0.09980929  1
  Te  Te76  1  0.00067477  0.39968110  0.38556152  1
  Te  Te77  1  0.09395356  0.42803794  0.74502914  1
  Te  Te78  1  0.06488086  0.75587265  0.09896586  1
  Te  Te79  1  0.07353362  0.75342293  0.42440390  1
  Te  Te80  1  0.08755029  0.74609879  0.76376473  1
  Te  Te81  1  0.41717793  0.07520860  0.06920249  1
  Te  Te82  1  0.41455908  0.08482774  0.41303261  1
  Te  Te83  1  0.43676350  0.08334171  0.74082896  1
  Te  Te84  1  0.40724624  0.46146850  0.11853996  1
  Te  Te85  1  0.41488304  0.41956067  0.41350979  1
  Te  Te86  1  0.41083352  0.39754195  0.73250789  1
  Te  Te87  1  0.40572581  0.73361275  0.06676654  1
  Te  Te88  1  0.38205929  0.72102070  0.40119782  1
  Te  Te89  1  0.40638786  0.73127710  0.74166656  1
  Te  Te90  1  0.76272815  0.05556284  -0.02271233  1
  Te  Te91  1  0.76070595  0.08697734  0.40583146  1
  Te  Te92  1  0.75159577  0.08769180  0.76292011  1
  Te  Te93  1  0.75353212  0.44670914  0.08074071  1
  Te  Te94  1  0.75790297  0.39844915  0.40391053  1
  Te  Te95  1  0.75969669  0.42475068  0.73827330  1
  Te  Te96  1  0.75594352  0.77056572  0.08231051  1
  Te  Te97  1  0.72314914  0.75015842  0.40832819  1
  Te  Te98  1  0.74612901  0.77636788  0.72577805  1
  Te  Te99  1  0.10258986  0.28748164  0.20964330  1
  Te  Te100  1  0.11089263  0.28917677  0.55293163  1
  Te  Te101  1  0.07561846  0.27752621  0.91776058  1
  Te  Te102  1  0.07617511  0.56449686  0.26944222  1
  Te  Te103  1  0.09486731  0.55183161  0.57211062  1
  Te  Te104  1  0.14180869  0.57497246  0.93729559  1
  Te  Te105  1  0.10361710  0.91303637  0.25044167  1
  Te  Te106  1  0.08868951  0.93743347  0.58192693  1
  Te  Te107  1  0.09858463  0.92853992  0.92435857  1
  Te  Te108  1  0.45247812  0.28880292  0.22974150  1
  Te  Te109  1  0.42551572  0.23448014  0.58115794  1
  Te  Te110  1  0.41304620  0.25666771  0.92702493  1
  Te  Te111  1  0.44886947  0.56030699  0.23106681  1
  Te  Te112  1  0.36899117  0.56795577  0.60101912  1
  Te  Te113  1  0.40657392  0.56594982  0.91895343  1
  Te  Te114  1  0.42809180  0.90483209  0.24452817  1
  Te  Te115  1  0.41457748  0.90053086  0.56982683  1
  Te  Te116  1  0.44304597  0.92020515  0.90349386  1
  Te  Te117  1  0.75167133  0.25910469  0.20426033  1
  Te  Te118  1  0.73994457  0.24215898  0.56870800  1
  Te  Te119  1  0.74030885  0.26877481  0.93455856  1
  Te  Te120  1  0.75272848  0.56004600  0.26788843  1
  Te  Te121  1  0.73134052  0.59578936  0.59541023  1
  Te  Te122  1  0.74988530  0.59992241  0.89139704  1
  Te  Te123  1  0.76213298  0.95416944  0.24774955  1
  Te  Te124  1  0.72151309  0.96517387  0.57325465  1
  Te  Te125  1  0.76178933  0.90973305  0.91780682  1
  Te  Te126  1  0.26519275  0.23503855  0.09290461  1
  Te  Te127  1  0.25249881  0.27461213  0.39001545  1
  Te  Te128  1  0.26806321  0.23872856  0.73877944  1
  Te  Te129  1  0.26816713  0.54030125  0.10898770  1
  Te  Te130  1  0.23779160  0.53956762  0.40941621  1
  Te  Te131  1  0.19203236  0.55508318  0.79206263  1
  Te  Te132  1  0.28199469  0.91902912  0.07780278  1
  Te  Te133  1  0.25349195  0.90446010  0.43043976  1
  Te  Te134  1  0.25514499  0.91047681  0.74694950  1
  Te  Te135  1  0.56609966  0.21051836  0.06893686  1
  Te  Te136  1  0.59870920  0.24307941  0.39097097  1
  Te  Te137  1  0.59579276  0.24349549  0.77723010  1
  Te  Te138  1  0.57735796  0.58233790  0.09972084  1
  Te  Te139  1  0.56810418  0.56746865  0.41361712  1
  Te  Te140  1  0.57096684  0.55794910  0.76322767  1
  Te  Te141  1  0.60667009  0.92746006  0.08009409  1
  Te  Te142  1  0.57759984  0.91327966  0.40314964  1
  Te  Te143  1  0.56905478  0.94361734  0.75098904  1
  Te  Te144  1  0.93294808  0.23708953  0.04136914  1
  Te  Te145  1  0.92608606  0.23470528  0.41199823  1
  Te  Te146  1  0.91044311  0.26938447  0.76028437  1
  Te  Te147  1  0.91986197  0.59755066  0.09071318  1
  Te  Te148  1  0.90729140  0.60723327  0.43414068  1
  Te  Te149  1  0.94301539  0.58681807  0.77698097  1
  Te  Te150  1  0.89279411  0.94789955  0.08326333  1
  Te  Te151  1  0.92472460  0.91910147  0.43418474  1
  Te  Te152  1  0.90830641  0.91661673  0.75040795  1
  Te  Te153  1  0.25654392  0.09430798  0.26394803  1
  Te  Te154  1  0.24287043  0.08255465  0.57635747  1
  Te  Te155  1  0.24571051  0.08114199  0.92161133  1
  Te  Te156  1  0.21407164  0.40485346  0.21186892  1
  Te  Te157  1  0.19760967  0.41979497  0.60985819  1
  Te  Te158  1  0.26255234  0.39808278  0.93007650  1
  Te  Te159  1  0.23307638  0.70991372  0.23903214  1
  Te  Te160  1  0.24584189  0.73717503  0.58216029  1
  Te  Te161  1  0.23798962  0.75150021  0.91346661  1
  Te  Te162  1  0.61036131  0.11758294  0.20863553  1
  Te  Te163  1  0.61633090  0.07398136  0.57494218  1
  Te  Te164  1  0.55029026  0.10474249  0.96436237  1
  Te  Te165  1  0.58284376  0.36650665  0.26587701  1
  Te  Te166  1  0.59015140  0.40841039  0.56965614  1
  Te  Te167  1  0.57152354  0.42086206  0.95183643  1
  Te  Te168  1  0.56762763  0.74466158  0.22455041  1
  Te  Te169  1  0.56070336  0.72981782  0.57144242  1
  Te  Te170  1  0.59426102  0.75054002  0.92329296  1
  Te  Te171  1  0.93016938  0.10245487  0.23424665  1
  Te  Te172  1  0.92102510  0.08826939  0.58929984  1
  Te  Te173  1  0.92881493  0.12976457  0.92885185  1
  Te  Te174  1  0.92890670  0.37398548  0.25105116  1
  Te  Te175  1  0.92343082  0.42989989  0.58395550  1
  Te  Te176  1  0.95825482  0.43084220  0.93357641  1
  Te  Te177  1  0.89367092  0.76740225  0.25226638  1
  Te  Te178  1  0.93093977  0.75352255  0.60559772  1
  Te  Te179  1  0.91927329  0.75573477  0.93159290  1
