# generated using pymatgen
data_In2Te3
_symmetry_space_group_name_H-M   'P 1'
_cell_length_a   18.96065339
_cell_length_b   18.96599064
_cell_length_c   18.95864826
_cell_angle_alpha   89.94823127
_cell_angle_beta   90.07680568
_cell_angle_gamma   90.08355799
_symmetry_Int_Tables_number   1
_chemical_formula_structural   In2Te3
_chemical_formula_sum   'In72 Te108'
_cell_volume   6817.65737425
_cell_formula_units_Z   36
loop_
 _symmetry_equiv_pos_site_id
 _symmetry_equiv_pos_as_xyz
  1  'x, y, z'
loop_
 _atom_site_type_symbol
 _atom_site_label
 _atom_site_symmetry_multiplicity
 _atom_site_fract_x
 _atom_site_fract_y
 _atom_site_fract_z
 _atom_site_occupancy
  In  In0  1  -0.01980991  0.17180666  0.85052189  1
  In  In1  1  0.52823464  0.51102855  0.34861173  1
  In  In2  1  -0.00971825  0.17728924  0.48207545  1
  In  In3  1  0.51761590  0.03129375  0.50827359  1
  In  In4  1  0.65568327  0.48211052  0.80526144  1
  In  In5  1  0.00290133  0.78024889  0.42467718  1
  In  In6  1  0.84331938  0.83454025  0.02816857  1
  In  In7  1  0.85516650  0.34161051  0.16174047  1
  In  In8  1  0.70703123  0.81654323  0.50055543  1
  In  In9  1  0.66752196  0.83560134  0.82493127  1
  In  In10  1  0.16125100  0.34415191  0.49505753  1
  In  In11  1  0.00284379  -0.00746885  0.32408144  1
  In  In12  1  0.66695765  0.00951422  0.31660920  1
  In  In13  1  0.84259092  0.52509003  0.36735876  1
  In  In14  1  -0.00458598  0.80832373  0.20648022  1
  In  In15  1  0.65905512  0.83450912  0.18155533  1
  In  In16  1  0.16807428  0.83320468  -0.00207128  1
  In  In17  1  -0.01066778  -0.01638381  0.69441918  1
  In  In18  1  0.17046354  -0.02785171  0.51562404  1
  In  In19  1  0.83914709  0.01310849  0.17837245  1
  In  In20  1  -0.00484694  0.34601652  0.34284192  1
  In  In21  1  0.33431985  0.00405366  0.00908588  1
  In  In22  1  0.50484687  0.85238555  0.66938917  1
  In  In23  1  0.31174362  0.50404216  0.18586768  1
  In  In24  1  0.13865111  0.78247412  0.66515026  1
  In  In25  1  0.81121297  0.32830684  0.81124906  1
  In  In26  1  0.33659837  0.49541182  0.48674457  1
  In  In27  1  0.17072458  0.47859807  -0.00640307  1
  In  In28  1  0.83441890  0.53772761  0.60952687  1
  In  In29  1  0.18512805  -0.01247783  0.83492913  1
  In  In30  1  0.33762133  0.16367174  0.82842740  1
  In  In31  1  0.83433446  0.51014989  0.00549883  1
  In  In32  1  0.67075160  0.70151067  0.00422890  1
  In  In33  1  0.32849298  0.81817962  0.83970608  1
  In  In34  1  0.13208988  0.58062604  0.71183304  1
  In  In35  1  0.34666871  0.32393157  0.64921833  1
  In  In36  1  0.32838527  0.33075514  0.01248091  1
  In  In37  1  0.81129109  -0.00827231  0.82356350  1
  In  In38  1  0.82101581  0.65415726  0.83564997  1
  In  In39  1  0.18308926  0.17755839  0.34455927  1
  In  In40  1  0.15910455  0.51760477  0.32598883  1
  In  In41  1  0.84592869  0.81271993  0.64793265  1
  In  In42  1  0.32021481  0.67504420  -0.01292254  1
  In  In43  1  0.82451677  0.00486877  0.49816365  1
  In  In44  1  0.81578216  0.15537765  0.67798038  1
  In  In45  1  0.50092549  0.67115833  0.49330171  1
  In  In46  1  0.34275211  -0.01129273  0.34798888  1
  In  In47  1  0.32142848  0.15895255  0.16388630  1
  In  In48  1  0.69593219  0.50086260  0.18742539  1
  In  In49  1  0.68534756  0.17758750  0.49563584  1
  In  In50  1  0.30989176  0.81019353  0.51315199  1
  In  In51  1  0.49835765  0.84670931  0.35328162  1
  In  In52  1  0.31987080  0.80995477  0.18798329  1
  In  In53  1  -0.00861206  0.64812024  0.01808204  1
  In  In54  1  0.15577351  0.33952071  0.18117185  1
  In  In55  1  0.47310333  0.64909052  0.81097150  1
  In  In56  1  0.65908660  0.17232872  0.17802587  1
  In  In57  1  0.50003411  0.53295714  -0.01674451  1
  In  In58  1  0.01308019  0.33165302  0.00028335  1
  In  In59  1  0.51229329  0.31562240  0.51280468  1
  In  In60  1  0.03884671  0.01998137  0.01633030  1
  In  In61  1  -0.01812328  0.49500568  0.80920138  1
  In  In62  1  0.47721509  0.31909915  0.14813821  1
  In  In63  1  0.48367161  0.67439215  0.16933582  1
  In  In64  1  0.53355644  0.30456791  0.80569625  1
  In  In65  1  0.67956997  0.35526634  0.34022534  1
  In  In66  1  0.81383250  0.17646823  -0.00502415  1
  In  In67  1  0.35050607  -0.00220575  0.68023748  1
  In  In68  1  0.51533948  0.86859402  -0.01505450  1
  In  In69  1  0.16917954  0.15916021  0.64174885  1
  In  In70  1  0.50159683  0.48128380  0.64537551  1
  In  In71  1  0.52734869  0.14393863  -0.02422831  1
  Te  Te72  1  0.12126603  0.11363414  0.08639686  1
  Te  Te73  1  0.09467134  0.07679414  0.43255972  1
  Te  Te74  1  0.09106526  0.08068013  0.75300608  1
  Te  Te75  1  0.06905640  0.43222982  0.10016828  1
  Te  Te76  1  0.06951656  0.44658006  0.42750287  1
  Te  Te77  1  0.09074474  0.43627244  0.73017132  1
  Te  Te78  1  0.07792310  0.75146609  0.08772394  1
  Te  Te79  1  0.12902662  0.71845858  0.36371934  1
  Te  Te80  1  0.05265886  0.70242591  0.75298127  1
  Te  Te81  1  0.43246708  0.08998743  0.08353810  1
  Te  Te82  1  0.43816752  0.08909772  0.39952674  1
  Te  Te83  1  0.43550689  0.10312752  0.73654566  1
  Te  Te84  1  0.41213597  0.44956688  0.07754042  1
  Te  Te85  1  0.43810980  0.40906619  0.41626626  1
  Te  Te86  1  0.42891244  0.40133588  0.75155792  1
  Te  Te87  1  0.41940317  0.76365239  0.06268544  1
  Te  Te88  1  0.39961607  0.74515108  0.40734549  1
  Te  Te89  1  0.40289020  0.75296468  0.72496115  1
  Te  Te90  1  0.73904875  0.08044080  0.08629419  1
  Te  Te91  1  0.76542412  0.09574148  0.39439338  1
  Te  Te92  1  0.72535357  0.11092550  0.79124424  1
  Te  Te93  1  0.74638651  0.40889450  0.07807250  1
  Te  Te94  1  0.77036833  0.41625109  0.43853822  1
  Te  Te95  1  0.77384421  0.44378280  0.72080877  1
  Te  Te96  1  0.76290609  0.74124965  0.11715869  1
  Te  Te97  1  0.76462816  0.73163662  0.39701413  1
  Te  Te98  1  0.74143121  0.73857972  0.73786434  1
  Te  Te99  1  0.07222791  0.24302529  0.26290309  1
  Te  Te100  1  0.07007516  0.25755718  0.58291331  1
  Te  Te101  1  0.08796327  0.25699721  0.89956002  1
  Te  Te102  1  0.08271271  0.62248477  0.25319704  1
  Te  Te103  1  0.06640595  0.55313526  0.57926068  1
  Te  Te104  1  0.06605766  0.56190173  0.92094829  1
  Te  Te105  1  0.09303132  0.91064313  0.24408198  1
  Te  Te106  1  0.06673992  0.89710299  0.59554569  1
  Te  Te107  1  0.07514447  0.91515611  0.90999679  1
  Te  Te108  1  0.38830220  0.26071437  0.24658087  1
  Te  Te109  1  0.43116410  0.21970104  0.59043365  1
  Te  Te110  1  0.42321415  0.24955651  0.92280342  1
  Te  Te111  1  0.41627524  0.57973385  0.26635167  1
  Te  Te112  1  0.41169980  0.58683078  0.58360652  1
  Te  Te113  1  0.37015098  0.56562682  0.88882344  1
  Te  Te114  1  0.42040378  0.91114301  0.23990744  1
  Te  Te115  1  0.41687646  0.91622203  0.56061025  1
  Te  Te116  1  0.40952215  0.93310215  0.89743875  1
  Te  Te117  1  0.75916486  0.26240497  0.24886673  1
  Te  Te118  1  0.78902254  0.25371467  0.57110351  1
  Te  Te119  1  0.72898925  0.26550598  0.91498041  1
  Te  Te120  1  0.73174615  0.59623451  0.29239036  1
  Te  Te121  1  0.73722516  0.62147428  0.53274834  1
  Te  Te122  1  0.71906846  0.57633541  0.91683981  1
  Te  Te123  1  0.76577939  0.90917961  0.26146446  1
  Te  Te124  1  0.75213898  0.92442314  0.60332928  1
  Te  Te125  1  0.74692314  0.90547370  0.93455544  1
  Te  Te126  1  0.21665213  0.24009054  0.08247494  1
  Te  Te127  1  0.26035348  0.24709753  0.44665099  1
  Te  Te128  1  0.24812519  0.24629394  0.73726767  1
  Te  Te129  1  0.23914106  0.58534106  0.07963433  1
  Te  Te130  1  0.24784495  0.59340318  0.41984637  1
  Te  Te131  1  0.26071552  0.59922147  0.78124509  1
  Te  Te132  1  0.25044021  0.91274578  0.09585664  1
  Te  Te133  1  0.23873850  0.89310951  0.40695073  1
  Te  Te134  1  0.24285664  0.89601698  0.72952495  1
  Te  Te135  1  0.58610259  0.25203378  0.07062994  1
  Te  Te136  1  0.58944218  0.24910895  0.40075315  1
  Te  Te137  1  0.62032988  0.26017614  0.69539995  1
  Te  Te138  1  0.59116480  0.59588577  0.09283263  1
  Te  Te139  1  0.60810483  0.56837942  0.46246482  1
  Te  Te140  1  0.58099530  0.58652456  0.72487136  1
  Te  Te141  1  0.59425167  0.92986166  0.09045155  1
  Te  Te142  1  0.60597676  0.92214531  0.43125360  1
  Te  Te143  1  0.58036765  0.93892545  0.76323872  1
  Te  Te144  1  0.92580571  0.23510953  0.07984810  1
  Te  Te145  1  0.89547016  0.27675811  0.42889275  1
  Te  Te146  1  0.92092580  0.25375270  0.73893260  1
  Te  Te147  1  0.89341094  0.59118516  0.11156521  1
  Te  Te148  1  0.93124956  0.63250851  0.43243744  1
  Te  Te149  1  0.91407555  0.60630721  0.72760956  1
  Te  Te150  1  0.94024143  0.92783828  0.09969889  1
  Te  Te151  1  0.92434141  0.91640755  0.42964925  1
  Te  Te152  1  0.90547405  0.88439324  0.77032778  1
  Te  Te153  1  0.24602867  0.06877596  0.26023756  1
  Te  Te154  1  0.27025484  0.07078542  0.57248059  1
  Te  Te155  1  0.24364324  0.09251688  0.92564313  1
  Te  Te156  1  0.25060415  0.40239139  0.28084856  1
  Te  Te157  1  0.25052672  0.42496472  0.58985021  1
  Te  Te158  1  0.24374961  0.38588025  0.90683028  1
  Te  Te159  1  0.22371553  0.71257224  0.23961164  1
  Te  Te160  1  0.21928906  0.70738999  0.56787364  1
  Te  Te161  1  0.21358234  0.73203278  0.89183718  1
  Te  Te162  1  0.56285491  0.09286192  0.25681868  1
  Te  Te163  1  0.60485998  0.10763894  0.59990701  1
  Te  Te164  1  0.60622409  0.06449846  0.88264971  1
  Te  Te165  1  0.57590343  0.41523746  0.23349738  1
  Te  Te166  1  0.61065651  0.38286617  0.60592979  1
  Te  Te167  1  0.56542097  0.41929766  0.91003815  1
  Te  Te168  1  0.57487178  0.74431254  0.26994026  1
  Te  Te169  1  0.58705303  0.76251371  0.57980855  1
  Te  Te170  1  0.56032797  0.74078921  0.90013176  1
  Te  Te171  1  0.92580862  0.09878805  0.25923512  1
  Te  Te172  1  0.92600989  0.07862604  0.59338985  1
  Te  Te173  1  0.90473625  0.06471581  0.92429669  1
  Te  Te174  1  0.91608933  0.44223479  0.25632000  1
  Te  Te175  1  0.95707210  0.45542950  0.59291199  1
  Te  Te176  1  0.90431794  0.40874368  0.91596939  1
  Te  Te177  1  0.90645462  0.74384164  0.30918953  1
  Te  Te178  1  0.93054003  0.73443868  0.55299385  1
  Te  Te179  1  0.90595392  0.73819810  0.92906405  1
