# generated using pymatgen
data_In2Te3
_symmetry_space_group_name_H-M   'P 1'
_cell_length_a   18.80014077
_cell_length_b   18.78777993
_cell_length_c   18.79157392
_cell_angle_alpha   90.07317903
_cell_angle_beta   90.07362076
_cell_angle_gamma   90.01190560
_symmetry_Int_Tables_number   1
_chemical_formula_structural   In2Te3
_chemical_formula_sum   'In72 Te108'
_cell_volume   6637.41541867
_cell_formula_units_Z   36
loop_
 _symmetry_equiv_pos_site_id
 _symmetry_equiv_pos_as_xyz
  1  'x, y, z'
loop_
 _atom_site_type_symbol
 _atom_site_label
 _atom_site_symmetry_multiplicity
 _atom_site_fract_x
 _atom_site_fract_y
 _atom_site_fract_z
 _atom_site_occupancy
  In  In0  1  -0.00584181  0.67361186  0.33973329  1
  In  In1  1  -0.00045717  0.16437488  0.82457923  1
  In  In2  1  0.82622252  0.33726188  0.48077523  1
  In  In3  1  0.83379818  -0.00801477  0.82088599  1
  In  In4  1  0.50329675  0.48151574  0.66135941  1
  In  In5  1  0.51779094  0.83829776  0.65224845  1
  In  In6  1  -0.01080549  0.34105105  0.32703911  1
  In  In7  1  0.66666852  0.01134001  0.32751733  1
  In  In8  1  0.32813526  -0.01315766  0.65921873  1
  In  In9  1  0.14987556  0.00537053  0.49143333  1
  In  In10  1  0.65903512  0.48992721  0.83276109  1
  In  In11  1  0.82913420  0.65121740  0.84955632  1
  In  In12  1  0.18423445  -0.00510036  0.18337058  1
  In  In13  1  0.18818999  0.32482086  0.84193494  1
  In  In14  1  -0.00928550  0.50289909  0.49000583  1
  In  In15  1  -0.02265866  0.66732659  0.68206336  1
  In  In16  1  0.16122945  0.17761909  0.68446256  1
  In  In17  1  0.49996696  0.65014414  0.17255187  1
  In  In18  1  0.16181293  0.02169668  0.83232736  1
  In  In19  1  0.15656640  0.86423071  0.65786951  1
  In  In20  1  0.16590499  0.66840512  0.84355422  1
  In  In21  1  0.47943064  0.66824090  0.84092298  1
  In  In22  1  0.66966066  0.66027767  0.63532184  1
  In  In23  1  0.49393780  0.33607237  0.83710550  1
  In  In24  1  0.34908020  0.66684797  0.67571312  1
  In  In25  1  -0.03588035  0.36489908  -0.01807738  1
  In  In26  1  0.16041616  0.81323967  0.00217367  1
  In  In27  1  0.84089718  0.81585460  0.00605233  1
  In  In28  1  0.83990974  0.66150977  0.18296624  1
  In  In29  1  0.64615341  0.31472488  0.35620429  1
  In  In30  1  0.34816736  0.48198214  0.48322074  1
  In  In31  1  -0.00655103  -0.01773653  0.00664063  1
  In  In32  1  0.18666886  0.65958032  0.47421770  1
  In  In33  1  0.00581598  0.32713025  0.66458137  1
  In  In34  1  0.17876773  0.37207591  0.19187321  1
  In  In35  1  0.82712959  0.17012129  0.33764713  1
  In  In36  1  0.83938342  0.84191359  0.66260986  1
  In  In37  1  0.33873244  0.34950123  0.00731794  1
  In  In38  1  0.67134824  0.16913592  0.85802387  1
  In  In39  1  0.34438301  0.01746544  0.35490544  1
  In  In40  1  0.17515593  0.66541585  0.16212540  1
  In  In41  1  -0.00369112  0.00746618  0.34901259  1
  In  In42  1  0.33034483  0.83324750  0.17094687  1
  In  In43  1  0.64171067  0.64972198  -0.01226783  1
  In  In44  1  0.16041375  0.50582105  0.67477222  1
  In  In45  1  0.19309650  0.16989229  -0.00092166  1
  In  In46  1  0.48715588  0.82981044  0.34088931  1
  In  In47  1  0.68115338  0.85640840  0.17158675  1
  In  In48  1  0.17481074  0.32418885  0.49116698  1
  In  In49  1  0.34754543  0.18677558  0.49184853  1
  In  In50  1  0.16173379  0.82483660  0.32024478  1
  In  In51  1  0.33155580  0.17129911  0.83432085  1
  In  In52  1  -0.00083410  0.17303747  0.16620366  1
  In  In53  1  0.80717602  0.17727429  0.01310530  1
  In  In54  1  0.33257303  0.64267118  0.00846772  1
  In  In55  1  0.85989544  0.15204987  0.63307698  1
  In  In56  1  0.67077621  0.34471833  0.65687408  1
  In  In57  1  0.01226066  0.67012278  -0.00776376  1
  In  In58  1  -0.00563368  0.49416979  0.16736407  1
  In  In59  1  0.49663369  0.32593615  0.16010413  1
  In  In60  1  0.65953223  0.83281349  0.83657343  1
  In  In61  1  0.48908481  0.16914611  0.64668088  1
  In  In62  1  0.81557341  0.64760835  0.48975282  1
  In  In63  1  0.49871634  0.49797789  0.33568491  1
  In  In64  1  0.35624471  0.82158615  0.50431784  1
  In  In65  1  0.64883250  0.00885199  0.65873068  1
  In  In66  1  0.63632318  0.01173470  0.01048152  1
  In  In67  1  0.65783900  0.16342028  0.17719225  1
  In  In68  1  0.67645324  0.64157512  0.32726938  1
  In  In69  1  0.67803940  0.83021564  0.49576120  1
  In  In70  1  0.68258725  0.35678607  0.03768787  1
  In  In71  1  0.37066225  0.15876401  0.17016918  1
  Te  Te72  1  0.09315976  0.08239698  0.07994392  1
  Te  Te73  1  0.10050018  0.10235758  0.39302512  1
  Te  Te74  1  0.06247634  0.06791021  0.72525670  1
  Te  Te75  1  0.08020251  0.40537848  0.07782819  1
  Te  Te76  1  0.09002311  0.42346995  0.40777709  1
  Te  Te77  1  0.08368372  0.41025226  0.76539149  1
  Te  Te78  1  0.06570823  0.75728005  0.10646113  1
  Te  Te79  1  0.08011739  0.76174883  0.43217307  1
  Te  Te80  1  0.08834026  0.75323907  0.74220692  1
  Te  Te81  1  0.41738234  0.06407697  0.06971693  1
  Te  Te82  1  0.44987387  0.11147453  0.40799567  1
  Te  Te83  1  0.41557129  0.07901535  0.74549539  1
  Te  Te84  1  0.41633620  0.43748792  0.09968526  1
  Te  Te85  1  0.43217238  0.38426416  0.40863720  1
  Te  Te86  1  0.40886668  0.43025606  0.76175807  1
  Te  Te87  1  0.41954061  0.74622324  0.08393164  1
  Te  Te88  1  0.40495033  0.72436854  0.40501442  1
  Te  Te89  1  0.41786089  0.77936327  0.75240261  1
  Te  Te90  1  0.75031578  0.06728103  0.09959054  1
  Te  Te91  1  0.73789058  0.09577691  0.42919532  1
  Te  Te92  1  0.74922008  0.09471644  0.74551312  1
  Te  Te93  1  0.78093970  0.43409399  0.11629689  1
  Te  Te94  1  0.72868660  0.42510630  0.41417491  1
  Te  Te95  1  0.76049088  0.41780733  0.75131202  1
  Te  Te96  1  0.73313923  0.73785820  0.08179686  1
  Te  Te97  1  0.76037394  0.75339059  0.39391964  1
  Te  Te98  1  0.74785081  0.74339950  0.74770278  1
  Te  Te99  1  0.09227011  0.25735260  0.25166914  1
  Te  Te100  1  0.07797173  0.23327230  0.56878622  1
  Te  Te101  1  0.07990503  0.24611215  0.92501312  1
  Te  Te102  1  0.08294080  0.58308336  0.25481124  1
  Te  Te103  1  0.07994524  0.59444415  0.57729121  1
  Te  Te104  1  0.08821114  0.56843061  0.91850251  1
  Te  Te105  1  0.07019608  0.91576775  0.24196313  1
  Te  Te106  1  0.05214417  0.91840941  0.56494327  1
  Te  Te107  1  0.08554328  0.91141973  0.91032311  1
  Te  Te108  1  0.41348631  0.26296970  0.26704206  1
  Te  Te109  1  0.42387526  0.28195304  0.57733385  1
  Te  Te110  1  0.42094626  0.24283489  0.93455057  1
  Te  Te111  1  0.39748111  0.55306050  0.23235070  1
  Te  Te112  1  0.42342055  0.58226338  0.57582959  1
  Te  Te113  1  0.42120151  0.56048811  0.92106444  1
  Te  Te114  1  0.41688532  0.93116193  0.25037559  1
  Te  Te115  1  0.43623715  0.93646256  0.56436158  1
  Te  Te116  1  0.47362873  0.95652799  0.97152860  1
  Te  Te117  1  0.74701945  0.26314025  0.24836789  1
  Te  Te118  1  0.75141306  0.24119816  0.57430998  1
  Te  Te119  1  0.75367359  0.28206001  0.91775996  1
  Te  Te120  1  0.73135059  0.56099977  0.21232205  1
  Te  Te121  1  0.76208527  0.55524750  0.59158974  1
  Te  Te122  1  0.75336210  0.55600641  0.93972690  1
  Te  Te123  1  0.76845448  0.91679853  0.27275487  1
  Te  Te124  1  0.75486766  0.93546614  0.57702319  1
  Te  Te125  1  0.74613934  0.92269763  0.92664687  1
  Te  Te126  1  0.25504806  0.25923701  0.10476052  1
  Te  Te127  1  0.26698425  0.26329676  0.39261576  1
  Te  Te128  1  0.27528224  0.26790290  0.73021101  1
  Te  Te129  1  0.23212333  0.55881616  0.07811039  1
  Te  Te130  1  0.24720921  0.55030979  0.39281971  1
  Te  Te131  1  0.26187009  0.57824785  0.76288727  1
  Te  Te132  1  0.25138527  0.91671104  0.07116973  1
  Te  Te133  1  0.25299388  0.90744383  0.41943187  1
  Te  Te134  1  0.25190390  0.91320979  0.76814754  1
  Te  Te135  1  0.58622359  0.24141465  0.06774287  1
  Te  Te136  1  0.58337265  0.20208801  0.43183660  1
  Te  Te137  1  0.58526267  0.24669032  0.74956191  1
  Te  Te138  1  0.57592715  0.55879091  0.08391056  1
  Te  Te139  1  0.58844729  0.57725387  0.42557966  1
  Te  Te140  1  0.58441409  0.59958374  0.74973312  1
  Te  Te141  1  0.56290798  0.91072758  0.09593976  1
  Te  Te142  1  0.57868852  0.91917892  0.42218091  1
  Te  Te143  1  0.56990969  0.93229568  0.76363360  1
  Te  Te144  1  0.90817460  0.26554767  0.08616585  1
  Te  Te145  1  0.93113281  0.24071474  0.42526719  1
  Te  Te146  1  0.90165654  0.24911237  0.74620418  1
  Te  Te147  1  0.91500503  0.58533865  0.07343624  1
  Te  Te148  1  0.89648554  0.56560551  0.38887857  1
  Te  Te149  1  0.92019923  0.56065610  0.76972654  1
  Te  Te150  1  0.90020845  0.91557499  0.09712317  1
  Te  Te151  1  0.91001291  0.93940002  0.44748670  1
  Te  Te152  1  0.93419160  0.90873387  0.75416830  1
  Te  Te153  1  0.25551058  0.10035045  0.26199286  1
  Te  Te154  1  0.25017183  0.09285840  0.58286267  1
  Te  Te155  1  0.27444155  0.06332346  0.92837415  1
  Te  Te156  1  0.28255377  0.44916517  0.26403314  1
  Te  Te157  1  0.24886927  0.42005222  0.58559457  1
  Te  Te158  1  0.24644916  0.43131757  0.92502082  1
  Te  Te159  1  0.26892219  0.73093458  0.26567105  1
  Te  Te160  1  0.24708286  0.74980688  0.59231083  1
  Te  Te161  1  0.27069837  0.75212467  0.91749047  1
  Te  Te162  1  0.56046350  0.07783919  0.24716372  1
  Te  Te163  1  0.58956457  0.10058873  0.55521648  1
  Te  Te164  1  0.55780031  0.08478548  0.90433887  1
  Te  Te165  1  0.58988723  0.40932777  0.24882637  1
  Te  Te166  1  0.58613010  0.41552839  0.55878120  1
  Te  Te167  1  0.57692915  0.41578735  0.93663655  1
  Te  Te168  1  0.58752429  0.75210422  0.25179961  1
  Te  Te169  1  0.56866578  0.73637621  0.55089299  1
  Te  Te170  1  0.56047545  0.76537736  0.92977300  1
  Te  Te171  1  0.90840490  0.08058348  0.24376128  1
  Te  Te172  1  0.93128025  0.05335702  0.54928038  1
  Te  Te173  1  0.90796356  0.09096347  0.92508610  1
  Te  Te174  1  0.89072040  0.41552603  0.24287103  1
  Te  Te175  1  0.91092314  0.41671444  0.58573691  1
  Te  Te176  1  0.88953541  0.43878604  0.88061454  1
  Te  Te177  1  0.91101497  0.76617302  0.25922589  1
  Te  Te178  1  0.90818959  0.74244620  0.56900675  1
  Te  Te179  1  0.92849244  0.75794604  0.89700349  1
