# generated using pymatgen
data_In2Te3
_symmetry_space_group_name_H-M   'P 1'
_cell_length_a   18.96311275
_cell_length_b   19.00162323
_cell_length_c   19.04779590
_cell_angle_alpha   89.86180857
_cell_angle_beta   90.01651627
_cell_angle_gamma   90.00412036
_symmetry_Int_Tables_number   1
_chemical_formula_structural   In2Te3
_chemical_formula_sum   'In72 Te108'
_cell_volume   6863.47057776
_cell_formula_units_Z   36
loop_
 _symmetry_equiv_pos_site_id
 _symmetry_equiv_pos_as_xyz
  1  'x, y, z'
loop_
 _atom_site_type_symbol
 _atom_site_label
 _atom_site_symmetry_multiplicity
 _atom_site_fract_x
 _atom_site_fract_y
 _atom_site_fract_z
 _atom_site_occupancy
  In  In0  1  -0.00840519  0.19158808  0.49628920  1
  In  In1  1  0.02395569  0.68534836  0.32624827  1
  In  In2  1  0.32977762  0.63038244  0.68768027  1
  In  In3  1  0.85724780  0.83105983  -0.00193186  1
  In  In4  1  0.65467484  0.63783145  0.33742823  1
  In  In5  1  -0.00085921  0.02301187  -0.01053621  1
  In  In6  1  0.33334363  0.48384452  0.84590687  1
  In  In7  1  0.86306517  0.67144742  0.15045230  1
  In  In8  1  0.69992326  0.26612787  0.15700200  1
  In  In9  1  0.17970338  0.36858246  0.49952854  1
  In  In10  1  -0.00769278  0.03258394  0.33149935  1
  In  In11  1  0.67235182  0.01285994  0.02308537  1
  In  In12  1  0.16720041  0.00406866  0.49085825  1
  In  In13  1  0.33074092  0.83043756  0.50633324  1
  In  In14  1  0.01248382  0.81228051  0.47361498  1
  In  In15  1  0.04286278  0.17423573  0.80987837  1
  In  In16  1  0.48313422  0.17378754  0.65919078  1
  In  In17  1  0.47661036  0.65292890  0.53502252  1
  In  In18  1  0.64349971  -0.00961939  0.33532209  1
  In  In19  1  0.02533663  0.36009763  0.65948831  1
  In  In20  1  0.16021278  -0.01276850  0.82766527  1
  In  In21  1  0.85042287  0.32863000  0.82569003  1
  In  In22  1  0.82728628  0.64633568  0.52086356  1
  In  In23  1  0.02988328  0.36227398  0.15135543  1
  In  In24  1  0.01862543  0.51163331  0.50546873  1
  In  In25  1  0.17040280  0.82976649  0.68012108  1
  In  In26  1  0.31729498  0.16145749  0.49148179  1
  In  In27  1  0.82877466  -0.02224416  0.82367720  1
  In  In28  1  0.32626409  0.66402216  -0.00293726  1
  In  In29  1  0.35405568  0.31613350  0.30528825  1
  In  In30  1  0.50585062  0.64628637  0.85076748  1
  In  In31  1  0.47961346  0.01987846  0.86803665  1
  In  In32  1  0.67882303  0.13498978  0.84008556  1
  In  In33  1  0.87816731  0.56898137  0.83727962  1
  In  In34  1  0.83913828  0.17466557  0.00266665  1
  In  In35  1  0.00082113  0.17971895  0.16222771  1
  In  In36  1  0.66390762  0.83837962  0.16321546  1
  In  In37  1  0.33646511  0.49839707  0.15446680  1
  In  In38  1  0.66169996  0.32065353  0.64986976  1
  In  In39  1  0.66767481  0.65363341  0.68723025  1
  In  In40  1  0.49286158  0.32674551  0.48928300  1
  In  In41  1  0.16895916  0.67103896  0.18004381  1
  In  In42  1  0.35277802  0.32534543  0.03728930  1
  In  In43  1  0.84251729  0.48506515  0.33835362  1
  In  In44  1  0.83968015  0.02080944  0.50373621  1
  In  In45  1  0.49727321  0.82285703  0.68502671  1
  In  In46  1  0.66251885  0.47964973  0.82416845  1
  In  In47  1  0.64772927  0.80795788  0.82088825  1
  In  In48  1  0.84337010  0.85153107  0.65111769  1
  In  In49  1  0.16631684  0.34366173  0.83959630  1
  In  In50  1  0.47479758  -0.00458225  0.48105197  1
  In  In51  1  0.19519371  0.83568267  0.00974458  1
  In  In52  1  0.48703435  0.64380717  0.15163115  1
  In  In53  1  0.66628214  0.18554301  0.48144344  1
  In  In54  1  0.00122051  0.80726973  0.82632072  1
  In  In55  1  0.82848912  0.32945530  0.47724862  1
  In  In56  1  0.66244767  -0.00769219  0.65213923  1
  In  In57  1  0.47414506  0.83192266  0.32287933  1
  In  In58  1  0.80384445  0.51195031  0.00919248  1
  In  In59  1  0.33250038  0.00778261  0.01966831  1
  In  In60  1  0.31500383  0.18132019  0.82544268  1
  In  In61  1  0.51003910  0.03385318  0.16880487  1
  In  In62  1  0.16464839  0.19611596  0.00853300  1
  In  In63  1  0.01614286  0.87079886  0.15389573  1
  In  In64  1  0.16769761  0.49815711  0.33534156  1
  In  In65  1  0.66452619  0.48782135  0.18046797  1
  In  In66  1  0.31843980  0.05653959  0.30473248  1
  In  In67  1  0.16694883  0.83387124  0.34317968  1
  In  In68  1  0.48929873  0.33885409  0.83333341  1
  In  In69  1  0.80912581  0.82726079  0.34045351  1
  In  In70  1  0.02801549  0.63465849  -0.01587765  1
  In  In71  1  0.49435749  0.49835496  0.32428708  1
  Te  Te72  1  0.09426534  0.08413728  0.08534466  1
  Te  Te73  1  0.09271649  0.10920525  0.41277129  1
  Te  Te74  1  0.10301901  0.07465665  0.72428210  1
  Te  Te75  1  0.11277048  0.39800956  0.03576553  1
  Te  Te76  1  0.06636337  0.40877772  0.40612660  1
  Te  Te77  1  0.06639967  0.44291391  0.78007742  1
  Te  Te78  1  0.07156632  0.74917815  0.08351493  1
  Te  Te79  1  0.12547402  0.71598180  0.43701534  1
  Te  Te80  1  0.07790354  0.72594334  0.73265915  1
  Te  Te81  1  0.40493320  0.11220202  0.09787220  1
  Te  Te82  1  0.42626951  0.11037614  0.39741919  1
  Te  Te83  1  0.40499291  0.08265598  0.75131449  1
  Te  Te84  1  0.45035486  0.41237746  0.10945353  1
  Te  Te85  1  0.39884124  0.41775162  0.40914198  1
  Te  Te86  1  0.38941207  0.39593010  0.74403330  1
  Te  Te87  1  0.40070991  0.74541320  0.09400337  1
  Te  Te88  1  0.41132169  0.73566766  0.42114919  1
  Te  Te89  1  0.41221427  0.73298973  0.76810241  1
  Te  Te90  1  0.73640348  0.12428777  0.10111348  1
  Te  Te91  1  0.74706706  0.08401760  0.40429402  1
  Te  Te92  1  0.76306677  0.07604795  0.72774496  1
  Te  Te93  1  0.73933563  0.39864360  0.08371945  1
  Te  Te94  1  0.74160835  0.43898651  0.43244125  1
  Te  Te95  1  0.75826831  0.40549441  0.73347168  1
  Te  Te96  1  0.75607879  0.75057624  0.07827308  1
  Te  Te97  1  0.73590230  0.72998128  0.42757203  1
  Te  Te98  1  0.76595234  0.75809170  0.74483794  1
  Te  Te99  1  0.09571318  0.26231744  0.24058602  1
  Te  Te100  1  0.10338442  0.26182779  0.57602651  1
  Te  Te101  1  0.05905985  0.26822862  0.92521501  1
  Te  Te102  1  0.07106520  0.57092886  0.24091005  1
  Te  Te103  1  0.08001487  0.58095459  0.62175720  1
  Te  Te104  1  0.09818987  0.55897847  0.88065219  1
  Te  Te105  1  0.09374786  0.93946918  0.26243223  1
  Te  Te106  1  0.08938092  0.90046631  0.56844704  1
  Te  Te107  1  0.06822876  0.90384425  0.92681236  1
  Te  Te108  1  0.43543584  0.22963100  0.21393026  1
  Te  Te109  1  0.38964437  0.26112540  0.58200885  1
  Te  Te110  1  0.41173206  0.24422126  0.92319204  1
  Te  Te111  1  0.39430206  0.59162330  0.25920911  1
  Te  Te112  1  0.38763349  0.54529452  0.58243033  1
  Te  Te113  1  0.42188722  0.55913411  0.94118249  1
  Te  Te114  1  0.41142922  0.94573085  0.24816366  1
  Te  Te115  1  0.41636904  0.91676282  0.59716286  1
  Te  Te116  1  0.39698661  0.91555615  0.92570510  1
  Te  Te117  1  0.79647493  0.28496200  0.26723572  1
  Te  Te118  1  0.76622936  0.23546619  0.58203670  1
  Te  Te119  1  0.74827119  0.25155513  0.90826823  1
  Te  Te120  1  0.77236762  0.59517558  0.24560850  1
  Te  Te121  1  0.74348480  0.56139409  0.60360097  1
  Te  Te122  1  0.73892972  0.58964955  0.89638474  1
  Te  Te123  1  0.75218185  0.92903966  0.24435069  1
  Te  Te124  1  0.74306325  0.91084387  0.55509647  1
  Te  Te125  1  0.74264430  0.91364419  0.92941636  1
  Te  Te126  1  0.25367943  0.24388458  0.11954097  1
  Te  Te127  1  0.25074940  0.26857071  0.40886306  1
  Te  Te128  1  0.23306849  0.26425309  0.73654347  1
  Te  Te129  1  0.23108995  0.57808389  0.07978970  1
  Te  Te130  1  0.22795648  0.57527154  0.44345915  1
  Te  Te131  1  0.23418025  0.58154069  0.79241682  1
  Te  Te132  1  0.23765897  0.93458056  0.10569493  1
  Te  Te133  1  0.27250672  0.93137067  0.40522603  1
  Te  Te134  1  0.26203851  0.90118685  0.76939376  1
  Te  Te135  1  0.55326985  0.28479135  0.13147347  1
  Te  Te136  1  0.58970202  0.27212709  0.39044363  1
  Te  Te137  1  0.58882305  0.22675273  0.75431827  1
  Te  Te138  1  0.60286839  0.58326780  0.08817742  1
  Te  Te139  1  0.56590345  0.57162830  0.43770888  1
  Te  Te140  1  0.56180370  0.55944494  0.74202115  1
  Te  Te141  1  0.56733930  0.92072978  0.08220225  1
  Te  Te142  1  0.56969505  0.89290883  0.42480631  1
  Te  Te143  1  0.58130741  0.93431923  0.76657179  1
  Te  Te144  1  0.92419540  0.27573688  0.07234338  1
  Te  Te145  1  0.90251899  0.23867168  0.38559110  1
  Te  Te146  1  0.93988666  0.25249623  0.73103340  1
  Te  Te147  1  0.93393114  0.56039022  0.07853061  1
  Te  Te148  1  0.92696162  0.60005097  0.40848422  1
  Te  Te149  1  0.95499217  0.56339431  0.71368489  1
  Te  Te150  1  0.90458120  0.94672505  0.08274865  1
  Te  Te151  1  0.91881690  0.91462447  0.41142270  1
  Te  Te152  1  0.94218337  0.92042661  0.74249431  1
  Te  Te153  1  0.22406531  0.14841187  0.23850241  1
  Te  Te154  1  0.25705900  0.06878750  0.58649930  1
  Te  Te155  1  0.23279502  0.09190955  0.91940179  1
  Te  Te156  1  0.24989574  0.41219271  0.24221604  1
  Te  Te157  1  0.21136506  0.49461742  0.57445267  1
  Te  Te158  1  0.24775236  0.40458370  0.95561496  1
  Te  Te159  1  0.25614384  0.75986054  0.25501842  1
  Te  Te160  1  0.26084118  0.73679805  0.59919932  1
  Te  Te161  1  0.23193498  0.73806353  0.91057438  1
  Te  Te162  1  0.59866101  0.10685722  0.25950605  1
  Te  Te163  1  0.57517223  0.08519251  0.56731708  1
  Te  Te164  1  0.57623433  0.10422906  0.94773847  1
  Te  Te165  1  0.60690375  0.40639849  0.29018413  1
  Te  Te166  1  0.56331200  0.40743724  0.58877221  1
  Te  Te167  1  0.58486349  0.40359637  0.92102488  1
  Te  Te168  1  0.58355412  0.74766686  0.25475735  1
  Te  Te169  1  0.58582514  0.74286926  0.59462609  1
  Te  Te170  1  0.57181705  0.75068550  0.92912244  1
  Te  Te171  1  0.90585534  0.09195999  0.23142636  1
  Te  Te172  1  0.94409183  0.08251170  0.58254630  1
  Te  Te173  1  0.90913682  0.09274092  0.89018315  1
  Te  Te174  1  0.90311788  0.39375584  0.23864165  1
  Te  Te175  1  0.91912557  0.41577158  0.56786683  1
  Te  Te176  1  0.90080864  0.43973694  0.91420240  1
  Te  Te177  1  0.92401573  0.77652525  0.24543675  1
  Te  Te178  1  0.92497118  0.74669307  0.57883695  1
  Te  Te179  1  0.91270144  0.71768222  0.91304594  1
