# generated using pymatgen
data_In2Te3
_symmetry_space_group_name_H-M   'P 1'
_cell_length_a   18.92758686
_cell_length_b   18.91324670
_cell_length_c   18.91600367
_cell_angle_alpha   89.89733045
_cell_angle_beta   89.97205312
_cell_angle_gamma   90.11766626
_symmetry_Int_Tables_number   1
_chemical_formula_structural   In2Te3
_chemical_formula_sum   'In72 Te108'
_cell_volume   6771.56511963
_cell_formula_units_Z   36
loop_
 _symmetry_equiv_pos_site_id
 _symmetry_equiv_pos_as_xyz
  1  'x, y, z'
loop_
 _atom_site_type_symbol
 _atom_site_label
 _atom_site_symmetry_multiplicity
 _atom_site_fract_x
 _atom_site_fract_y
 _atom_site_fract_z
 _atom_site_occupancy
  In  In0  1  0.82937918  0.00186693  0.16692795  1
  In  In1  1  0.34379132  0.84116503  0.81413249  1
  In  In2  1  0.66955971  0.64274873  0.00569177  1
  In  In3  1  0.69657949  0.50750471  0.81359814  1
  In  In4  1  0.31762645  0.84557876  0.20802735  1
  In  In5  1  0.70543303  0.00725234  -0.02056533  1
  In  In6  1  0.19658986  0.49190700  0.35360379  1
  In  In7  1  0.15873501  0.48998170  0.65307690  1
  In  In8  1  -0.04073488  0.81950615  0.51298290  1
  In  In9  1  0.35409654  0.33509785  0.36972787  1
  In  In10  1  0.82164651  0.34765297  0.17485525  1
  In  In11  1  0.02412110  0.14896626  0.81563766  1
  In  In12  1  0.16332505  0.00482630  0.15451051  1
  In  In13  1  0.03880323  0.31861787  0.66115516  1
  In  In14  1  0.82401380  0.36234439  0.49739118  1
  In  In15  1  0.51557954  0.38128874  0.17573259  1
  In  In16  1  0.49814644  0.82548036  0.37205545  1
  In  In17  1  0.50914088  -0.01725671  0.16932619  1
  In  In18  1  0.50672683  0.17301601  -0.00855653  1
  In  In19  1  -0.00201068  0.32312153  0.32969036  1
  In  In20  1  0.52453257  0.50755256  -0.01542038  1
  In  In21  1  0.48888193  0.32892243  0.79838800  1
  In  In22  1  0.65961050  0.34946886  0.65399120  1
  In  In23  1  0.84986574  0.00676230  0.80817204  1
  In  In24  1  0.64028616  0.01405221  0.34458786  1
  In  In25  1  0.15867109  0.84864217  0.66805200  1
  In  In26  1  0.63932211  -0.01133400  0.66018526  1
  In  In27  1  0.66475662  0.14924145  0.17618496  1
  In  In28  1  0.17097327  0.02903946  0.52819250  1
  In  In29  1  0.49505677  0.82739262  0.63928199  1
  In  In30  1  -0.00349467  -0.01139469  -0.02022050  1
  In  In31  1  0.64593557  0.82165776  0.17032480  1
  In  In32  1  0.17422239  0.65699808  0.48921029  1
  In  In33  1  -0.00546712  0.63630645  0.01652699  1
  In  In34  1  0.32431585  0.49018872  0.81593342  1
  In  In35  1  -0.02380842  0.65873603  0.33024061  1
  In  In36  1  -0.01809860  0.34631117  -0.00007504  1
  In  In37  1  0.82405502  0.82732348  -0.01337093  1
  In  In38  1  0.68245551  0.18880097  0.84447956  1
  In  In39  1  0.16839124  0.16765435  0.34223338  1
  In  In40  1  0.14893404  0.82352498  -0.02990094  1
  In  In41  1  0.17311054  0.65849990  0.80282720  1
  In  In42  1  0.83566591  0.18603128  0.65649127  1
  In  In43  1  0.48597074  0.79101231  -0.02714918  1
  In  In44  1  0.50975730  0.66429465  0.81390804  1
  In  In45  1  -0.01684775  0.84327155  0.83671147  1
  In  In46  1  -0.00736533  0.49152268  0.16984258  1
  In  In47  1  0.85125876  0.16492369  0.33524884  1
  In  In48  1  0.31667001  0.32519764  0.66136784  1
  In  In49  1  0.47466228  0.02413269  0.78796144  1
  In  In50  1  0.02024087  -0.01189155  0.34374854  1
  In  In51  1  0.72012292  0.81616172  0.49602768  1
  In  In52  1  0.68858333  0.66049369  0.67348064  1
  In  In53  1  0.17284030  0.46957699  -0.01150569  1
  In  In54  1  0.33398208  0.17609352  0.18682771  1
  In  In55  1  0.83050466  0.00832212  0.52012604  1
  In  In56  1  0.31138015  0.01383504  -0.00802027  1
  In  In57  1  0.47444855  0.66054129  0.22239170  1
  In  In58  1  0.68876054  0.33537096  0.00543892  1
  In  In59  1  -0.02433985  0.52295623  0.80846988  1
  In  In60  1  0.00230281  0.50085423  0.50862140  1
  In  In61  1  0.16445113  0.15646771  -0.02686555  1
  In  In62  1  0.65750433  0.52497880  0.21477070  1
  In  In63  1  0.64738832  0.51237381  0.51025192  1
  In  In64  1  0.17890497  0.82662266  0.33756480  1
  In  In65  1  0.32758596  0.49651114  0.18764864  1
  In  In66  1  0.46971976  0.04739340  0.49253552  1
  In  In67  1  0.81276002  0.79870470  0.33263846  1
  In  In68  1  0.35798864  0.68582947  0.02278195  1
  In  In69  1  0.32861769  0.84441992  0.49384583  1
  In  In70  1  0.16507763  0.67211646  0.16957443  1
  In  In71  1  0.34627997  0.30576017  0.00288731  1
  Te  Te72  1  0.06908390  0.08651473  0.07111654  1
  Te  Te73  1  0.06937497  0.09717203  0.43591411  1
  Te  Te74  1  0.10635923  0.10614795  0.69696675  1
  Te  Te75  1  0.09249252  0.40344571  0.09649637  1
  Te  Te76  1  0.08604939  0.41192767  0.41966578  1
  Te  Te77  1  0.08296885  0.42613994  0.76710487  1
  Te  Te78  1  0.07284335  0.75254681  0.08085047  1
  Te  Te79  1  0.07227222  0.75333400  0.41861066  1
  Te  Te80  1  0.07044288  0.75083918  0.74684697  1
  Te  Te81  1  0.41946913  0.08288941  0.08411081  1
  Te  Te82  1  0.36013761  0.13417984  0.44073948  1
  Te  Te83  1  0.40935653  0.11706704  0.69419169  1
  Te  Te84  1  0.40936788  0.42813847  0.06786925  1
  Te  Te85  1  0.45229005  0.42244532  0.43841879  1
  Te  Te86  1  0.42041976  0.43291791  0.71351658  1
  Te  Te87  1  0.43219695  0.77905399  0.12091628  1
  Te  Te88  1  0.40484352  0.72686270  0.43702271  1
  Te  Te89  1  0.40911580  0.73583953  0.72612633  1
  Te  Te90  1  0.76920869  0.10784065  0.07392484  1
  Te  Te91  1  0.74816260  0.08961635  0.42006651  1
  Te  Te92  1  0.74021676  0.08899093  0.73957750  1
  Te  Te93  1  0.72919739  0.44413250  0.10114162  1
  Te  Te94  1  0.72816037  0.43336564  0.40994691  1
  Te  Te95  1  0.75898640  0.38716907  0.75734887  1
  Te  Te96  1  0.74734546  0.74360325  0.08924351  1
  Te  Te97  1  0.76099734  0.68891761  0.42207325  1
  Te  Te98  1  0.80230179  0.72975533  0.74122106  1
  Te  Te99  1  0.07825139  0.23281441  0.24734609  1
  Te  Te100  1  0.13016970  0.26876791  0.55476283  1
  Te  Te101  1  0.07457429  0.25959755  0.91037666  1
  Te  Te102  1  0.09555795  0.57435751  0.26390336  1
  Te  Te103  1  0.07631142  0.60332705  0.59253255  1
  Te  Te104  1  0.10166501  0.58348715  0.91540013  1
  Te  Te105  1  0.08834676  0.90150134  0.23842762  1
  Te  Te106  1  0.07139917  0.91273832  0.56210243  1
  Te  Te107  1  0.10143659  0.93696726  0.88406117  1
  Te  Te108  1  0.42841510  0.27684945  0.24914411  1
  Te  Te109  1  0.41987174  0.23812860  0.59453900  1
  Te  Te110  1  0.41191851  0.23064457  0.88743028  1
  Te  Te111  1  0.42108485  0.54183292  0.29511638  1
  Te  Te112  1  0.48068382  0.63418079  0.54092643  1
  Te  Te113  1  0.41194135  0.58222735  0.90589641  1
  Te  Te114  1  0.42289669  0.92538217  0.28287455  1
  Te  Te115  1  0.40909602  0.93861805  0.58083753  1
  Te  Te116  1  0.41684923  0.91948770  0.92453350  1
  Te  Te117  1  0.74410729  0.24419336  0.26263889  1
  Te  Te118  1  0.73754724  0.25423157  0.56288127  1
  Te  Te119  1  0.78190087  0.27566736  0.90894719  1
  Te  Te120  1  0.73992251  0.62713515  0.27903840  1
  Te  Te121  1  0.75886865  0.54917245  0.60505562  1
  Te  Te122  1  0.76931323  0.57076729  0.92383454  1
  Te  Te123  1  0.73068621  0.92441825  0.25384597  1
  Te  Te124  1  0.75899732  0.90875296  0.61168598  1
  Te  Te125  1  0.75516868  0.90655551  0.87688456  1
  Te  Te126  1  0.24018221  0.23535019  0.08477726  1
  Te  Te127  1  0.24459937  0.24973378  0.44847636  1
  Te  Te128  1  0.19359709  0.24224786  0.69980483  1
  Te  Te129  1  0.24793253  0.58133546  0.07925284  1
  Te  Te130  1  0.27887579  0.55605009  0.45899760  1
  Te  Te131  1  0.26836456  0.58653387  0.71267451  1
  Te  Te132  1  0.24594621  0.89595816  0.07522865  1
  Te  Te133  1  0.23917242  0.93914022  0.41931396  1
  Te  Te134  1  0.25522307  0.93268483  0.74247795  1
  Te  Te135  1  0.57958095  0.25850248  0.09405193  1
  Te  Te136  1  0.50005804  0.19691085  0.46312188  1
  Te  Te137  1  0.58959958  0.23683166  0.73455421  1
  Te  Te138  1  0.55677805  0.59899079  0.10365895  1
  Te  Te139  1  0.54412527  0.57810395  0.42006407  1
  Te  Te140  1  0.58127539  0.56060299  0.73234528  1
  Te  Te141  1  0.60533314  0.92564159  0.06439897  1
  Te  Te142  1  0.60459131  0.90593845  0.44458374  1
  Te  Te143  1  0.56148367  0.90092698  0.75639532  1
  Te  Te144  1  0.91470555  0.26299147  0.10078036  1
  Te  Te145  1  0.91665156  0.25402383  0.43854693  1
  Te  Te146  1  0.93331119  0.25369692  0.75134582  1
  Te  Te147  1  0.89949108  0.59143933  0.11811757  1
  Te  Te148  1  0.90385297  0.58082508  0.43182561  1
  Te  Te149  1  0.88497576  0.59692174  0.71417491  1
  Te  Te150  1  0.91303096  0.90948095  0.07922551  1
  Te  Te151  1  0.89911988  0.91800745  0.40604214  1
  Te  Te152  1  0.94681683  0.93387659  0.72657828  1
  Te  Te153  1  0.25513018  0.06758473  0.25635662  1
  Te  Te154  1  0.25274802  0.09345432  0.63583954  1
  Te  Te155  1  0.26141276  0.09527070  0.88146093  1
  Te  Te156  1  0.25160676  0.38786811  0.25893318  1
  Te  Te157  1  0.25994283  0.42627676  0.56486009  1
  Te  Te158  1  0.25825655  0.38200254  0.89898004  1
  Te  Te159  1  0.26614132  0.71772683  0.27407123  1
  Te  Te160  1  0.24490028  0.75547159  0.58307925  1
  Te  Te161  1  0.26047635  0.74173922  0.90617931  1
  Te  Te162  1  0.54777840  0.10037793  0.26119557  1
  Te  Te163  1  0.59588331  0.08991520  0.56196939  1
  Te  Te164  1  0.58611955  0.07723992  0.90460170  1
  Te  Te165  1  0.61020587  0.40347013  0.28757356  1
  Te  Te166  1  0.55627357  0.39698853  0.55308171  1
  Te  Te167  1  0.58017673  0.39266949  0.90659769  1
  Te  Te168  1  0.58986734  0.73934572  0.28572675  1
  Te  Te169  1  0.60296658  0.74279695  0.57397876  1
  Te  Te170  1  0.60931299  0.73786865  0.90183813  1
  Te  Te171  1  0.93544988  0.07463152  0.24756397  1
  Te  Te172  1  0.92744607  0.08707633  0.59704865  1
  Te  Te173  1  0.91458345  0.09586366  0.91137456  1
  Te  Te174  1  0.90236935  0.42886088  0.27510261  1
  Te  Te175  1  0.92740761  0.40649473  0.60042384  1
  Te  Te176  1  0.91444375  0.45952397  0.92849273  1
  Te  Te177  1  0.91685534  0.75697348  0.23925063  1
  Te  Te178  1  0.89147725  0.73299980  0.61210631  1
  Te  Te179  1  0.92018406  0.73187673  0.91899711  1
