# generated using pymatgen
data_In2Te3
_symmetry_space_group_name_H-M   'P 1'
_cell_length_a   18.80630114
_cell_length_b   18.78370267
_cell_length_c   18.79703987
_cell_angle_alpha   90.01488284
_cell_angle_beta   90.04079649
_cell_angle_gamma   89.96809795
_symmetry_Int_Tables_number   1
_chemical_formula_structural   In2Te3
_chemical_formula_sum   'In72 Te108'
_cell_volume   6640.08841164
_cell_formula_units_Z   36
loop_
 _symmetry_equiv_pos_site_id
 _symmetry_equiv_pos_as_xyz
  1  'x, y, z'
loop_
 _atom_site_type_symbol
 _atom_site_label
 _atom_site_symmetry_multiplicity
 _atom_site_fract_x
 _atom_site_fract_y
 _atom_site_fract_z
 _atom_site_occupancy
  In  In0  1  0.49983506  -0.02464714  0.84450799  1
  In  In1  1  0.15232068  0.63335025  0.18325346  1
  In  In2  1  -0.02548289  -0.00156164  0.65068014  1
  In  In3  1  0.51982212  0.16761628  0.33822832  1
  In  In4  1  0.48599411  0.50046276  0.32584120  1
  In  In5  1  0.00641464  0.18598661  0.84934601  1
  In  In6  1  0.36064475  0.66401514  0.00314300  1
  In  In7  1  0.50521214  0.83062169  0.34399445  1
  In  In8  1  0.33793791  0.51949198  0.85086935  1
  In  In9  1  0.35538287  0.67754458  0.69032878  1
  In  In10  1  -0.00411498  0.36530276  0.68531703  1
  In  In11  1  0.81567463  0.00451606  0.82095175  1
  In  In12  1  0.50746455  0.35511570  0.15628221  1
  In  In13  1  0.84836874  0.37029134  0.17807763  1
  In  In14  1  0.52012699  0.17170054  -0.00499652  1
  In  In15  1  0.83784626  0.35090158  0.48433391  1
  In  In16  1  0.83385207  0.81274544  0.65369138  1
  In  In17  1  -0.00330983  0.81425678  0.51542293  1
  In  In18  1  0.35831040  0.17294095  0.13963564  1
  In  In19  1  0.51201165  0.33833714  0.84650345  1
  In  In20  1  0.83682211  0.66275046  0.83384681  1
  In  In21  1  0.35241079  0.33777597  0.01018409  1
  In  In22  1  0.50145373  0.18023365  0.67966126  1
  In  In23  1  0.32617058  0.80216673  0.12496781  1
  In  In24  1  0.01812012  0.17927697  0.50529345  1
  In  In25  1  0.84081041  0.80982260  0.33237879  1
  In  In26  1  0.82111746  -0.02975749  0.50261283  1
  In  In27  1  0.17945894  0.00240786  0.82178369  1
  In  In28  1  0.31769780  0.18446481  0.50961560  1
  In  In29  1  0.33294044  0.82981921  0.51483517  1
  In  In30  1  0.16246564  0.16794038  0.33676692  1
  In  In31  1  0.50609398  0.50537881  0.66651006  1
  In  In32  1  0.52638155  0.64182711  0.13794826  1
  In  In33  1  0.64153256  0.81269419  0.85759584  1
  In  In34  1  0.15648035  0.82614326  0.35029786  1
  In  In35  1  0.33157392  -0.00700161  0.31898864  1
  In  In36  1  0.83354149  0.17978455  0.34029115  1
  In  In37  1  0.34705532  -0.00322196  0.64543752  1
  In  In38  1  0.67326808  0.83476447  0.15252686  1
  In  In39  1  -0.00354292  -0.01034253  0.00924426  1
  In  In40  1  0.16466502  0.32815910  0.81783163  1
  In  In41  1  0.82356445  0.79684606  -0.00543122  1
  In  In42  1  0.49240727  -0.02163955  0.49298595  1
  In  In43  1  0.15641949  0.82043686  0.67354561  1
  In  In44  1  0.63350393  -0.00627171  0.32669301  1
  In  In45  1  0.64823378  0.50799452  0.83470450  1
  In  In46  1  0.00437347  0.80961906  0.18779375  1
  In  In47  1  0.18899169  0.80947654  -0.00335097  1
  In  In48  1  0.30616650  0.35503701  0.65230333  1
  In  In49  1  0.15774508  0.18632570  0.65768088  1
  In  In50  1  0.00397334  0.66786703  0.66257718  1
  In  In51  1  0.30384202  0.63237377  0.34304927  1
  In  In52  1  0.68124387  0.33800681  0.32003931  1
  In  In53  1  0.14768206  0.38192184  0.16984311  1
  In  In54  1  0.14483706  0.51806634  -0.00329248  1
  In  In55  1  0.82084055  0.36026125  0.85764348  1
  In  In56  1  0.14311648  0.63367828  0.47916386  1
  In  In57  1  0.51565335  0.67620787  0.52709470  1
  In  In58  1  0.69973445  0.64908128  0.31964102  1
  In  In59  1  0.17457407  -0.03467165  0.15626012  1
  In  In60  1  0.00347845  0.79588477  0.83977834  1
  In  In61  1  0.84377633  0.50552915  0.01586652  1
  In  In62  1  0.83600974  0.02168064  0.16225719  1
  In  In63  1  0.51968417  -0.00651616  0.16402763  1
  In  In64  1  0.32658885  0.35597726  0.33642614  1
  In  In65  1  0.80680248  0.18540917  0.00719671  1
  In  In66  1  0.65687416  0.17693212  0.50183126  1
  In  In67  1  0.81517214  0.51827688  0.66284934  1
  In  In68  1  -0.01250651  0.18677546  0.16670991  1
  In  In69  1  0.66068238  0.49615303  0.50797498  1
  In  In70  1  0.17152623  0.17232757  -0.01841186  1
  In  In71  1  0.80356456  0.15814526  0.68237618  1
  Te  Te72  1  0.08487622  0.08755627  0.08626952  1
  Te  Te73  1  0.08865397  0.07710606  0.42557690  1
  Te  Te74  1  0.07026545  0.08653706  0.74760222  1
  Te  Te75  1  0.04704027  0.45295401  0.08773834  1
  Te  Te76  1  0.05542096  0.44809176  0.39733252  1
  Te  Te77  1  0.10071655  0.44428762  0.75382275  1
  Te  Te78  1  0.08928705  0.73490154  0.08662228  1
  Te  Te79  1  0.05208499  0.72875450  0.40035531  1
  Te  Te80  1  0.11173610  0.71167703  0.77379672  1
  Te  Te81  1  0.42805108  0.06437483  0.06194919  1
  Te  Te82  1  0.40786868  0.08921679  0.41466755  1
  Te  Te83  1  0.41829086  0.07558075  0.75279651  1
  Te  Te84  1  0.41175605  0.44597223  0.09050731  1
  Te  Te85  1  0.42228164  0.41869614  0.43060659  1
  Te  Te86  1  0.41000013  0.41342188  0.75802237  1
  Te  Te87  1  0.46217285  0.76458155  0.06317843  1
  Te  Te88  1  0.40146396  0.74036212  0.41068176  1
  Te  Te89  1  0.42028890  0.75552849  0.80623300  1
  Te  Te90  1  0.73722384  0.06925214  0.06565982  1
  Te  Te91  1  0.73950025  0.08025735  0.41309813  1
  Te  Te92  1  0.70278246  0.08662352  0.76649412  1
  Te  Te93  1  0.74733377  0.41046775  0.07835657  1
  Te  Te94  1  0.75615809  0.44647950  0.39746536  1
  Te  Te95  1  0.73550322  0.41829474  0.74513551  1
  Te  Te96  1  0.74321565  0.71642239  0.09216588  1
  Te  Te97  1  0.74908451  0.74048341  0.42483625  1
  Te  Te98  1  0.74058848  0.74553598  0.75397450  1
  Te  Te99  1  0.08261742  0.26875995  0.25273775  1
  Te  Te100  1  0.08558995  0.29413795  0.57979531  1
  Te  Te101  1  0.07740759  0.28500331  0.93853714  1
  Te  Te102  1  0.07548119  0.55778536  0.28768018  1
  Te  Te103  1  0.08394174  0.56029091  0.59467046  1
  Te  Te104  1  0.08313709  0.61775176  0.90842531  1
  Te  Te105  1  0.07527998  0.92463794  0.26161588  1
  Te  Te106  1  0.08667896  0.91990156  0.57992334  1
  Te  Te107  1  0.08646572  0.90792722  0.91598897  1
  Te  Te108  1  0.41934208  0.25272482  0.25593800  1
  Te  Te109  1  0.41806071  0.26849297  0.58395000  1
  Te  Te110  1  0.41183457  0.24087006  0.91011544  1
  Te  Te111  1  0.41239025  0.60252603  0.23868204  1
  Te  Te112  1  0.40697795  0.58493636  0.57925549  1
  Te  Te113  1  0.45821063  0.60254238  0.89838877  1
  Te  Te114  1  0.41496602  0.89916164  0.23371750  1
  Te  Te115  1  0.44444067  0.87788131  0.61048850  1
  Te  Te116  1  0.40446829  0.87234005  0.89684603  1
  Te  Te117  1  0.76059212  0.24780075  0.22739600  1
  Te  Te118  1  0.75350624  0.26357862  0.58113624  1
  Te  Te119  1  0.73054915  0.25199557  0.90028269  1
  Te  Te120  1  0.76904824  0.59211057  0.19932349  1
  Te  Te121  1  0.72479472  0.60520953  0.58497027  1
  Te  Te122  1  0.74523667  0.58527641  0.92585246  1
  Te  Te123  1  0.75354070  0.92091809  0.25783279  1
  Te  Te124  1  0.74554692  0.92757337  0.61992633  1
  Te  Te125  1  0.75084627  0.90766454  0.92043125  1
  Te  Te126  1  0.24156171  0.26185564  0.09305376  1
  Te  Te127  1  0.22995450  0.27495872  0.42385399  1
  Te  Te128  1  0.26536408  0.23727744  0.74996349  1
  Te  Te129  1  0.25423752  0.58255117  0.08137473  1
  Te  Te130  1  0.24906240  0.52959090  0.43921347  1
  Te  Te131  1  0.26181192  0.57165280  0.73503420  1
  Te  Te132  1  0.27175421  0.92882542  0.04910061  1
  Te  Te133  1  0.24794600  0.92319511  0.42486264  1
  Te  Te134  1  0.26410519  0.90374704  0.74201362  1
  Te  Te135  1  0.59604309  0.26237055  0.08410070  1
  Te  Te136  1  0.58025147  0.28114698  0.41981156  1
  Te  Te137  1  0.59988732  0.26153277  0.75443837  1
  Te  Te138  1  0.59793851  0.54461926  0.05359684  1
  Te  Te139  1  0.57693997  0.59649871  0.41076109  1
  Te  Te140  1  0.57831722  0.60577976  0.74733788  1
  Te  Te141  1  0.59545999  0.91948923  0.06010262  1
  Te  Te142  1  0.60744306  0.89203257  0.43891016  1
  Te  Te143  1  0.59137218  0.90316650  0.74913695  1
  Te  Te144  1  0.91398111  0.27364038  0.06862462  1
  Te  Te145  1  0.93863465  0.26700975  0.40617453  1
  Te  Te146  1  0.91273552  0.25104612  0.74723801  1
  Te  Te147  1  0.90730915  0.58880146  0.12570431  1
  Te  Te148  1  0.94380966  0.54575001  0.39128579  1
  Te  Te149  1  0.92618471  0.57133107  0.75416427  1
  Te  Te150  1  0.90952555  0.89519383  0.09232773  1
  Te  Te151  1  0.92600854  0.90979371  0.41479937  1
  Te  Te152  1  0.92171419  0.89888041  0.76173097  1
  Te  Te153  1  0.25467745  0.08938440  0.22954786  1
  Te  Te154  1  0.23476034  0.07747448  0.57912389  1
  Te  Te155  1  0.26452979  0.08602422  0.90791835  1
  Te  Te156  1  0.25895715  0.44812691  0.24134462  1
  Te  Te157  1  0.22300003  0.44164223  0.56787383  1
  Te  Te158  1  0.24957398  0.41456116  0.92338224  1
  Te  Te159  1  0.24213063  0.75064169  0.24907316  1
  Te  Te160  1  0.23182111  0.73110109  0.57327755  1
  Te  Te161  1  0.27571582  0.73637329  0.89935762  1
  Te  Te162  1  0.60322566  0.10620602  0.22734985  1
  Te  Te163  1  0.56866655  0.07924503  0.57890488  1
  Te  Te164  1  0.59295483  0.08254974  0.89854902  1
  Te  Te165  1  0.60018327  0.44216079  0.24171977  1
  Te  Te166  1  0.58580004  0.40387807  0.59480852  1
  Te  Te167  1  0.57752327  0.43125140  0.94668040  1
  Te  Te168  1  0.58810773  0.74306913  0.24965942  1
  Te  Te169  1  0.56990221  0.78291614  0.61062370  1
  Te  Te170  1  0.57241945  0.70482981  0.93366996  1
  Te  Te171  1  0.92906575  0.08473849  0.26487138  1
  Te  Te172  1  0.89769570  0.10201177  0.56594153  1
  Te  Te173  1  0.91453555  0.08311283  0.91895976  1
  Te  Te174  1  0.93696007  0.43526523  0.27888434  1
  Te  Te175  1  0.91659701  0.44241720  0.57701807  1
  Te  Te176  1  0.92902254  0.44375122  0.90996438  1
  Te  Te177  1  0.90586163  0.70808112  0.24079614  1
  Te  Te178  1  0.89651085  0.70801247  0.56101216  1
  Te  Te179  1  0.93979854  0.70828582  0.94692756  1
