# generated using pymatgen
data_In2Te3
_symmetry_space_group_name_H-M   'P 1'
_cell_length_a   18.76127952
_cell_length_b   18.75709065
_cell_length_c   18.76028979
_cell_angle_alpha   90.02048476
_cell_angle_beta   90.08026794
_cell_angle_gamma   90.03027302
_symmetry_Int_Tables_number   1
_chemical_formula_structural   In2Te3
_chemical_formula_sum   'In72 Te108'
_cell_volume   6601.86986157
_cell_formula_units_Z   36
loop_
 _symmetry_equiv_pos_site_id
 _symmetry_equiv_pos_as_xyz
  1  'x, y, z'
loop_
 _atom_site_type_symbol
 _atom_site_label
 _atom_site_symmetry_multiplicity
 _atom_site_fract_x
 _atom_site_fract_y
 _atom_site_fract_z
 _atom_site_occupancy
  In  In0  1  0.65569026  0.50215674  0.16103405  1
  In  In1  1  0.34069121  0.69165150  0.66435767  1
  In  In2  1  0.67460087  0.81280149  0.51248728  1
  In  In3  1  0.65936723  0.66066256  0.30332252  1
  In  In4  1  0.67650165  -0.00291559  0.32895255  1
  In  In5  1  0.84406525  0.85382573  0.31333694  1
  In  In6  1  -0.00030640  0.34385920  -0.00528295  1
  In  In7  1  0.49576465  0.15026778  0.36701169  1
  In  In8  1  -0.02253708  0.50142672  0.83015335  1
  In  In9  1  0.31621795  0.51656555  0.18183712  1
  In  In10  1  0.64966926  0.16785794  0.52685673  1
  In  In11  1  0.32092314  -0.00784673  -0.01090075  1
  In  In12  1  0.50695288  0.15489337  0.64626150  1
  In  In13  1  0.00362385  0.63835558  0.66540689  1
  In  In14  1  0.34255063  0.16515443  0.49770279  1
  In  In15  1  0.68601540  0.31500204  -0.01222245  1
  In  In16  1  0.67422798  0.85455515  0.84743286  1
  In  In17  1  0.68168543  0.36564501  0.69782740  1
  In  In18  1  0.16554335  0.16107607  0.31977216  1
  In  In19  1  0.84357368  -0.00815957  0.49044819  1
  In  In20  1  0.49956118  0.49835592  0.33995778  1
  In  In21  1  0.29790433  0.15283978  0.83410616  1
  In  In22  1  -0.03550746  0.32872851  0.67315996  1
  In  In23  1  0.50291414  0.34119169  0.18239941  1
  In  In24  1  0.17314033  0.68769741  0.84363152  1
  In  In25  1  0.01043632  0.13365867  0.12866022  1
  In  In26  1  0.00708762  0.84339474  0.15915410  1
  In  In27  1  0.53084862  -0.03827251  0.12619836  1
  In  In28  1  0.15493947  0.15916981  0.70105057  1
  In  In29  1  0.83310079  0.65824536  0.50324248  1
  In  In30  1  0.31093925  0.64557101  0.36476395  1
  In  In31  1  0.84755311  0.00107716  0.12394443  1
  In  In32  1  -0.00019456  0.49291514  0.50681034  1
  In  In33  1  0.50138758  -0.01381767  0.82894105  1
  In  In34  1  -0.02223595  0.18035288  0.47537110  1
  In  In35  1  0.51462675  0.67020734  0.13676749  1
  In  In36  1  0.34909664  -0.04633725  0.66841564  1
  In  In37  1  0.49268428  0.16278339  -0.00884865  1
  In  In38  1  0.48845345  0.66764123  0.51010072  1
  In  In39  1  0.15592562  0.50738566  0.64913160  1
  In  In40  1  0.64988200  0.65305333  0.68940463  1
  In  In41  1  0.68876041  0.47330061  0.49376979  1
  In  In42  1  0.84588836  0.33699782  0.16296110  1
  In  In43  1  0.31720641  0.33439141  0.02045921  1
  In  In44  1  0.01355134  0.00064786  0.69204332  1
  In  In45  1  0.81980864  0.16857708  0.68220696  1
  In  In46  1  0.34135436  0.82669334  0.16685873  1
  In  In47  1  0.00073255  0.33674003  0.33498532  1
  In  In48  1  0.35870852  0.51690264  0.83779677  1
  In  In49  1  0.15155197  0.34482724  0.51194214  1
  In  In50  1  0.81311789  0.67854929  0.13704223  1
  In  In51  1  0.50009160  0.52858233  -0.01838572  1
  In  In52  1  0.16444672  0.66551936  0.15803642  1
  In  In53  1  -0.00978207  0.84674306  0.86041685  1
  In  In54  1  0.84499491  0.82774673  0.67359010  1
  In  In55  1  0.49554064  0.35253041  0.82389898  1
  In  In56  1  0.32977726  0.83691771  0.82662603  1
  In  In57  1  0.18674900  -0.01485339  0.50962055  1
  In  In58  1  0.68776943  0.13627932  0.16374881  1
  In  In59  1  0.32273407  0.01446197  0.33676719  1
  In  In60  1  0.50768443  0.34099199  0.49938370  1
  In  In61  1  0.67507827  0.15600093  0.84280198  1
  In  In62  1  0.18198192  0.83576917  0.67401972  1
  In  In63  1  0.49824780  0.81504913  0.33147229  1
  In  In64  1  0.85179667  0.19940212  0.33599504  1
  In  In65  1  0.00259308  -0.01589111  0.32026171  1
  In  In66  1  -0.02158815  0.68060931  0.00562226  1
  In  In67  1  0.03261401  0.67789721  0.34482179  1
  In  In68  1  0.33575397  0.36081855  0.32595592  1
  In  In69  1  0.30964036  0.17446538  0.15402303  1
  In  In70  1  0.15230995  0.31665717  0.85038744  1
  In  In71  1  0.16004900  0.50384252  0.01939231  1
  Te  Te72  1  0.09291058  0.03453746  0.05681188  1
  Te  Te73  1  0.08418147  0.08055435  0.42349952  1
  Te  Te74  1  0.06612599  0.08998071  0.79981067  1
  Te  Te75  1  0.06921199  0.42215966  0.10043644  1
  Te  Te76  1  0.10322119  0.43529010  0.39824060  1
  Te  Te77  1  0.08013902  0.41404909  0.74727259  1
  Te  Te78  1  0.09446601  0.76113187  0.06200465  1
  Te  Te79  1  0.12155870  0.73856364  0.44653469  1
  Te  Te80  1  0.07000675  0.75370968  0.74842797  1
  Te  Te81  1  0.41516156  0.07815710  0.09109590  1
  Te  Te82  1  0.42608784  0.04039043  0.45509019  1
  Te  Te83  1  0.41197300  0.08832433  0.75312713  1
  Te  Te84  1  0.42570299  0.43106437  0.08543328  1
  Te  Te85  1  0.40262169  0.43740996  0.43928772  1
  Te  Te86  1  0.42072142  0.43757384  0.72872039  1
  Te  Te87  1  0.42414565  0.76023768  0.06252546  1
  Te  Te88  1  0.39618318  0.75964528  0.43016265  1
  Te  Te89  1  0.43300109  0.74583701  0.76868096  1
  Te  Te90  1  0.75744506  0.09275311  0.03917115  1
  Te  Te91  1  0.75731666  0.09545405  0.41632581  1
  Te  Te92  1  0.73894144  0.06344945  0.74671286  1
  Te  Te93  1  0.75387449  0.42290241  0.07298630  1
  Te  Te94  1  0.77392614  0.40243878  0.39988196  1
  Te  Te95  1  0.78307063  0.42988095  0.78777467  1
  Te  Te96  1  0.73766581  0.76662924  0.04293870  1
  Te  Te97  1  0.75703695  0.75172110  0.39669399  1
  Te  Te98  1  0.74800277  0.74927369  0.75982698  1
  Te  Te99  1  0.06288277  0.23611583  0.23806258  1
  Te  Te100  1  0.07375613  0.23940861  0.59139660  1
  Te  Te101  1  0.05446737  0.22715617  0.91694326  1
  Te  Te102  1  0.07814909  0.58146628  0.24237619  1
  Te  Te103  1  0.10415955  0.61246869  0.54289349  1
  Te  Te104  1  0.08002679  0.58381808  0.91324216  1
  Te  Te105  1  0.10401206  0.89627741  0.25921722  1
  Te  Te106  1  0.07746815  0.91075618  0.58747347  1
  Te  Te107  1  0.07573119  0.94442431  0.92903234  1
  Te  Te108  1  0.41333841  0.23911120  0.26152604  1
  Te  Te109  1  0.41330715  0.26347389  0.59185071  1
  Te  Te110  1  0.40494545  0.25849602  0.91140978  1
  Te  Te111  1  0.42899167  0.60284920  0.25421895  1
  Te  Te112  1  0.41171448  0.57798438  0.59852078  1
  Te  Te113  1  0.42720265  0.63346196  0.90196560  1
  Te  Te114  1  0.42738550  0.92822020  0.25365233  1
  Te  Te115  1  0.41588912  0.91043471  0.54835481  1
  Te  Te116  1  0.42942413  0.90096448  0.93172164  1
  Te  Te117  1  0.74118832  0.25290863  0.24248244  1
  Te  Te118  1  0.74389359  0.26778142  0.59469925  1
  Te  Te119  1  0.78212643  0.24698780  0.89588038  1
  Te  Te120  1  0.76471031  0.57190695  0.24484631  1
  Te  Te121  1  0.74613616  0.57534956  0.59473635  1
  Te  Te122  1  0.72834767  0.56209359  0.84347494  1
  Te  Te123  1  0.74704088  0.92001658  0.21827650  1
  Te  Te124  1  0.75344010  0.91906166  0.58955402  1
  Te  Te125  1  0.76830248  0.94558558  0.92583593  1
  Te  Te126  1  0.20852306  0.25280363  0.07885311  1
  Te  Te127  1  0.24626194  0.25220680  0.41352802  1
  Te  Te128  1  0.25344156  0.26900817  0.74491303  1
  Te  Te129  1  0.27040495  0.60009028  0.06396902  1
  Te  Te130  1  0.22079914  0.55088230  0.42987461  1
  Te  Te131  1  0.24301524  0.59072857  0.74907208  1
  Te  Te132  1  0.24556342  0.90871465  0.08689266  1
  Te  Te133  1  0.23750614  0.90712371  0.39499424  1
  Te  Te134  1  0.23549646  0.94407796  0.76808646  1
  Te  Te135  1  0.57958413  0.24858385  0.08745566  1
  Te  Te136  1  0.59768710  0.25540995  0.41080817  1
  Te  Te137  1  0.58513614  0.24863335  0.74989125  1
  Te  Te138  1  0.62027738  0.60015974  0.04856964  1
  Te  Te139  1  0.59610668  0.59225795  0.42521391  1
  Te  Te140  1  0.58789424  0.56627538  0.79258407  1
  Te  Te141  1  0.63128426  0.88570460  0.04443100  1
  Te  Te142  1  0.59380350  0.90277150  0.41558987  1
  Te  Te143  1  0.58355679  0.90363135  0.73954939  1
  Te  Te144  1  0.91207132  0.23464941  0.07106714  1
  Te  Te145  1  0.88773525  0.30515464  0.44781824  1
  Te  Te146  1  0.91345943  0.23696348  0.77790903  1
  Te  Te147  1  0.89867167  0.57652631  0.07265213  1
  Te  Te148  1  0.92256843  0.58189064  0.40861164  1
  Te  Te149  1  0.89129077  0.59788599  0.75492495  1
  Te  Te150  1  0.91589183  0.89015837  0.04605529  1
  Te  Te151  1  0.93976575  0.89142920  0.42729200  1
  Te  Te152  1  0.89969599  0.93420439  0.76797850  1
  Te  Te153  1  0.23005000  0.06305638  0.22320388  1
  Te  Te154  1  0.25427741  0.08933476  0.59915531  1
  Te  Te155  1  0.22820417  0.10663769  0.95661506  1
  Te  Te156  1  0.23418030  0.40398313  0.22854974  1
  Te  Te157  1  0.25597732  0.41826777  0.58618501  1
  Te  Te158  1  0.25134519  0.42535731  0.91225141  1
  Te  Te159  1  0.25287028  0.73975497  0.25868025  1
  Te  Te160  1  0.24593774  0.75515485  0.56608981  1
  Te  Te161  1  0.24303539  0.78025929  0.93333377  1
  Te  Te162  1  0.57305906  0.07976475  0.24713146  1
  Te  Te163  1  0.58782035  0.04726587  0.58510735  1
  Te  Te164  1  0.58806208  0.06371708  0.92990652  1
  Te  Te165  1  0.60432537  0.41071798  0.27354508  1
  Te  Te166  1  0.58391870  0.43122926  0.59718381  1
  Te  Te167  1  0.59216657  0.41831671  0.92082778  1
  Te  Te168  1  0.59635871  0.77101694  0.22181797  1
  Te  Te169  1  0.56884363  0.75632740  0.60548003  1
  Te  Te170  1  0.61218087  0.75818874  0.94588174  1
  Te  Te171  1  0.90674757  0.08103993  0.25014994  1
  Te  Te172  1  0.92138430  0.08489255  0.58693346  1
  Te  Te173  1  0.88983743  0.03125268  0.96662364  1
  Te  Te174  1  0.91963260  0.42920683  0.25291671  1
  Te  Te175  1  0.90066501  0.44263473  0.60474692  1
  Te  Te176  1  0.89135459  0.41611939  0.91805106  1
  Te  Te177  1  0.91980948  0.74209970  0.24047168  1
  Te  Te178  1  0.93145529  0.74622960  0.57875413  1
  Te  Te179  1  0.89307566  0.74203839  0.90135517  1
