# generated using pymatgen
data_In2Te3
_symmetry_space_group_name_H-M   'P 1'
_cell_length_a   18.90347275
_cell_length_b   18.87847039
_cell_length_c   18.89936613
_cell_angle_alpha   90.10537076
_cell_angle_beta   89.99189407
_cell_angle_gamma   89.99336443
_symmetry_Int_Tables_number   1
_chemical_formula_structural   In2Te3
_chemical_formula_sum   'In72 Te108'
_cell_volume   6744.57977047
_cell_formula_units_Z   36
loop_
 _symmetry_equiv_pos_site_id
 _symmetry_equiv_pos_as_xyz
  1  'x, y, z'
loop_
 _atom_site_type_symbol
 _atom_site_label
 _atom_site_symmetry_multiplicity
 _atom_site_fract_x
 _atom_site_fract_y
 _atom_site_fract_z
 _atom_site_occupancy
  In  In0  1  0.32260723  -0.00153780  0.34153884  1
  In  In1  1  0.35838472  0.53033775  0.18825963  1
  In  In2  1  0.83014019  0.36313766  0.82855062  1
  In  In3  1  0.51283659  0.32586114  0.17542002  1
  In  In4  1  0.32847922  0.84946244  0.84359665  1
  In  In5  1  0.51355607  -0.00635927  0.51928319  1
  In  In6  1  0.16941266  0.18340640  -0.01665346  1
  In  In7  1  0.49189109  0.82472359  -0.02029257  1
  In  In8  1  -0.02520728  0.32518528  0.00540760  1
  In  In9  1  0.49888010  0.49139414  0.69905225  1
  In  In10  1  0.16385063  0.17528959  0.65443510  1
  In  In11  1  -0.00061109  0.01238195  -0.00260454  1
  In  In12  1  0.66316212  0.81402009  0.81787082  1
  In  In13  1  0.30673871  0.66583165  0.66709302  1
  In  In14  1  0.83591878  0.21716840  0.65232714  1
  In  In15  1  0.82933259  0.03991472  0.50186543  1
  In  In16  1  0.34718678  -0.00187424  0.66823851  1
  In  In17  1  0.83717916  0.64116259  0.14689711  1
  In  In18  1  0.02952653  0.18345060  0.51544489  1
  In  In19  1  0.34369182  0.32008459  -0.02041809  1
  In  In20  1  0.14906086  0.82621691  0.00291503  1
  In  In21  1  0.02277942  0.84243247  0.52834822  1
  In  In22  1  0.30676462  0.01896210  -0.01711738  1
  In  In23  1  0.32344758  0.49582491  0.50075654  1
  In  In24  1  0.16784863  -0.03268437  0.15786914  1
  In  In25  1  0.82273715  0.01516448  0.85452745  1
  In  In26  1  0.68516439  0.15386227  0.18516573  1
  In  In27  1  0.49573346  0.80638095  0.65259483  1
  In  In28  1  0.17158011  0.67390615  0.50540773  1
  In  In29  1  0.86531872  0.02330465  0.16951164  1
  In  In30  1  0.01202562  0.35407720  0.35839541  1
  In  In31  1  0.50741879  0.17036022  0.34179064  1
  In  In32  1  0.02724165  0.61394314  0.32377205  1
  In  In33  1  0.66129020  0.00267086  0.01182778  1
  In  In34  1  -0.00627397  0.82059674  0.15749217  1
  In  In35  1  0.14891161  0.49715500  -0.01095855  1
  In  In36  1  0.48061768  0.19031346  0.64324905  1
  In  In37  1  0.64790559  0.66040493  0.35246247  1
  In  In38  1  0.69305548  0.39572059  -0.04148965  1
  In  In39  1  0.66691022  0.49056503  0.15383287  1
  In  In40  1  0.46714608  -0.01293962  0.16205181  1
  In  In41  1  0.69140613  -0.02133518  0.36960886  1
  In  In42  1  0.81972655  0.63797776  0.85271236  1
  In  In43  1  0.31144175  0.17864468  0.14331618  1
  In  In44  1  0.33129090  0.66422463  -0.01173892  1
  In  In45  1  0.65120482  0.82488155  0.52093037  1
  In  In46  1  -0.00575270  0.67070385  0.68627324  1
  In  In47  1  -0.05913335  0.03467435  0.32563046  1
  In  In48  1  0.01097393  0.83755905  0.83377605  1
  In  In49  1  0.00165833  0.66001796  -0.01802468  1
  In  In50  1  0.84195255  0.48953676  0.34210593  1
  In  In51  1  0.16710614  0.82177863  0.32024856  1
  In  In52  1  0.31684522  0.35870787  0.33443842  1
  In  In53  1  0.64904812  0.33823302  0.34563524  1
  In  In54  1  0.83121207  0.17277552  0.31918808  1
  In  In55  1  0.15829273  0.34281987  0.81982211  1
  In  In56  1  0.15759150  0.01070945  0.51224836  1
  In  In57  1  0.67078500  0.79331518  0.18170776  1
  In  In58  1  0.18311229  0.32501653  0.52835943  1
  In  In59  1  0.51465436  0.49695883  0.00054691  1
  In  In60  1  0.65818651  0.00551640  0.67956299  1
  In  In61  1  0.83948320  0.82786393  0.68188277  1
  In  In62  1  0.84131444  0.83703338  0.32224628  1
  In  In63  1  0.49107351  0.66787475  0.48934729  1
  In  In64  1  0.32403812  0.77894211  0.18488405  1
  In  In65  1  0.51800356  0.18948415  -0.02484703  1
  In  In66  1  0.16786571  0.19733140  0.36500732  1
  In  In67  1  0.67560404  0.48944455  0.55074802  1
  In  In68  1  0.52621579  0.63927547  0.81374550  1
  In  In69  1  0.65434858  0.19936564  0.81149230  1
  In  In70  1  0.80158689  0.63305346  0.51818553  1
  In  In71  1  0.17164339  0.49795325  0.67035523  1
  Te  Te72  1  0.10445855  0.08300357  0.08150495  1
  Te  Te73  1  0.07727644  0.07991447  0.40031030  1
  Te  Te74  1  0.06629494  0.08036101  0.70872183  1
  Te  Te75  1  0.06409469  0.41967929  0.08568590  1
  Te  Te76  1  0.12223857  0.42990622  0.43784960  1
  Te  Te77  1  0.06807333  0.44697927  0.76388214  1
  Te  Te78  1  0.08859071  0.72069738  0.09449643  1
  Te  Te79  1  0.06681089  0.74956207  0.41238462  1
  Te  Te80  1  0.09423716  0.76486674  0.73699976  1
  Te  Te81  1  0.42020792  0.10106577  0.06834119  1
  Te  Te82  1  0.42266663  0.07512230  0.42573300  1
  Te  Te83  1  0.44707194  0.08161941  0.73638794  1
  Te  Te84  1  0.41916783  0.40736956  0.08748679  1
  Te  Te85  1  0.41954594  0.42831668  0.41205030  1
  Te  Te86  1  0.44083848  0.39011985  0.79215121  1
  Te  Te87  1  0.42809997  0.73277146  0.08315281  1
  Te  Te88  1  0.37458424  0.69909608  0.40236599  1
  Te  Te89  1  0.41811450  0.74483529  0.76761939  1
  Te  Te90  1  0.76828476  0.09310282  0.07118286  1
  Te  Te91  1  0.72608774  0.11550203  0.41888054  1
  Te  Te92  1  0.75991716  0.10223237  0.73862628  1
  Te  Te93  1  0.76758696  0.41087428  0.08543853  1
  Te  Te94  1  0.75827664  0.40644822  0.43941130  1
  Te  Te95  1  0.73096088  0.41938317  0.73085230  1
  Te  Te96  1  0.76111392  0.74750759  0.07811169  1
  Te  Te97  1  0.75105975  0.75860124  0.41793958  1
  Te  Te98  1  0.75039044  0.71981940  0.73798175  1
  Te  Te99  1  0.10682504  0.28265869  0.26513785  1
  Te  Te100  1  0.05837706  0.29724814  0.61526970  1
  Te  Te101  1  0.06410484  0.25344809  0.90185921  1
  Te  Te102  1  0.05064175  0.51793143  0.21543009  1
  Te  Te103  1  0.07972966  0.58659874  0.58760862  1
  Te  Te104  1  0.08957926  0.58724189  0.88793925  1
  Te  Te105  1  0.05998191  0.91913669  0.25381471  1
  Te  Te106  1  0.07621011  0.94728319  0.62210920  1
  Te  Te107  1  0.09991200  0.93610956  0.91099037  1
  Te  Te108  1  0.40238352  0.24453623  0.24700791  1
  Te  Te109  1  0.38082784  0.27883953  0.57908589  1
  Te  Te110  1  0.42051668  0.24328863  0.87578537  1
  Te  Te111  1  0.42992348  0.62517221  0.27675277  1
  Te  Te112  1  0.41568161  0.58224927  0.59886211  1
  Te  Te113  1  0.42311260  0.57457703  0.90626451  1
  Te  Te114  1  0.39719017  0.89354252  0.25958592  1
  Te  Te115  1  0.41009350  0.89246525  0.56515488  1
  Te  Te116  1  0.42403212  0.94474728  0.91620361  1
  Te  Te117  1  0.74845659  0.27852563  0.24673214  1
  Te  Te118  1  0.78214748  0.28370729  0.53518605  1
  Te  Te119  1  0.74830725  0.25898789  0.91191203  1
  Te  Te120  1  0.74879633  0.58548211  0.26489148  1
  Te  Te121  1  0.80552336  0.52191058  0.62034579  1
  Te  Te122  1  0.72214908  0.54094570  0.91271400  1
  Te  Te123  1  0.75104441  0.93133191  0.23879196  1
  Te  Te124  1  0.75286540  0.92318660  0.58589739  1
  Te  Te125  1  0.73532358  0.90720671  0.91613650  1
  Te  Te126  1  0.22944880  0.28614536  0.07840936  1
  Te  Te127  1  0.28769152  0.24546918  0.44175351  1
  Te  Te128  1  0.24590366  0.23521682  0.76282502  1
  Te  Te129  1  0.25643902  0.56759179  0.07604438  1
  Te  Te130  1  0.25427292  0.59397156  0.40848817  1
  Te  Te131  1  0.25849528  0.57057155  0.76582391  1
  Te  Te132  1  0.27290134  0.89402836  0.07543959  1
  Te  Te133  1  0.23524627  0.90752753  0.42576549  1
  Te  Te134  1  0.24802836  0.93329130  0.75539925  1
  Te  Te135  1  0.60429351  0.24408851  0.08711014  1
  Te  Te136  1  0.55091463  0.27475997  0.43498731  1
  Te  Te137  1  0.59320648  0.27593223  0.69997031  1
  Te  Te138  1  0.58154575  0.59130939  0.09154285  1
  Te  Te139  1  0.58573753  0.55798034  0.44253207  1
  Te  Te140  1  0.63245948  0.53219694  0.77509617  1
  Te  Te141  1  0.57550338  0.90238783  0.09051684  1
  Te  Te142  1  0.57194903  0.89725650  0.41190438  1
  Te  Te143  1  0.56610993  0.90622219  0.74678765  1
  Te  Te144  1  0.90490079  0.22322376  0.08485157  1
  Te  Te145  1  0.91700251  0.24150354  0.42559239  1
  Te  Te146  1  0.92278260  0.27370460  0.75466268  1
  Te  Te147  1  0.90989334  0.55915389  0.04582960  1
  Te  Te148  1  0.92028221  0.58705859  0.42776958  1
  Te  Te149  1  0.91492939  0.56969877  0.76048141  1
  Te  Te150  1  0.91032873  0.91228378  0.07186315  1
  Te  Te151  1  0.91428077  0.92425333  0.43147777  1
  Te  Te152  1  0.91304653  0.93117758  0.76090471  1
  Te  Te153  1  0.24405104  0.07780307  0.23842362  1
  Te  Te154  1  0.26640795  0.09113797  0.57706356  1
  Te  Te155  1  0.24818939  0.10806493  0.88137326  1
  Te  Te156  1  0.24767567  0.44944877  0.24275049  1
  Te  Te157  1  0.28694328  0.39710226  0.62020315  1
  Te  Te158  1  0.25668610  0.42048264  0.90734124  1
  Te  Te159  1  0.21111593  0.70460661  0.24233306  1
  Te  Te160  1  0.24194573  0.77173015  0.59019672  1
  Te  Te161  1  0.23398310  0.74613267  0.90563298  1
  Te  Te162  1  0.56873081  0.07032294  0.24279460  1
  Te  Te163  1  0.59830533  0.10150427  0.58001567  1
  Te  Te164  1  0.59744533  0.08345472  0.90051708  1
  Te  Te165  1  0.57038515  0.43740112  0.26015178  1
  Te  Te166  1  0.56242890  0.40284455  0.59472290  1
  Te  Te167  1  0.55118587  0.38835846  0.89911277  1
  Te  Te168  1  0.56043822  0.74349550  0.26523014  1
  Te  Te169  1  0.59721322  0.70731532  0.59858014  1
  Te  Te170  1  0.59336995  0.72755619  0.92140597  1
  Te  Te171  1  0.94877382  0.14932307  0.21523535  1
  Te  Te172  1  0.93106840  0.09587458  0.59641015  1
  Te  Te173  1  0.92340616  0.10443935  0.91207659  1
  Te  Te174  1  0.92869729  0.41704129  0.24524085  1
  Te  Te175  1  0.98843691  0.39627286  0.50382331  1
  Te  Te176  1  0.91056373  0.43899791  0.93156015  1
  Te  Te177  1  0.92132919  0.72558150  0.25348535  1
  Te  Te178  1  0.90617260  0.74474627  0.57292387  1
  Te  Te179  1  0.90791569  0.75422137  0.90743563  1
