# generated using pymatgen
data_In2Te3
_symmetry_space_group_name_H-M   'P 1'
_cell_length_a   18.75556465
_cell_length_b   18.75609968
_cell_length_c   18.74329759
_cell_angle_alpha   90.04068611
_cell_angle_beta   89.95336297
_cell_angle_gamma   89.97427003
_symmetry_Int_Tables_number   1
_chemical_formula_structural   In2Te3
_chemical_formula_sum   'In72 Te108'
_cell_volume   6593.53595506
_cell_formula_units_Z   36
loop_
 _symmetry_equiv_pos_site_id
 _symmetry_equiv_pos_as_xyz
  1  'x, y, z'
loop_
 _atom_site_type_symbol
 _atom_site_label
 _atom_site_symmetry_multiplicity
 _atom_site_fract_x
 _atom_site_fract_y
 _atom_site_fract_z
 _atom_site_occupancy
  In  In0  1  0.48565374  0.16225830  0.36754410  1
  In  In1  1  0.84247589  0.16334046  0.34108451  1
  In  In2  1  0.50784466  0.51258667  0.64802626  1
  In  In3  1  0.66442085  0.16770676  0.18963774  1
  In  In4  1  0.67118725  0.51838314  0.18944410  1
  In  In5  1  0.50323396  0.84251150  -0.01171376  1
  In  In6  1  0.32869363  0.52370325  0.81069602  1
  In  In7  1  0.17498159  0.15816623  0.64796664  1
  In  In8  1  0.33007284  0.49438005  0.16073424  1
  In  In9  1  0.52300907  0.32316243  0.79668301  1
  In  In10  1  0.67584427  -0.02647376  0.61591903  1
  In  In11  1  0.83222935  0.66345771  0.18515014  1
  In  In12  1  -0.00871056  0.81490934  0.17844194  1
  In  In13  1  0.16350289  0.51695382  0.34101355  1
  In  In14  1  0.82886406  0.17647618  0.03823144  1
  In  In15  1  0.32510912  0.14095543  0.16928123  1
  In  In16  1  -0.01746449  0.35934650  0.63623498  1
  In  In17  1  -0.02342080  -0.00916474  0.64325154  1
  In  In18  1  0.33188662  0.83497047  0.50815276  1
  In  In19  1  0.83041224  0.15004322  0.64546750  1
  In  In20  1  0.16637149  0.29433156  0.80713180  1
  In  In21  1  0.84645505  0.00875095  0.82003276  1
  In  In22  1  0.14666316  0.15002459  -0.01490466  1
  In  In23  1  0.33357696  0.84887440  0.19401174  1
  In  In24  1  0.69486664  0.84232446  0.22347293  1
  In  In25  1  0.01574224  0.17889687  0.84416638  1
  In  In26  1  0.66875922  0.81762227  0.82011326  1
  In  In27  1  0.15718447  0.81373082  0.35400866  1
  In  In28  1  0.63900446  0.19607013  0.80248891  1
  In  In29  1  0.16286412  0.81639667  0.00933497  1
  In  In30  1  0.01000866  0.63999857  0.62588777  1
  In  In31  1  0.85519362  0.32507054  0.19404121  1
  In  In32  1  0.13929688  0.33106442  0.17882567  1
  In  In33  1  0.00626646  -0.01624525  0.02692430  1
  In  In34  1  0.66593005  0.16876439  0.48700268  1
  In  In35  1  0.83075282  0.82001929  0.01364256  1
  In  In36  1  0.16347270  0.48123515  0.00853071  1
  In  In37  1  0.47970878  -0.00730467  0.83377269  1
  In  In38  1  -0.01616202  0.83962686  0.82598840  1
  In  In39  1  0.32784998  0.66209435  -0.00111190  1
  In  In40  1  0.51605451  0.67254930  0.49899630  1
  In  In41  1  0.16415496  0.83087924  0.65303749  1
  In  In42  1  0.50478478  0.36136585  0.18555332  1
  In  In43  1  0.33252774  0.33335916  -0.00316387  1
  In  In44  1  0.35627501  0.32761834  0.35745714  1
  In  In45  1  0.66577714  0.00783628  0.01124708  1
  In  In46  1  0.49639383  0.68075295  0.82235299  1
  In  In47  1  0.50313894  -0.00395542  0.19576648  1
  In  In48  1  0.15919226  0.00886238  0.50246979  1
  In  In49  1  0.52360474  0.67092349  0.16632775  1
  In  In50  1  0.66718605  0.34408189  0.66566729  1
  In  In51  1  0.84488187  0.51467921  0.00773164  1
  In  In52  1  0.19231260  0.00790405  0.82311289  1
  In  In53  1  0.49275854  0.49149938  0.35955328  1
  In  In54  1  0.48159253  0.17660470  0.00737956  1
  In  In55  1  0.33095187  -0.00337654  0.63137185  1
  In  In56  1  0.17262166  0.64607789  0.82327875  1
  In  In57  1  -0.00626861  0.66300688  0.34543572  1
  In  In58  1  0.17203418  0.33881229  0.50813910  1
  In  In59  1  0.17392996  0.01103045  0.18343214  1
  In  In60  1  0.69439986  0.49915957  0.48946287  1
  In  In61  1  0.82422420  0.67209576  0.48717876  1
  In  In62  1  0.82146586  0.34288389  0.81894837  1
  In  In63  1  0.83366286  0.67641651  0.81739948  1
  In  In64  1  0.49349350  0.82057423  0.65834436  1
  In  In65  1  0.67245695  0.49902977  0.81645220  1
  In  In66  1  0.67880478  0.34788529  -0.01383519  1
  In  In67  1  -0.00111913  0.49355086  0.83569074  1
  In  In68  1  0.29927565  0.16611948  0.80351330  1
  In  In69  1  0.32347774  0.67197458  0.34367905  1
  In  In70  1  -0.01063145  0.33416462  0.33149034  1
  In  In71  1  -0.02815659  -0.00424520  0.35879545  1
  Te  Te72  1  0.07148471  0.09735589  0.10678808  1
  Te  Te73  1  0.07591403  0.09000910  0.41121621  1
  Te  Te74  1  0.07505915  0.07332638  0.74078746  1
  Te  Te75  1  0.06242717  0.43389337  0.10604840  1
  Te  Te76  1  0.07603290  0.42441771  0.42514838  1
  Te  Te77  1  0.08207839  0.40789361  0.74043592  1
  Te  Te78  1  0.06635262  0.73208709  0.08071739  1
  Te  Te79  1  0.08023000  0.73058711  0.44939633  1
  Te  Te80  1  0.07264702  0.74232521  0.74658609  1
  Te  Te81  1  0.41972418  0.05762383  0.08052108  1
  Te  Te82  1  0.40390162  0.07268117  0.45110382  1
  Te  Te83  1  0.41076763  0.08273585  0.73244563  1
  Te  Te84  1  0.43137878  0.42677323  0.06744496  1
  Te  Te85  1  0.40390260  0.42499901  0.45774010  1
  Te  Te86  1  0.42044703  0.42487348  0.73790319  1
  Te  Te87  1  0.41204163  0.75523529  0.08968150  1
  Te  Te88  1  0.42621192  0.76205972  0.40935443  1
  Te  Te89  1  0.39467403  0.74411833  0.73659289  1
  Te  Te90  1  0.75756161  0.06796285  0.11858103  1
  Te  Te91  1  0.75288894  0.06535125  0.41686943  1
  Te  Te92  1  0.73483146  0.07976454  0.74199893  1
  Te  Te93  1  0.75665858  0.41590215  0.09638932  1
  Te  Te94  1  0.79717965  0.39957108  0.44222113  1
  Te  Te95  1  0.77370362  0.44351895  0.71572195  1
  Te  Te96  1  0.73417703  0.74388542  0.09973745  1
  Te  Te97  1  0.72126645  0.78285309  0.44438964  1
  Te  Te98  1  0.74845838  0.74645490  0.71715451  1
  Te  Te99  1  0.09197982  0.23641703  0.28096259  1
  Te  Te100  1  0.06866427  0.24458940  0.58059176  1
  Te  Te101  1  0.08359422  0.27967050  0.93720690  1
  Te  Te102  1  0.07598693  0.58810573  0.24572500  1
  Te  Te103  1  0.10787801  0.54262566  0.57071107  1
  Te  Te104  1  0.08050340  0.58403030  0.92722150  1
  Te  Te105  1  0.08188134  0.91023330  0.25751678  1
  Te  Te106  1  0.06681626  0.90104832  0.55862921  1
  Te  Te107  1  0.08508275  0.92386694  0.90692004  1
  Te  Te108  1  0.42827213  0.24006668  0.23536006  1
  Te  Te109  1  0.40765634  0.24700348  0.62032705  1
  Te  Te110  1  0.41492723  0.25194509  0.89069072  1
  Te  Te111  1  0.41933848  0.58117147  0.25112547  1
  Te  Te112  1  0.41207726  0.59910767  0.57582698  1
  Te  Te113  1  0.42529811  0.57999408  0.91559592  1
  Te  Te114  1  0.41701785  0.92239886  0.29074657  1
  Te  Te115  1  0.44752962  0.92645769  0.55570593  1
  Te  Te116  1  0.39295700  0.90440360  0.91320950  1
  Te  Te117  1  0.74157961  0.26312174  0.27725075  1
  Te  Te118  1  0.75855676  0.26225926  0.57218328  1
  Te  Te119  1  0.75603625  0.23143021  0.91141808  1
  Te  Te120  1  0.75549788  0.58835658  0.28887945  1
  Te  Te121  1  0.73993232  0.60080902  0.58868231  1
  Te  Te122  1  0.74998801  0.58886277  0.91366982  1
  Te  Te123  1  0.75847957  0.94921196  0.30821303  1
  Te  Te124  1  0.78404275  0.90473542  0.54016928  1
  Te  Te125  1  0.75516757  0.91821466  0.91537110  1
  Te  Te126  1  0.24595241  0.24659192  0.08622493  1
  Te  Te127  1  0.24476934  0.24850363  0.41346876  1
  Te  Te128  1  0.27720211  0.27762080  0.69457645  1
  Te  Te129  1  0.23266481  0.59013650  0.09396788  1
  Te  Te130  1  0.25856344  0.57899732  0.43770729  1
  Te  Te131  1  0.23997957  0.58306313  0.70438779  1
  Te  Te132  1  0.24796456  0.91793032  0.08510308  1
  Te  Te133  1  0.24799551  0.92106034  0.41306296  1
  Te  Te134  1  0.26696888  0.90554799  0.73870197  1
  Te  Te135  1  0.59317705  0.25338165  0.08089968  1
  Te  Te136  1  0.56811225  0.26685373  0.43120145  1
  Te  Te137  1  0.55271779  0.23001824  0.67315560  1
  Te  Te138  1  0.58694851  0.57035161  0.07986007  1
  Te  Te139  1  0.60127773  0.59055343  0.40184824  1
  Te  Te140  1  0.59593609  0.60253394  0.73515033  1
  Te  Te141  1  0.59044912  0.90683861  0.09907165  1
  Te  Te142  1  0.63135751  0.88494047  0.37277419  1
  Te  Te143  1  0.58735394  0.92492902  0.74607740  1
  Te  Te144  1  0.93869809  0.25789549  0.09056131  1
  Te  Te145  1  0.90204878  0.26601319  0.43514884  1
  Te  Te146  1  0.91802221  0.24806419  0.74397622  1
  Te  Te147  1  0.93094505  0.59014168  0.10039227  1
  Te  Te148  1  0.91574791  0.56246089  0.43118204  1
  Te  Te149  1  0.92131820  0.57948296  0.73649252  1
  Te  Te150  1  0.89745038  0.91747402  0.11082872  1
  Te  Te151  1  0.90068372  0.89078220  0.43519288  1
  Te  Te152  1  0.88577337  0.89638949  0.72330354  1
  Te  Te153  1  0.25848717  0.07858042  0.28449586  1
  Te  Te154  1  0.28214970  0.11408893  0.53966714  1
  Te  Te155  1  0.27085504  0.08236500  0.93148394  1
  Te  Te156  1  0.25577444  0.40653389  0.25938555  1
  Te  Te157  1  0.22846756  0.44906907  0.59321158  1
  Te  Te158  1  0.25064778  0.41465928  0.89540754  1
  Te  Te159  1  0.23387737  0.74245746  0.24153259  1
  Te  Te160  1  0.23980698  0.73575337  0.56794894  1
  Te  Te161  1  0.25123197  0.75212781  0.90166714  1
  Te  Te162  1  0.59058008  0.07875794  0.28880444  1
  Te  Te163  1  0.57830592  0.06834889  0.55841910  1
  Te  Te164  1  0.57908829  0.09007183  0.91530824  1
  Te  Te165  1  0.60461540  0.41351769  0.28412770  1
  Te  Te166  1  0.58401571  0.41513018  0.55789646  1
  Te  Te167  1  0.57444856  0.42179604  0.90490475  1
  Te  Te168  1  0.57836719  0.76054904  0.27195258  1
  Te  Te169  1  0.60640814  0.76469248  0.57689552  1
  Te  Te170  1  0.59523962  0.73744743  0.92736681  1
  Te  Te171  1  0.92525567  0.08320664  0.24782462  1
  Te  Te172  1  0.92092545  0.08801574  0.54675006  1
  Te  Te173  1  0.92297297  0.08236421  0.93099707  1
  Te  Te174  1  0.91166926  0.44217549  0.26322973  1
  Te  Te175  1  0.90033534  0.44871746  0.54722456  1
  Te  Te176  1  0.91304950  0.40369409  0.92552612  1
  Te  Te177  1  0.89432921  0.76491840  0.28469060  1
  Te  Te178  1  0.93297482  0.74947818  0.56068283  1
  Te  Te179  1  0.92507564  0.73872207  0.92518748  1
