# generated using pymatgen
data_In2Te3
_symmetry_space_group_name_H-M   'P 1'
_cell_length_a   18.94587837
_cell_length_b   18.96233242
_cell_length_c   18.94339817
_cell_angle_alpha   90.32627785
_cell_angle_beta   90.08997361
_cell_angle_gamma   90.09366789
_symmetry_Int_Tables_number   1
_chemical_formula_structural   In2Te3
_chemical_formula_sum   'In72 Te108'
_cell_volume   6805.44023543
_cell_formula_units_Z   36
loop_
 _symmetry_equiv_pos_site_id
 _symmetry_equiv_pos_as_xyz
  1  'x, y, z'
loop_
 _atom_site_type_symbol
 _atom_site_label
 _atom_site_symmetry_multiplicity
 _atom_site_fract_x
 _atom_site_fract_y
 _atom_site_fract_z
 _atom_site_occupancy
  In  In0  1  0.67057220  0.00801998  0.33594321  1
  In  In1  1  0.85401266  0.68035426  0.51599280  1
  In  In2  1  0.68986893  0.00756036  0.69085620  1
  In  In3  1  0.34270813  0.82369755  0.50705186  1
  In  In4  1  0.50647899  -0.01786403  0.17426582  1
  In  In5  1  0.66038665  0.67175439  0.33787584  1
  In  In6  1  0.81580504  0.70094243  0.82823966  1
  In  In7  1  0.35070195  0.50170694  0.50306401  1
  In  In8  1  0.33298830  0.17164600  0.81570930  1
  In  In9  1  0.03217184  0.70763559  -0.00940648  1
  In  In10  1  0.31356855  0.67430041  0.66395062  1
  In  In11  1  0.00119904  0.18226180  0.12982643  1
  In  In12  1  0.14266030  0.49521495  0.00107471  1
  In  In13  1  0.84407633  -0.02274867  0.53897308  1
  In  In14  1  0.36545536  -0.01680749  0.33800072  1
  In  In15  1  0.52569281  0.29968568  0.51175987  1
  In  In16  1  0.33422662  0.16760764  0.55650947  1
  In  In17  1  0.47627758  0.80738658  -0.00361587  1
  In  In18  1  0.65477354  0.32421920  0.68223786  1
  In  In19  1  0.49487945  0.14109092  0.31749813  1
  In  In20  1  -0.00869650  0.01809477  0.34617555  1
  In  In21  1  0.32363350  0.34609524  -0.00823123  1
  In  In22  1  0.30792041  0.15397110  0.14297749  1
  In  In23  1  0.00630852  -0.03768784  -0.03044520  1
  In  In24  1  0.48145925  0.49794005  0.31951005  1
  In  In25  1  0.33265410  0.32445710  0.31998815  1
  In  In26  1  0.51958159  -0.01224797  0.50755051  1
  In  In27  1  0.15304766  0.15640717  0.32282408  1
  In  In28  1  0.34026377  0.49148613  0.83432471  1
  In  In29  1  0.51731762  0.85066305  0.67382040  1
  In  In30  1  0.66964536  0.83856273  0.16106651  1
  In  In31  1  0.81451897  0.16829817  0.71966849  1
  In  In32  1  0.15504359  0.19176249  -0.03704032  1
  In  In33  1  0.18061939  0.83226190  0.31761127  1
  In  In34  1  0.00268485  0.15362742  0.52286888  1
  In  In35  1  0.54797792  0.31454528  0.11519964  1
  In  In36  1  0.81604942  0.82725712  0.31481034  1
  In  In37  1  0.65222495  0.48943520  0.81956733  1
  In  In38  1  0.15446473  0.13996345  0.71107180  1
  In  In39  1  0.86048931  0.45857929  0.31401576  1
  In  In40  1  0.50641088  0.65840164  0.82009016  1
  In  In41  1  0.68019659  0.03914490  0.00842462  1
  In  In42  1  0.68905944  0.17453116  0.48865174  1
  In  In43  1  0.64515989  0.67294100  -0.00729771  1
  In  In44  1  0.30446640  0.68909062  0.32898420  1
  In  In45  1  0.82670457  0.33734598  0.85995054  1
  In  In46  1  0.02301468  0.51310150  0.50584212  1
  In  In47  1  0.84030834  0.85715005  -0.02326579  1
  In  In48  1  0.04685245  -0.07317654  0.73870822  1
  In  In49  1  0.69627733  0.50625134  0.49308286  1
  In  In50  1  0.65042716  0.51096950  0.15586228  1
  In  In51  1  0.50282038  0.49916716  -0.01772384  1
  In  In52  1  0.00544967  0.83749840  0.52605857  1
  In  In53  1  0.50780274  0.31663008  0.86264227  1
  In  In54  1  -0.07175354  0.30161931  0.25499607  1
  In  In55  1  0.48809425  0.66724417  0.52587344  1
  In  In56  1  -0.00537682  0.66153519  0.31528102  1
  In  In57  1  0.16183801  0.51591341  0.67346139  1
  In  In58  1  0.82081035  0.17169875  0.29860676  1
  In  In59  1  0.18174322  0.35223609  0.49032090  1
  In  In60  1  0.17355713  0.66240661  0.50042741  1
  In  In61  1  0.83630054  0.64492929  0.16077994  1
  In  In62  1  0.32360189  -0.01495335  0.00612075  1
  In  In63  1  -0.03720391  0.51485979  0.83643054  1
  In  In64  1  0.83298466  0.49557623  0.00333190  1
  In  In65  1  0.13233654  0.49910651  0.31321606  1
  In  In66  1  0.85516139  0.33298646  0.48587434  1
  In  In67  1  0.31323958  0.51071486  0.15714520  1
  In  In68  1  0.50997070  0.16440859  0.69468641  1
  In  In69  1  0.15994411  -0.02079527  0.14786882  1
  In  In70  1  -0.01522392  0.33887508  0.65952771  1
  In  In71  1  0.30161196  0.82101173  0.85062400  1
  Te  Te72  1  0.09136349  0.07986888  0.05907482  1
  Te  Te73  1  0.10045882  0.07183881  0.43751677  1
  Te  Te74  1  0.04580815  0.07411331  0.78848520  1
  Te  Te75  1  0.05228344  0.40558930  0.07729656  1
  Te  Te76  1  0.06464401  0.40334015  0.40890736  1
  Te  Te77  1  0.06291997  0.43188366  0.75080271  1
  Te  Te78  1  0.11977480  0.77006811  0.09217280  1
  Te  Te79  1  0.08041473  0.74614380  0.41243073  1
  Te  Te80  1  0.12014787  0.80401845  0.78810302  1
  Te  Te81  1  0.42185341  0.07224688  0.08501609  1
  Te  Te82  1  0.41635569  0.09618831  0.44064721  1
  Te  Te83  1  0.41916792  0.06720092  0.75506010  1
  Te  Te84  1  0.42124734  0.41691743  0.08566135  1
  Te  Te85  1  0.42414123  0.38923650  0.42653685  1
  Te  Te86  1  0.44608300  0.41241730  0.76926541  1
  Te  Te87  1  0.38551448  0.77764193  0.10639274  1
  Te  Te88  1  0.42363470  0.74153949  0.41066899  1
  Te  Te89  1  0.40723216  0.76076428  0.74775187  1
  Te  Te90  1  0.81346247  0.10082429  0.03765731  1
  Te  Te91  1  0.77990978  0.07258971  0.42376810  1
  Te  Te92  1  0.78106583  0.05076236  0.80595854  1
  Te  Te93  1  0.75036621  0.41823056  0.09774424  1
  Te  Te94  1  0.74772396  0.39593629  0.40090577  1
  Te  Te95  1  0.76123904  0.41286195  0.74536596  1
  Te  Te96  1  0.75431053  0.74363115  0.07302649  1
  Te  Te97  1  0.74940781  0.75452503  0.42799959  1
  Te  Te98  1  0.76766649  0.81081423  0.74010563  1
  Te  Te99  1  0.07919786  0.25536635  0.24038406  1
  Te  Te100  1  0.09098052  0.26372585  0.58075834  1
  Te  Te101  1  0.03167480  0.26715245  0.94347380  1
  Te  Te102  1  0.07196086  0.58686458  0.21364926  1
  Te  Te103  1  0.07094782  0.61727928  0.60610370  1
  Te  Te104  1  0.07706862  0.59211274  0.90031685  1
  Te  Te105  1  0.07338077  0.92125735  0.25734445  1
  Te  Te106  1  0.07669654  0.94512359  0.59360743  1
  Te  Te107  1  0.13603476  0.89728461  0.92627831  1
  Te  Te108  1  0.41290351  0.23434084  0.22882582  1
  Te  Te109  1  0.42442266  0.26928405  0.62145729  1
  Te  Te110  1  0.40776680  0.23330050  0.93689006  1
  Te  Te111  1  0.40056773  0.59929047  0.24546912  1
  Te  Te112  1  0.41817784  0.57169470  0.61914447  1
  Te  Te113  1  0.40821803  0.60003063  0.91902986  1
  Te  Te114  1  0.41720836  0.88258262  0.24183971  1
  Te  Te115  1  0.40985408  0.92881739  0.59234488  1
  Te  Te116  1  0.41156057  0.91148223  0.90713316  1
  Te  Te117  1  0.78138745  0.28129931  0.20718609  1
  Te  Te118  1  0.76758221  0.25551964  0.59130478  1
  Te  Te119  1  0.77422070  0.23034594  0.94825261  1
  Te  Te120  1  0.75084398  0.57262724  0.26364663  1
  Te  Te121  1  0.74872281  0.60561214  0.58718251  1
  Te  Te122  1  0.73860407  0.57960253  0.91686215  1
  Te  Te123  1  0.75993795  0.93916693  0.23057590  1
  Te  Te124  1  0.72493616  0.90657647  0.58728212  1
  Te  Te125  1  0.72778299  0.92951553  0.91522072  1
  Te  Te126  1  0.22923600  0.26475708  0.07895565  1
  Te  Te127  1  0.25300540  0.23834993  0.41768011  1
  Te  Te128  1  0.22721654  0.25726626  0.76043756  1
  Te  Te129  1  0.25202737  0.58310445  0.04706771  1
  Te  Te130  1  0.24650430  0.56040600  0.40821216  1
  Te  Te131  1  0.24307395  0.59805487  0.77223284  1
  Te  Te132  1  0.27873220  0.89178871  0.11579958  1
  Te  Te133  1  0.25745892  0.91552355  0.42041658  1
  Te  Te134  1  0.21477584  0.92196475  0.77975203  1
  Te  Te135  1  0.61855548  0.20066882  0.03877542  1
  Te  Te136  1  0.59384057  0.23784037  0.39023892  1
  Te  Te137  1  0.61368536  0.22528165  0.78862498  1
  Te  Te138  1  0.55131048  0.60219556  0.08722466  1
  Te  Te139  1  0.56965900  0.57208183  0.42026795  1
  Te  Te140  1  0.60658760  0.59727825  0.73263269  1
  Te  Te141  1  0.57975757  0.91001615  0.06141939  1
  Te  Te142  1  0.57420765  0.91490257  0.39320707  1
  Te  Te143  1  0.56961422  0.95872550  0.76018655  1
  Te  Te144  1  0.87555243  0.24078800  0.07018716  1
  Te  Te145  1  0.93121191  0.22966738  0.40772550  1
  Te  Te146  1  0.92538005  0.25696753  0.77215897  1
  Te  Te147  1  0.92665459  0.60682742  0.04677755  1
  Te  Te148  1  0.91261996  0.57624819  0.41069797  1
  Te  Te149  1  0.88115064  0.59607354  0.74714794  1
  Te  Te150  1  0.92695724  0.91155700  0.08141991  1
  Te  Te151  1  0.91404273  0.90349560  0.41490022  1
  Te  Te152  1  0.89619891  0.88853813  0.73045092  1
  Te  Te153  1  0.25601585  0.06438221  0.25564826  1
  Te  Te154  1  0.23875373  0.07293066  0.61042408  1
  Te  Te155  1  0.25394425  0.08751721  0.91709957  1
  Te  Te156  1  0.23709269  0.41036522  0.24146432  1
  Te  Te157  1  0.25847610  0.42447270  0.59970931  1
  Te  Te158  1  0.22788297  0.41242891  0.89786405  1
  Te  Te159  1  0.20628901  0.71988318  0.22075089  1
  Te  Te160  1  0.22620247  0.77372701  0.59097834  1
  Te  Te161  1  0.21549417  0.76882475  0.96392021  1
  Te  Te162  1  0.60532452  0.08988502  0.22629576  1
  Te  Te163  1  0.59845341  0.09744938  0.58208028  1
  Te  Te164  1  0.57998426  0.10941329  0.92779857  1
  Te  Te165  1  0.57430988  0.41035886  0.24083372  1
  Te  Te166  1  0.59852449  0.41576672  0.57607137  1
  Te  Te167  1  0.61004889  0.40275685  0.93679979  1
  Te  Te168  1  0.58603181  0.74551137  0.23695559  1
  Te  Te169  1  0.58592557  0.76083658  0.58038907  1
  Te  Te170  1  0.58689554  0.76571328  0.89135181  1
  Te  Te171  1  0.92614375  0.08580966  0.22935356  1
  Te  Te172  1  0.90396282  0.09087841  0.61809811  1
  Te  Te173  1  0.92639266  0.05603014  0.88773142  1
  Te  Te174  1  0.95129201  0.43824319  0.19353795  1
  Te  Te175  1  0.90907358  0.44163438  0.57770633  1
  Te  Te176  1  0.94747857  0.39938781  0.94704552  1
  Te  Te177  1  0.91734982  0.75729021  0.22647522  1
  Te  Te178  1  0.91230296  0.77126844  0.62316971  1
  Te  Te179  1  0.93486688  0.77219320  0.89223860  1
