# generated using pymatgen
data_In2Te3
_symmetry_space_group_name_H-M   'P 1'
_cell_length_a   18.94007779
_cell_length_b   18.93933154
_cell_length_c   18.93732613
_cell_angle_alpha   90.06207838
_cell_angle_beta   89.98205419
_cell_angle_gamma   89.82264131
_symmetry_Int_Tables_number   1
_chemical_formula_structural   In2Te3
_chemical_formula_sum   'In72 Te108'
_cell_volume   6793.01707178
_cell_formula_units_Z   36
loop_
 _symmetry_equiv_pos_site_id
 _symmetry_equiv_pos_as_xyz
  1  'x, y, z'
loop_
 _atom_site_type_symbol
 _atom_site_label
 _atom_site_symmetry_multiplicity
 _atom_site_fract_x
 _atom_site_fract_y
 _atom_site_fract_z
 _atom_site_occupancy
  In  In0  1  0.34181348  0.65374174  0.64593539  1
  In  In1  1  0.45816409  -0.02102514  0.52784118  1
  In  In2  1  0.31311522  -0.03328781  -0.02019271  1
  In  In3  1  0.17663822  0.81430195  -0.02529506  1
  In  In4  1  0.15604607  0.00770511  0.80671292  1
  In  In5  1  0.16073612  0.66974009  0.45893428  1
  In  In6  1  0.32511929  -0.00629616  0.32449152  1
  In  In7  1  0.85968648  0.16290949  0.63119575  1
  In  In8  1  0.87346322  0.84311446  0.35560679  1
  In  In9  1  0.84877027  0.63644485  0.82188965  1
  In  In10  1  0.51405591  0.67435397  0.16017439  1
  In  In11  1  0.16333295  0.83864004  0.66616994  1
  In  In12  1  0.50567640  0.33440565  0.52310287  1
  In  In13  1  0.33052325  0.51871418  0.14720467  1
  In  In14  1  0.16069068  0.84412356  0.33334392  1
  In  In15  1  0.65689887  0.51914083  0.17520914  1
  In  In16  1  0.30288081  0.15678066  0.51200889  1
  In  In17  1  0.52426472  -0.01217489  0.81039548  1
  In  In18  1  0.67997377  0.00461720  0.65238615  1
  In  In19  1  0.65281697  0.49654505  0.84192666  1
  In  In20  1  0.83458703  0.49541061  0.01159643  1
  In  In21  1  0.51853695  0.78522676  0.44115584  1
  In  In22  1  0.32448971  0.18852415  0.16365997  1
  In  In23  1  0.52732942  0.15709484  0.34437776  1
  In  In24  1  0.83425986  0.66604137  0.51234102  1
  In  In25  1  0.00060328  0.83352893  0.80043374  1
  In  In26  1  0.32912176  0.16131365  0.82978722  1
  In  In27  1  0.65149747  0.20334744  0.81347785  1
  In  In28  1  0.33201075  0.49725124  0.52118621  1
  In  In29  1  0.69032759  0.16998623  0.17658997  1
  In  In30  1  0.82680145  0.48402465  0.37143592  1
  In  In31  1  0.68713178  0.65538865  0.33760308  1
  In  In32  1  0.66632686  0.66359395  0.64983250  1
  In  In33  1  0.84414086  0.02739802  0.84441675  1
  In  In34  1  0.83405786  0.00299307  0.17657620  1
  In  In35  1  0.31434590  0.36314020  0.70788440  1
  In  In36  1  0.81942745  0.81792921  0.00301775  1
  In  In37  1  0.28959439  0.37020531  -0.04042604  1
  In  In38  1  0.01208795  0.65349612  0.68295532  1
  In  In39  1  -0.00395923  0.50059237  0.16728033  1
  In  In40  1  0.68256046  0.82978616  0.17927985  1
  In  In41  1  0.64803143  0.82127398  0.83532028  1
  In  In42  1  0.49614003  0.82999270  -0.00070118  1
  In  In43  1  0.69516337  0.17809966  0.52771385  1
  In  In44  1  0.52122914  0.35452277  0.15763684  1
  In  In45  1  0.83503473  0.33911477  0.17439573  1
  In  In46  1  0.46798400  0.17448698  -0.00041459  1
  In  In47  1  -0.01697688  0.48504513  0.51303949  1
  In  In48  1  0.14996937  0.15817361  0.33816813  1
  In  In49  1  0.01044385  0.84306008  0.18450870  1
  In  In50  1  0.16198145  0.32949623  0.14991131  1
  In  In51  1  0.49792414  0.02640126  0.18211800  1
  In  In52  1  0.14345663  0.49164787  0.32924161  1
  In  In53  1  0.83705119  0.31189531  0.81426420  1
  In  In54  1  0.02778764  0.63738880  -0.04252243  1
  In  In55  1  0.48059978  0.48426575  -0.04551221  1
  In  In56  1  0.00676190  0.02370133  0.00175178  1
  In  In57  1  0.32012973  0.85214400  0.16779532  1
  In  In58  1  0.13138702  0.17226675  0.63459814  1
  In  In59  1  0.81672998  0.84124770  0.64691155  1
  In  In60  1  0.48523240  0.68044542  0.82963329  1
  In  In61  1  0.66735312  0.32054089  0.66183036  1
  In  In62  1  -0.01415087  0.16993922  0.16249636  1
  In  In63  1  0.66792062  0.01989300  0.00936896  1
  In  In64  1  0.15239996  -0.01319545  0.49748455  1
  In  In65  1  0.50766388  0.17764123  0.68481242  1
  In  In66  1  0.32699855  0.31088657  0.32991514  1
  In  In67  1  0.86831037  0.19697405  0.37304640  1
  In  In68  1  0.02967666  0.34448014  -0.02914453  1
  In  In69  1  0.14608727  0.48343559  0.68268504  1
  In  In70  1  0.50495512  0.50943705  0.33742617  1
  In  In71  1  0.17062208  0.68702192  0.15835270  1
  Te  Te72  1  0.09318109  0.10687062  0.08501618  1
  Te  Te73  1  0.06576720  0.09880203  0.44622305  1
  Te  Te74  1  0.05764136  0.08264332  0.72626902  1
  Te  Te75  1  0.09671093  0.44014733  0.07082905  1
  Te  Te76  1  0.07074582  0.40169306  0.42152691  1
  Te  Te77  1  0.10650604  0.37948629  0.79248998  1
  Te  Te78  1  0.06757785  0.75231221  0.06422864  1
  Te  Te79  1  0.06139750  0.76055455  0.40171605  1
  Te  Te80  1  0.10792013  0.73118191  0.76874203  1
  Te  Te81  1  0.39472648  0.06213668  0.07599635  1
  Te  Te82  1  0.39761799  0.10249923  0.40341270  1
  Te  Te83  1  0.41560150  0.06948667  0.74306956  1
  Te  Te84  1  0.39929129  0.40168901  0.07724830  1
  Te  Te85  1  0.41345603  0.40381077  0.41352454  1
  Te  Te86  1  0.43675451  0.42178368  0.75838624  1
  Te  Te87  1  0.40310364  0.75198637  0.08820290  1
  Te  Te88  1  0.40462079  0.69655533  0.46056307  1
  Te  Te89  1  0.41800812  0.76143781  0.72226071  1
  Te  Te90  1  0.77742310  0.10222921  0.07215203  1
  Te  Te91  1  0.76457132  0.10229370  0.42293652  1
  Te  Te92  1  0.74937239  0.10468129  0.74319696  1
  Te  Te93  1  0.73422579  0.41420952  0.09101448  1
  Te  Te94  1  0.74830691  0.41405016  0.47336028  1
  Te  Te95  1  0.74535634  0.41667780  0.75064659  1
  Te  Te96  1  0.73682026  0.73091606  0.08581083  1
  Te  Te97  1  0.76012429  0.75915612  0.41963621  1
  Te  Te98  1  0.75945227  0.74632742  0.75998592  1
  Te  Te99  1  0.07621703  0.25903534  0.25046052  1
  Te  Te100  1  0.03233445  0.27979989  0.59136922  1
  Te  Te101  1  0.13036073  0.26850165  0.89375501  1
  Te  Te102  1  0.07874012  0.60105386  0.24660024  1
  Te  Te103  1  0.09610959  0.58093463  0.56952836  1
  Te  Te104  1  0.07372326  0.53235292  0.86173009  1
  Te  Te105  1  0.07868919  0.94384710  0.26274211  1
  Te  Te106  1  0.06274510  0.90056175  0.57746174  1
  Te  Te107  1  0.06952608  0.91617599  0.90894436  1
  Te  Te108  1  0.44195423  0.24746656  0.24362556  1
  Te  Te109  1  0.40536363  0.24211211  0.58890233  1
  Te  Te110  1  0.39799335  0.27175029  0.90733184  1
  Te  Te111  1  0.41692786  0.59380142  0.24723424  1
  Te  Te112  1  0.44754273  0.58745428  0.55884330  1
  Te  Te113  1  0.39566567  0.60103278  0.91908088  1
  Te  Te114  1  0.43178269  0.91100892  0.25401620  1
  Te  Te115  1  0.41070648  0.87491108  0.61482011  1
  Te  Te116  1  0.42131242  0.90529212  0.89243312  1
  Te  Te117  1  0.76068892  0.25761096  0.27709678  1
  Te  Te118  1  0.79155534  0.29300413  0.56591005  1
  Te  Te119  1  0.74730997  0.24811568  0.91329442  1
  Te  Te120  1  0.77732501  0.56985909  0.25059397  1
  Te  Te121  1  0.76657590  0.56878288  0.59896018  1
  Te  Te122  1  0.74859032  0.58490579  0.92316110  1
  Te  Te123  1  0.75899514  0.91675574  0.27451194  1
  Te  Te124  1  0.76262913  0.93818548  0.54780368  1
  Te  Te125  1  0.73664921  0.92507062  0.90638531  1
  Te  Te126  1  0.24640767  0.25125472  0.05191350  1
  Te  Te127  1  0.22575450  0.25745454  0.42768110  1
  Te  Te128  1  0.24084556  0.23126597  0.72924340  1
  Te  Te129  1  0.23611532  0.59431952  0.06020726  1
  Te  Te130  1  0.25588835  0.56087629  0.40496108  1
  Te  Te131  1  0.27240223  0.55312653  0.73322245  1
  Te  Te132  1  0.21332413  0.91635534  0.08288101  1
  Te  Te133  1  0.26413004  0.90531261  0.42878448  1
  Te  Te134  1  0.24510372  0.89626928  0.77347801  1
  Te  Te135  1  0.57925312  0.23016981  0.08905739  1
  Te  Te136  1  0.59961414  0.25406314  0.43221089  1
  Te  Te137  1  0.54223821  0.30851750  0.76098915  1
  Te  Te138  1  0.55621623  0.56057029  0.07050293  1
  Te  Te139  1  0.60708185  0.56811811  0.42366622  1
  Te  Te140  1  0.57452241  0.58902233  0.74731832  1
  Te  Te141  1  0.58334728  0.92115261  0.08939533  1
  Te  Te142  1  0.55375360  0.92760223  0.42972121  1
  Te  Te143  1  0.59343460  0.89399069  0.71376032  1
  Te  Te144  1  0.93117530  0.28075302  0.07437116  1
  Te  Te145  1  0.96915726  0.27577949  0.44850259  1
  Te  Te146  1  0.93450184  0.22020604  0.74628463  1
  Te  Te147  1  0.92979082  0.59692943  0.07020557  1
  Te  Te148  1  0.92632750  0.58965322  0.41791766  1
  Te  Te149  1  0.92168365  0.54310526  0.72956259  1
  Te  Te150  1  0.90913190  0.92146374  0.07141668  1
  Te  Te151  1  0.91634521  0.93085689  0.46718653  1
  Te  Te152  1  0.90019921  0.93190593  0.73983671  1
  Te  Te153  1  0.24080309  0.08640955  0.23834209  1
  Te  Te154  1  0.23840408  0.05765154  0.60151515  1
  Te  Te155  1  0.23505932  0.07995319  0.91612015  1
  Te  Te156  1  0.25644102  0.41467555  0.24299555  1
  Te  Te157  1  0.23400996  0.40147378  0.58487711  1
  Te  Te158  1  0.21576214  0.46880727  0.87311460  1
  Te  Te159  1  0.26025391  0.75035116  0.26278084  1
  Te  Te160  1  0.23233563  0.73467790  0.57680315  1
  Te  Te161  1  0.26731239  0.70599350  0.93830209  1
  Te  Te162  1  0.61873017  0.06690163  0.26305632  1
  Te  Te163  1  0.56979011  0.08341938  0.57985641  1
  Te  Te164  1  0.57066104  0.09512402  0.91482223  1
  Te  Te165  1  0.60395486  0.41206448  0.27016509  1
  Te  Te166  1  0.60409869  0.42782555  0.57928342  1
  Te  Te167  1  0.59708012  0.39806467  0.93696864  1
  Te  Te168  1  0.58373441  0.75153987  0.26921964  1
  Te  Te169  1  0.60958249  0.76536525  0.56189172  1
  Te  Te170  1  0.58930508  0.72878842  0.93738841  1
  Te  Te171  1  0.91600145  0.08884283  0.26949243  1
  Te  Te172  1  0.92058443  0.07489824  0.52846624  1
  Te  Te173  1  0.93087904  0.11824885  0.91791605  1
  Te  Te174  1  0.92301651  0.41625807  0.26933626  1
  Te  Te175  1  0.96497565  0.41416123  0.64401247  1
  Te  Te176  1  0.90838421  0.41356388  0.90851199  1
  Te  Te177  1  0.90026454  0.76336494  0.23563283  1
  Te  Te178  1  0.92893863  0.74852559  0.59852266  1
  Te  Te179  1  0.91708623  0.75079518  0.90498460  1
