# generated using pymatgen
data_In2Te3
_symmetry_space_group_name_H-M   'P 1'
_cell_length_a   18.77710426
_cell_length_b   18.77559283
_cell_length_c   18.77792028
_cell_angle_alpha   89.97053709
_cell_angle_beta   90.02388433
_cell_angle_gamma   90.02438894
_symmetry_Int_Tables_number   1
_chemical_formula_structural   In2Te3
_chemical_formula_sum   'In72 Te108'
_cell_volume   6620.17748467
_cell_formula_units_Z   36
loop_
 _symmetry_equiv_pos_site_id
 _symmetry_equiv_pos_as_xyz
  1  'x, y, z'
loop_
 _atom_site_type_symbol
 _atom_site_label
 _atom_site_symmetry_multiplicity
 _atom_site_fract_x
 _atom_site_fract_y
 _atom_site_fract_z
 _atom_site_occupancy
  In  In0  1  0.00348530  0.51231961  0.82592799  1
  In  In1  1  0.84032209  0.66190308  0.50209073  1
  In  In2  1  0.46389320  0.19979227  0.65849368  1
  In  In3  1  0.47459313  0.16811389  0.00396437  1
  In  In4  1  0.04801450  0.32917136  0.01385653  1
  In  In5  1  0.82997910  0.81712564  0.00159449  1
  In  In6  1  0.03382236  0.65418970  0.33974517  1
  In  In7  1  0.66388626  0.16704853  0.17671256  1
  In  In8  1  0.66096391  0.67763691  0.32304748  1
  In  In9  1  0.00264998  0.17088029  0.16095161  1
  In  In10  1  0.82860893  0.32528302  0.83637253  1
  In  In11  1  0.67100599  0.48198274  0.17411726  1
  In  In12  1  0.65554204  0.50366720  0.50653691  1
  In  In13  1  0.68152364  0.01901435  0.66656931  1
  In  In14  1  0.85414949  0.34461619  0.49426900  1
  In  In15  1  0.48075281  0.00195334  0.16829101  1
  In  In16  1  0.33447994  0.00906180  0.67579357  1
  In  In17  1  0.65468436  0.66982557  0.67183454  1
  In  In18  1  0.34671133  0.34410042  0.34125378  1
  In  In19  1  0.15564650  0.16778922  0.32392356  1
  In  In20  1  0.33562837  0.68441943  0.66578766  1
  In  In21  1  0.66471159  0.84478492  0.84123906  1
  In  In22  1  0.31615935  0.67357912  0.33915678  1
  In  In23  1  0.17892371  0.00880820  0.51769430  1
  In  In24  1  0.19076884  0.84504621  0.66523134  1
  In  In25  1  0.50454436  0.33087428  0.82876699  1
  In  In26  1  0.83208927  0.16305535  0.67831182  1
  In  In27  1  0.65913126  0.51496887  0.83158764  1
  In  In28  1  0.86076344  0.46081046  0.30028662  1
  In  In29  1  0.32885486  0.50732970  0.16327700  1
  In  In30  1  -0.01727709  0.00474479  0.34549928  1
  In  In31  1  0.65221267  0.34062851  0.66018831  1
  In  In32  1  0.48011254  0.00230872  0.83621076  1
  In  In33  1  0.50686482  -0.02627394  0.47681840  1
  In  In34  1  0.65516190  0.31815911  0.32669844  1
  In  In35  1  0.19460946  -0.02200325  0.14560825  1
  In  In36  1  0.48367240  0.81218795  0.65953551  1
  In  In37  1  0.83595906  0.48875799  0.00820879  1
  In  In38  1  0.47804449  0.17597724  0.34518144  1
  In  In39  1  0.81959501  -0.02785327  0.17384555  1
  In  In40  1  0.18330946  0.49867369  0.32564661  1
  In  In41  1  0.01664827  0.67205478  0.00575176  1
  In  In42  1  0.46860755  0.84881757  -0.01164968  1
  In  In43  1  0.03367557  0.03503360  0.68854153  1
  In  In44  1  0.83524951  0.83636723  0.66594799  1
  In  In45  1  0.00215383  0.85785041  0.84002320  1
  In  In46  1  0.82932816  0.19269541  0.35545821  1
  In  In47  1  0.49155366  0.66514304  0.19242967  1
  In  In48  1  0.31811271  0.46908290  0.84385047  1
  In  In49  1  0.83343191  0.67217859  0.13641666  1
  In  In50  1  0.48560857  0.33647345  0.16268589  1
  In  In51  1  0.83808527  -0.00063532  0.51681765  1
  In  In52  1  0.15955103  0.67284471  0.84899948  1
  In  In53  1  0.00964327  0.81655015  0.16931130  1
  In  In54  1  0.20339346  0.28176811  0.85169511  1
  In  In55  1  0.65643435  -0.00567936  -0.00761759  1
  In  In56  1  0.65898869  0.14470460  0.50343987  1
  In  In57  1  0.16975156  0.49058005  0.65863423  1
  In  In58  1  0.82537095  0.84712744  0.33000350  1
  In  In59  1  0.32724850  0.66205172  0.00151789  1
  In  In60  1  0.47232594  0.66731888  0.48955315  1
  In  In61  1  0.49913039  0.68177954  0.80469483  1
  In  In62  1  0.02875749  0.01768819  -0.01136200  1
  In  In63  1  0.85351515  0.16438737  -0.02348760  1
  In  In64  1  0.01517820  0.49610691  0.51051310  1
  In  In65  1  0.49244546  0.48376571  -0.00342932  1
  In  In66  1  0.34288915  0.00631400  0.33381023  1
  In  In67  1  0.01588306  0.32730387  0.65766168  1
  In  In68  1  0.17968418  0.33931375  0.49853677  1
  In  In69  1  0.01115905  0.64011139  0.66358734  1
  In  In70  1  0.68434184  0.66831253  0.01646736  1
  In  In71  1  0.16918486  0.82486981  0.32607803  1
  Te  Te72  1  0.11351820  0.09760011  0.08648811  1
  Te  Te73  1  0.07900878  0.08794240  0.42810364  1
  Te  Te74  1  0.13792229  0.10291893  0.77285253  1
  Te  Te75  1  0.07669908  0.42572286  0.12169244  1
  Te  Te76  1  0.08095109  0.41149922  0.40499541  1
  Te  Te77  1  0.09594144  0.40722984  0.76259222  1
  Te  Te78  1  0.11125191  0.75860742  0.08037079  1
  Te  Te79  1  0.08469014  0.75837835  0.42828437  1
  Te  Te80  1  0.07987436  0.75406531  0.74539910  1
  Te  Te81  1  0.38245069  0.07997036  0.08342633  1
  Te  Te82  1  0.40726527  0.08694364  0.44634734  1
  Te  Te83  1  0.40029574  0.11415365  0.76950007  1
  Te  Te84  1  0.38665836  0.40154637  0.06602562  1
  Te  Te85  1  0.42967781  0.39702545  0.45162119  1
  Te  Te86  1  0.40538307  0.40309011  0.74507751  1
  Te  Te87  1  0.41214712  0.75082714  0.09386302  1
  Te  Te88  1  0.41454812  0.76923356  0.39898452  1
  Te  Te89  1  0.38885551  0.78097294  0.77562304  1
  Te  Te90  1  0.75114173  0.07827600  0.08272147  1
  Te  Te91  1  0.75330412  0.07192948  0.40921101  1
  Te  Te92  1  0.74794416  0.08996880  0.77574422  1
  Te  Te93  1  0.74563167  0.39738677  0.08057282  1
  Te  Te94  1  0.74673753  0.41764015  0.40976694  1
  Te  Te95  1  0.74800520  0.42164809  0.74708106  1
  Te  Te96  1  0.72777654  0.77971242  0.11105439  1
  Te  Te97  1  0.74633277  0.75363335  0.42541327  1
  Te  Te98  1  0.75215961  0.74875285  0.76075974  1
  Te  Te99  1  0.08450729  0.26942931  0.23984633  1
  Te  Te100  1  0.10372900  0.23685399  0.58074705  1
  Te  Te101  1  0.07392057  0.22601107  0.90996980  1
  Te  Te102  1  0.09666297  0.57819035  0.23152400  1
  Te  Te103  1  0.11779722  0.59684733  0.56127474  1
  Te  Te104  1  0.09794104  0.56239275  0.93470582  1
  Te  Te105  1  0.07814935  0.93573759  0.24777329  1
  Te  Te106  1  0.07831453  0.92330071  0.59457498  1
  Te  Te107  1  0.11372486  0.92078609  0.91469690  1
  Te  Te108  1  0.39551437  0.23766759  0.23398448  1
  Te  Te109  1  0.39629884  0.28376306  0.55528923  1
  Te  Te110  1  0.39748279  0.26393812  0.91426488  1
  Te  Te111  1  0.41397037  0.56492673  0.27420337  1
  Te  Te112  1  0.40805293  0.58052770  0.59023709  1
  Te  Te113  1  0.42333659  0.58251321  0.90236453  1
  Te  Te114  1  0.40189478  0.90324460  0.24589937  1
  Te  Te115  1  0.40542089  0.91285995  0.57690176  1
  Te  Te116  1  0.37375543  0.95254678  0.93393663  1
  Te  Te117  1  0.76624501  0.26473126  0.23639685  1
  Te  Te118  1  0.75205871  0.25039383  0.57316096  1
  Te  Te119  1  0.74106802  0.24209314  0.92058497  1
  Te  Te120  1  0.75962963  0.58375989  0.24563248  1
  Te  Te121  1  0.75333536  0.57879466  0.59636146  1
  Te  Te122  1  0.76495760  0.58937597  0.91502258  1
  Te  Te123  1  0.71120943  0.92490543  0.26720216  1
  Te  Te124  1  0.73109793  0.90683895  0.57733200  1
  Te  Te125  1  0.77013719  0.92746765  0.91358179  1
  Te  Te126  1  0.29435777  0.20604724  0.02086840  1
  Te  Te127  1  0.25758637  0.23905319  0.41185605  1
  Te  Te128  1  0.22121045  0.22087631  0.71240335  1
  Te  Te129  1  0.23138357  0.58374958  0.08237703  1
  Te  Te130  1  0.26420105  0.56696835  0.42874720  1
  Te  Te131  1  0.24737917  0.58452337  0.75756966  1
  Te  Te132  1  0.26583533  0.90268780  0.04062667  1
  Te  Te133  1  0.25008706  0.91815272  0.41841206  1
  Te  Te134  1  0.23795156  0.94125379  0.76783838  1
  Te  Te135  1  0.58161591  0.25194260  0.07987911  1
  Te  Te136  1  0.57421089  0.25291191  0.43738839  1
  Te  Te137  1  0.58764274  0.23252325  0.74466071  1
  Te  Te138  1  0.57717160  0.57918032  0.08525044  1
  Te  Te139  1  0.57351180  0.58313130  0.40654173  1
  Te  Te140  1  0.55798009  0.56420058  0.72769544  1
  Te  Te141  1  0.57251887  0.90907421  0.08425952  1
  Te  Te142  1  0.60086843  0.91219287  0.38321006  1
  Te  Te143  1  0.57113014  0.91587231  0.74437346  1
  Te  Te144  1  0.91731403  0.26178897  0.07334109  1
  Te  Te145  1  0.94506548  0.25809940  0.41761008  1
  Te  Te146  1  0.93368392  0.24446150  0.75738567  1
  Te  Te147  1  0.93566512  0.57108620  0.09088382  1
  Te  Te148  1  0.91690147  0.56737681  0.40883371  1
  Te  Te149  1  0.90308103  0.58558967  0.74769246  1
  Te  Te150  1  0.92849476  0.91419018  0.07973990  1
  Te  Te151  1  0.92337006  0.89912559  0.43668287  1
  Te  Te152  1  0.91883167  0.93950995  0.74079984  1
  Te  Te153  1  0.25265984  0.08595823  0.23982814  1
  Te  Te154  1  0.25630416  0.11194413  0.59516569  1
  Te  Te155  1  0.22032885  0.13399410  0.91034697  1
  Te  Te156  1  0.25081627  0.39440519  0.23374426  1
  Te  Te157  1  0.27272202  0.39741533  0.60204461  1
  Te  Te158  1  0.22479525  0.40456675  0.93740440  1
  Te  Te159  1  0.23798042  0.73797574  0.22941207  1
  Te  Te160  1  0.25661808  0.75912653  0.56584756  1
  Te  Te161  1  0.25100702  0.76502004  0.92296287  1
  Te  Te162  1  0.57058745  0.08508282  0.26371651  1
  Te  Te163  1  0.55816052  0.07882032  0.59768612  1
  Te  Te164  1  0.57604084  0.09441543  0.91187823  1
  Te  Te165  1  0.56259280  0.42216120  0.26348804  1
  Te  Te166  1  0.55541150  0.41586424  0.57489836  1
  Te  Te167  1  0.60086281  0.40646802  0.92242992  1
  Te  Te168  1  0.55486502  0.77284100  0.27568457  1
  Te  Te169  1  0.58506882  0.75118317  0.56495816  1
  Te  Te170  1  0.58150757  0.74580547  0.92479696  1
  Te  Te171  1  0.90180795  0.08747672  0.24439534  1
  Te  Te172  1  0.93230490  0.09697415  0.58438761  1
  Te  Te173  1  0.93007524  0.07106258  0.89203597  1
  Te  Te174  1  0.95792950  0.38942715  0.21600341  1
  Te  Te175  1  0.91419577  0.43051261  0.60459150  1
  Te  Te176  1  0.93347100  0.40755703  0.91931193  1
  Te  Te177  1  0.91136892  0.73940852  0.25727664  1
  Te  Te178  1  0.93199164  0.74961791  0.58580926  1
  Te  Te179  1  0.92387095  0.74269883  0.90691883  1
