# generated using pymatgen
data_In2Te3
_symmetry_space_group_name_H-M   'P 1'
_cell_length_a   18.82656806
_cell_length_b   18.83157954
_cell_length_c   18.82906444
_cell_angle_alpha   89.87724298
_cell_angle_beta   90.03081544
_cell_angle_gamma   89.93847857
_symmetry_Int_Tables_number   1
_chemical_formula_structural   In2Te3
_chemical_formula_sum   'In72 Te108'
_cell_volume   6675.52364988
_cell_formula_units_Z   36
loop_
 _symmetry_equiv_pos_site_id
 _symmetry_equiv_pos_as_xyz
  1  'x, y, z'
loop_
 _atom_site_type_symbol
 _atom_site_label
 _atom_site_symmetry_multiplicity
 _atom_site_fract_x
 _atom_site_fract_y
 _atom_site_fract_z
 _atom_site_occupancy
  In  In0  1  0.82742993  0.33398361  0.84934478  1
  In  In1  1  0.12722630  0.52144200  -0.02529825  1
  In  In2  1  0.16815257  0.49489872  0.67933788  1
  In  In3  1  -0.01182140  0.51200692  0.15234173  1
  In  In4  1  0.83309569  0.72766085  0.86591877  1
  In  In5  1  -0.02417242  -0.00578397  -0.01181610  1
  In  In6  1  0.49454699  0.02687866  0.50530737  1
  In  In7  1  0.03495246  0.46293269  0.46990440  1
  In  In8  1  0.54185894  0.87116968  0.69071178  1
  In  In9  1  0.83541104  0.15490454  0.66040033  1
  In  In10  1  0.51106159  0.30261109  0.17960418  1
  In  In11  1  -0.00191076  0.85182976  0.48981393  1
  In  In12  1  0.49318095  0.14935583  0.65107252  1
  In  In13  1  0.53159139  0.84105817  0.00298453  1
  In  In14  1  -0.00302814  -0.00096620  0.33474996  1
  In  In15  1  0.19562056  0.85465283  0.34726995  1
  In  In16  1  0.49477529  0.35079078  0.83719622  1
  In  In17  1  0.32415855  0.15756332  0.82499099  1
  In  In18  1  0.51890807  0.15604644  0.00901599  1
  In  In19  1  0.84389139  0.50757680  0.31378905  1
  In  In20  1  0.01405876  0.34576631  0.66507693  1
  In  In21  1  -0.02129792  0.83938058  0.14367385  1
  In  In22  1  0.49353922  0.67487013  0.84683848  1
  In  In23  1  0.83199175  0.33050793  0.50347431  1
  In  In24  1  0.30914512  0.32046216  0.01096762  1
  In  In25  1  0.83868953  0.67860854  0.15041687  1
  In  In26  1  0.69293886  0.13436293  0.13818150  1
  In  In27  1  0.16139191  0.82540119  0.66354794  1
  In  In28  1  0.67090889  0.84716688  0.50174125  1
  In  In29  1  0.17458431  0.30822825  0.17617227  1
  In  In30  1  0.17898215  0.01486931  0.18870243  1
  In  In31  1  -0.00601526  0.66155073  0.31498857  1
  In  In32  1  0.67691592  -0.00591618  0.31964589  1
  In  In33  1  0.16315842  0.66952357  0.51772623  1
  In  In34  1  0.82606223  0.00388958  0.50782103  1
  In  In35  1  0.32871796  0.83387571  0.18454145  1
  In  In36  1  0.84331672  0.15790895  0.32263159  1
  In  In37  1  0.31455958  0.67096757  0.66706052  1
  In  In38  1  0.50816122  0.69068511  0.46582444  1
  In  In39  1  -0.01684907  0.68375982  0.67732903  1
  In  In40  1  0.49048466  0.52799076  0.33032750  1
  In  In41  1  0.13513144  0.82482243  0.01043123  1
  In  In42  1  0.33882106  0.00203092  0.66884344  1
  In  In43  1  0.65477868  0.32551267  0.34182587  1
  In  In44  1  0.32351053  0.48720816  0.14177141  1
  In  In45  1  0.32259777  0.67453765  0.33912532  1
  In  In46  1  0.67677266  0.66517263  0.00125599  1
  In  In47  1  -0.00182929  0.31826367  -0.00329930  1
  In  In48  1  0.67448674  0.66847317  0.68582662  1
  In  In49  1  0.84273731  0.53661682  0.68422229  1
  In  In50  1  0.83632107  0.69108366  0.50320489  1
  In  In51  1  0.50868479  0.50185622  0.67076043  1
  In  In52  1  -0.00597006  0.14594795  0.49631039  1
  In  In53  1  0.31258278  0.30949865  0.35848895  1
  In  In54  1  0.52413041  0.71583004  0.20617343  1
  In  In55  1  0.67427503  0.33870376  0.66248679  1
  In  In56  1  0.49480392  0.31870747  0.52856724  1
  In  In57  1  0.33827838  0.49894200  0.48691183  1
  In  In58  1  0.32794371  0.66048765  0.01512547  1
  In  In59  1  -0.00510317  0.14971890  0.17252581  1
  In  In60  1  0.83497258  0.35395530  0.15801652  1
  In  In61  1  0.33196663  0.01207010  -0.00820265  1
  In  In62  1  0.51626058  0.50385255  -0.00959858  1
  In  In63  1  0.50942930  -0.02577126  0.16900375  1
  In  In64  1  0.68187859  0.50725566  0.14813017  1
  In  In65  1  0.67253537  0.15175258  0.82541718  1
  In  In66  1  0.16875868  0.32752498  0.84352644  1
  In  In67  1  -0.00716912  0.14709177  0.84113193  1
  In  In68  1  0.36288267  0.33897873  0.64037091  1
  In  In69  1  0.15640620  0.14194001  0.67797718  1
  In  In70  1  0.33227153  0.82940734  0.84284955  1
  In  In71  1  0.47445463  0.16560671  0.33330635  1
  Te  Te72  1  0.08027116  0.06177644  0.08306102  1
  Te  Te73  1  0.09527267  0.07558399  0.41280137  1
  Te  Te74  1  0.06666821  0.05383348  0.75503873  1
  Te  Te75  1  0.09073784  0.40687134  0.08106573  1
  Te  Te76  1  0.12572107  0.36743803  0.40430641  1
  Te  Te77  1  0.07152485  0.42598346  0.77939458  1
  Te  Te78  1  0.05220392  0.72489830  0.08305855  1
  Te  Te79  1  0.08346468  0.75064886  0.41390201  1
  Te  Te80  1  0.09249813  0.73805474  0.76442877  1
  Te  Te81  1  0.42098465  0.07776586  0.09631007  1
  Te  Te82  1  0.37817138  0.07282236  0.40563637  1
  Te  Te83  1  0.43414846  0.07033649  0.76747833  1
  Te  Te84  1  0.43361461  0.40025535  0.08028724  1
  Te  Te85  1  0.43367166  0.40434826  0.40698855  1
  Te  Te86  1  0.39864859  0.43509964  0.75300920  1
  Te  Te87  1  0.42198870  0.76233749  0.07939582  1
  Te  Te88  1  0.41211509  0.77880491  0.39672833  1
  Te  Te89  1  0.42527838  0.76097332  0.74038088  1
  Te  Te90  1  0.77819686  0.06039279  0.04355071  1
  Te  Te91  1  0.74201501  0.09285841  0.41563550  1
  Te  Te92  1  0.77364742  0.06389754  0.75941978  1
  Te  Te93  1  0.76592037  0.43288056  0.05402481  1
  Te  Te94  1  0.75422354  0.42023837  0.40733002  1
  Te  Te95  1  0.75412600  0.42988978  0.75189728  1
  Te  Te96  1  0.75298766  0.77226782  0.07191146  1
  Te  Te97  1  0.74316753  0.75740229  0.40661520  1
  Te  Te98  1  0.76846349  0.77303768  0.73670348  1
  Te  Te99  1  0.08679839  0.22421020  0.26285913  1
  Te  Te100  1  0.08183837  0.23995447  0.58436653  1
  Te  Te101  1  0.09499958  0.22350263  0.92621398  1
  Te  Te102  1  0.08217287  0.56128830  0.25482292  1
  Te  Te103  1  0.06928669  0.57619011  0.59229224  1
  Te  Te104  1  0.06578862  0.61757551  0.87907458  1
  Te  Te105  1  0.08407466  0.90526700  0.24517076  1
  Te  Te106  1  0.09510368  0.92329042  0.57463012  1
  Te  Te107  1  0.07289847  0.91247967  0.90609031  1
  Te  Te108  1  0.38526825  0.24220848  0.23615076  1
  Te  Te109  1  0.38660143  0.21238345  0.56008595  1
  Te  Te110  1  0.41762689  0.24408587  0.92007569  1
  Te  Te111  1  0.39963864  0.59596382  0.23038076  1
  Te  Te112  1  0.41883692  0.59002446  0.57905577  1
  Te  Te113  1  0.40260401  0.57313400  0.91494567  1
  Te  Te114  1  0.42743103  0.90306919  0.27106480  1
  Te  Te115  1  0.43399572  0.91376824  0.58936771  1
  Te  Te116  1  0.42810327  0.91903647  0.91873547  1
  Te  Te117  1  0.74854790  0.25189515  0.24465122  1
  Te  Te118  1  0.73727193  0.23342907  0.57253046  1
  Te  Te119  1  0.73982754  0.24103811  0.92230401  1
  Te  Te120  1  0.74501598  0.60204114  0.24798971  1
  Te  Te121  1  0.74750280  0.58942288  0.57692174  1
  Te  Te122  1  0.76505525  0.60036788  0.90321640  1
  Te  Te123  1  0.71822061  0.89756932  0.21535472  1
  Te  Te124  1  0.73445286  0.93513208  0.60303967  1
  Te  Te125  1  0.75238682  0.89329715  0.86272047  1
  Te  Te126  1  0.23782860  0.21374103  0.08043534  1
  Te  Te127  1  0.19797395  0.23167870  0.40998752  1
  Te  Te128  1  0.25406226  0.26094616  0.73545961  1
  Te  Te129  1  0.21801004  0.58178225  0.08471054  1
  Te  Te130  1  0.23055322  0.57812533  0.41403238  1
  Te  Te131  1  0.23904317  0.59230965  0.76453495  1
  Te  Te132  1  0.24905932  0.91373196  0.08111524  1
  Te  Te133  1  0.25929473  0.96447018  0.42015822  1
  Te  Te134  1  0.24531615  0.91711128  0.75597407  1
  Te  Te135  1  0.61429995  0.25357173  0.07794427  1
  Te  Te136  1  0.57337772  0.23088193  0.42864098  1
  Te  Te137  1  0.56975246  0.25739401  0.73966599  1
  Te  Te138  1  0.56618584  0.60440655  0.09390566  1
  Te  Te139  1  0.59759695  0.59093542  0.40720385  1
  Te  Te140  1  0.58927196  0.57787141  0.77425129  1
  Te  Te141  1  0.62266453  0.93101791  0.08003162  1
  Te  Te142  1  0.57640351  0.93252306  0.41594263  1
  Te  Te143  1  0.61297698  0.93711204  0.80169945  1
  Te  Te144  1  0.90483532  0.23809190  0.08608856  1
  Te  Te145  1  0.92425647  0.25277508  0.41055450  1
  Te  Te146  1  0.91973385  0.25335422  0.74511519  1
  Te  Te147  1  0.91637402  0.59597590  0.05484213  1
  Te  Te148  1  0.92158948  0.58150293  0.42645801  1
  Te  Te149  1  0.93524794  0.59280396  0.79179710  1
  Te  Te150  1  0.87368256  0.91283334  0.06435814  1
  Te  Te151  1  0.88897361  0.91443143  0.40261077  1
  Te  Te152  1  0.89733251  0.87983407  0.82152736  1
  Te  Te153  1  0.27845895  0.06863585  0.28231493  1
  Te  Te154  1  0.23463834  0.06099748  0.58016966  1
  Te  Te155  1  0.23237226  0.07329080  0.90241895  1
  Te  Te156  1  0.25772471  0.41393088  0.25582138  1
  Te  Te157  1  0.24663979  0.41341004  0.57370545  1
  Te  Te158  1  0.24613004  0.42884007  0.92601054  1
  Te  Te159  1  0.22287318  0.74277970  0.24440316  1
  Te  Te160  1  0.26696990  0.77089815  0.56229054  1
  Te  Te161  1  0.23849540  0.74420278  0.92486194  1
  Te  Te162  1  0.58207176  0.09854167  0.24512752  1
  Te  Te163  1  0.60339154  0.06387546  0.60015756  1
  Te  Te164  1  0.59179371  0.06358600  0.91833062  1
  Te  Te165  1  0.58700851  0.42503281  0.24168446  1
  Te  Te166  1  0.59448899  0.42928951  0.56804405  1
  Te  Te167  1  0.60263852  0.41197381  0.91583685  1
  Te  Te168  1  0.62843256  0.78981557  0.27922240  1
  Te  Te169  1  0.58079354  0.74897410  0.59267396  1
  Te  Te170  1  0.60661759  0.75997933  0.89916297  1
  Te  Te171  1  0.89511500  0.04864504  0.23115721  1
  Te  Te172  1  0.93536141  0.05282391  0.60216661  1
  Te  Te173  1  0.87956864  0.09732215  0.92768723  1
  Te  Te174  1  0.93912726  0.40457619  0.25613867  1
  Te  Te175  1  0.91224313  0.42925099  0.58767248  1
  Te  Te176  1  0.91824622  0.42095293  0.92708109  1
  Te  Te177  1  0.90322170  0.76813376  0.25821965  1
  Te  Te178  1  0.90756654  0.78904047  0.59609212  1
  Te  Te179  1  0.95192387  0.79277992  0.93221434  1
