# generated using pymatgen
data_In2Te3
_symmetry_space_group_name_H-M   'P 1'
_cell_length_a   18.86744027
_cell_length_b   18.85865766
_cell_length_c   18.84491350
_cell_angle_alpha   89.82810339
_cell_angle_beta   90.08082217
_cell_angle_gamma   90.19539331
_symmetry_Int_Tables_number   1
_chemical_formula_structural   In2Te3
_chemical_formula_sum   'In72 Te108'
_cell_volume   6705.21955477
_cell_formula_units_Z   36
loop_
 _symmetry_equiv_pos_site_id
 _symmetry_equiv_pos_as_xyz
  1  'x, y, z'
loop_
 _atom_site_type_symbol
 _atom_site_label
 _atom_site_symmetry_multiplicity
 _atom_site_fract_x
 _atom_site_fract_y
 _atom_site_fract_z
 _atom_site_occupancy
  In  In0  1  -0.00488802  0.82175542  0.49413583  1
  In  In1  1  0.34681039  0.32327085  -0.01199231  1
  In  In2  1  0.82207024  0.01461857  0.51189201  1
  In  In3  1  0.85701299  0.50626120  0.32564122  1
  In  In4  1  0.51429341  0.02031856  0.84626836  1
  In  In5  1  0.15574878  0.62227998  0.52640364  1
  In  In6  1  0.84494825  0.50024756  0.67421903  1
  In  In7  1  0.16308158  0.83427945  0.01688450  1
  In  In8  1  0.32117164  0.63442137  0.64586533  1
  In  In9  1  0.65825419  0.04055320  0.64883295  1
  In  In10  1  0.49103411  0.50465724  0.34526508  1
  In  In11  1  0.00501851  0.19722889  0.81646225  1
  In  In12  1  0.48614474  0.34504306  0.14705362  1
  In  In13  1  0.15215837  0.34288975  0.15037905  1
  In  In14  1  0.30883448  0.66160950  0.32161760  1
  In  In15  1  0.36473395  -0.00513565  0.29528252  1
  In  In16  1  0.01232277  -0.00113570  -0.01030738  1
  In  In17  1  0.65296794  0.47855840  0.51590461  1
  In  In18  1  0.50194411  0.33912053  0.51430457  1
  In  In19  1  0.64497277  0.68049169  0.67272069  1
  In  In20  1  0.69040732  0.67517846  0.00448885  1
  In  In21  1  0.30853743  0.33002231  0.32825222  1
  In  In22  1  0.65351656  0.84068268  0.15378876  1
  In  In23  1  0.34737278  0.01345359  0.67710894  1
  In  In24  1  -0.00016588  0.34313226  0.34821168  1
  In  In25  1  0.50290887  0.16513142  0.33957146  1
  In  In26  1  0.83280384  0.83352382  -0.02182616  1
  In  In27  1  0.14358266  0.65243615  0.82757190  1
  In  In28  1  0.70304632  0.66689668  0.34195293  1
  In  In29  1  0.31945604  0.81990148  0.81966014  1
  In  In30  1  0.85694935  0.83553216  0.65524896  1
  In  In31  1  0.83278150  0.00280250  0.17170262  1
  In  In32  1  0.81381327  0.01099771  0.81635974  1
  In  In33  1  0.84827521  0.64409753  0.86912984  1
  In  In34  1  0.82577161  0.16700920  0.69680706  1
  In  In35  1  0.35038649  0.47202638  0.82936067  1
  In  In36  1  0.17533997  0.15792653  0.35470093  1
  In  In37  1  0.48581946  0.49380525  -0.00288060  1
  In  In38  1  0.50420309  0.84141508  -0.00003321  1
  In  In39  1  0.46879803  0.65832210  0.51671642  1
  In  In40  1  0.15563869  0.33325087  0.79364809  1
  In  In41  1  0.17588314  0.81533877  0.68039775  1
  In  In42  1  0.16712338  -0.02175831  0.16500286  1
  In  In43  1  -0.01682471  0.17461161  0.16015182  1
  In  In44  1  0.50683546  0.63251846  0.85300132  1
  In  In45  1  0.36287681  0.14199484  0.12866407  1
  In  In46  1  0.84965826  0.82657123  0.31057624  1
  In  In47  1  0.03989567  0.00917937  0.35045847  1
  In  In48  1  0.86572378  0.62495153  0.13678372  1
  In  In49  1  0.16980267  0.51289869  0.01360061  1
  In  In50  1  -0.00581611  0.78262728  0.15307673  1
  In  In51  1  0.51507385  0.89911527  0.34056831  1
  In  In52  1  0.49223361  0.82310893  0.66587400  1
  In  In53  1  0.17946139  0.00115767  0.50612442  1
  In  In54  1  0.81790261  0.32553218  0.52399769  1
  In  In55  1  0.00404675  0.00100670  0.69866752  1
  In  In56  1  0.16368576  0.18183056  -0.03939515  1
  In  In57  1  0.49091356  0.68492809  0.16913194  1
  In  In58  1  0.69434006  0.84770035  0.82105270  1
  In  In59  1  0.68894275  0.35220577  -0.01041626  1
  In  In60  1  0.66251406  0.16591315  0.18518140  1
  In  In61  1  0.80992089  0.17414370  0.34207862  1
  In  In62  1  0.16954000  0.79996317  0.32161674  1
  In  In63  1  0.67870141  0.31073781  0.33036373  1
  In  In64  1  0.34078213  0.15998125  0.83647355  1
  In  In65  1  0.66563397  0.46859111  0.13653947  1
  In  In66  1  0.83618386  0.18920198  -0.00675928  1
  In  In67  1  0.34926734  0.84441225  0.47710565  1
  In  In68  1  0.65658283  0.46697918  0.78936374  1
  In  In69  1  0.83534628  0.65412372  0.48071104  1
  In  In70  1  0.33543088  0.18455303  0.51528495  1
  In  In71  1  0.13953197  0.52284763  0.33114917  1
  Te  Te72  1  0.08795100  0.09239683  0.08564488  1
  Te  Te73  1  0.07596373  0.10791375  0.46038189  1
  Te  Te74  1  0.09631088  0.09887018  0.75698868  1
  Te  Te75  1  0.06186016  0.44904013  0.09921880  1
  Te  Te76  1  0.09892435  0.41759940  0.42991925  1
  Te  Te77  1  0.04811599  0.41629391  0.72664803  1
  Te  Te78  1  0.09742313  0.70684982  0.07344689  1
  Te  Te79  1  0.09133989  0.72605905  0.42860091  1
  Te  Te80  1  0.06464595  0.74798774  0.74609908  1
  Te  Te81  1  0.46511992  0.07006388  0.05444546  1
  Te  Te82  1  0.39477797  0.08832115  0.41614269  1
  Te  Te83  1  0.45129726  0.10608797  0.73667195  1
  Te  Te84  1  0.37932026  0.43537910  0.08941771  1
  Te  Te85  1  0.40093450  0.40960700  0.42256268  1
  Te  Te86  1  0.42187394  0.36343887  0.75837710  1
  Te  Te87  1  0.41736432  0.73393682  0.05154883  1
  Te  Te88  1  0.42225899  0.74111568  0.39561677  1
  Te  Te89  1  0.41359040  0.72206337  0.74871998  1
  Te  Te90  1  0.75257812  0.09472793  0.08225843  1
  Te  Te91  1  0.73049024  0.06701361  0.40620774  1
  Te  Te92  1  0.70379142  0.10943930  0.77523435  1
  Te  Te93  1  0.79422934  0.41859556  0.07866922  1
  Te  Te94  1  0.74821410  0.42406644  0.40771749  1
  Te  Te95  1  0.77793769  0.38810190  0.74861286  1
  Te  Te96  1  0.77343544  0.75422783  0.10636989  1
  Te  Te97  1  0.76179855  0.77805788  0.42848978  1
  Te  Te98  1  0.76485274  0.73170857  0.75430024  1
  Te  Te99  1  0.08901358  0.24222277  0.25817179  1
  Te  Te100  1  0.11277246  0.30555212  0.64519459  1
  Te  Te101  1  0.06485492  0.28794410  0.92309911  1
  Te  Te102  1  0.06190375  0.61442094  0.24422580  1
  Te  Te103  1  0.08566479  0.55084280  0.63479208  1
  Te  Te104  1  0.07221394  0.54310079  0.90277128  1
  Te  Te105  1  0.06407416  0.89501003  0.24878003  1
  Te  Te106  1  0.07942786  0.91471465  0.58480852  1
  Te  Te107  1  0.09247238  0.90726431  0.90993742  1
  Te  Te108  1  0.40968813  0.25119762  0.24418889  1
  Te  Te109  1  0.40154440  0.28027687  0.60972547  1
  Te  Te110  1  0.44424981  0.23408069  0.92057868  1
  Te  Te111  1  0.40920287  0.57567885  0.23956831  1
  Te  Te112  1  0.41934127  0.53939648  0.58829677  1
  Te  Te113  1  0.38463323  0.58574073  0.92958341  1
  Te  Te114  1  0.42615761  0.88097079  0.22596600  1
  Te  Te115  1  0.42622198  0.92880765  0.57696744  1
  Te  Te116  1  0.41864501  0.91212584  0.89511068  1
  Te  Te117  1  0.77878647  0.26545391  0.22669698  1
  Te  Te118  1  0.73825645  0.21897769  0.58766589  1
  Te  Te119  1  0.75647099  0.26308250  0.89285817  1
  Te  Te120  1  0.74386669  0.57179574  0.23029535  1
  Te  Te121  1  0.73761183  0.58514450  0.58637626  1
  Te  Te122  1  0.71962101  0.56252645  0.90408753  1
  Te  Te123  1  0.73849634  0.91879754  0.25625868  1
  Te  Te124  1  0.74357030  0.91866083  0.60179036  1
  Te  Te125  1  0.73612082  0.94092827  0.93321064  1
  Te  Te126  1  0.25031294  0.24468703  0.08255817  1
  Te  Te127  1  0.22944054  0.26954754  0.44405572  1
  Te  Te128  1  0.27381299  0.25749142  0.74265099  1
  Te  Te129  1  0.20886894  0.61233406  0.11990656  1
  Te  Te130  1  0.25742256  0.56748856  0.42905813  1
  Te  Te131  1  0.25006600  0.56317562  0.75838638  1
  Te  Te132  1  0.26601677  0.92719677  0.07045329  1
  Te  Te133  1  0.24555022  0.92068531  0.39384006  1
  Te  Te134  1  0.24111087  0.93233513  0.75306979  1
  Te  Te135  1  0.59998868  0.26739835  0.08800026  1
  Te  Te136  1  0.59231206  0.24272600  0.43664190  1
  Te  Te137  1  0.57381233  0.32653350  0.76219878  1
  Te  Te138  1  0.58111687  0.58859760  0.07872582  1
  Te  Te139  1  0.59120667  0.58972740  0.42304367  1
  Te  Te140  1  0.55600224  0.56679132  0.72571125  1
  Te  Te141  1  0.58178393  0.94438847  0.07493257  1
  Te  Te142  1  0.58281351  0.97405983  0.44544753  1
  Te  Te143  1  0.58417423  0.91871705  0.74341753  1
  Te  Te144  1  0.93904274  0.27270642  0.06007830  1
  Te  Te145  1  0.90995847  0.24665372  0.42939413  1
  Te  Te146  1  0.91285519  0.28283399  0.73545815  1
  Te  Te147  1  0.94738163  0.56856406  0.02080472  1
  Te  Te148  1  0.94054842  0.55871293  0.43797608  1
  Te  Te149  1  0.93211241  0.57476604  0.76871160  1
  Te  Te150  1  0.92420714  0.91561240  0.08668724  1
  Te  Te151  1  0.91838243  0.92898649  0.41837389  1
  Te  Te152  1  0.91616893  0.90331885  0.77707244  1
  Te  Te153  1  0.25161282  0.08709429  0.24239224  1
  Te  Te154  1  0.24340294  0.09836442  0.60354408  1
  Te  Te155  1  0.26091167  0.07759037  0.93126193  1
  Te  Te156  1  0.23342788  0.43097261  0.24512597  1
  Te  Te157  1  0.18278707  0.44181527  0.59987560  1
  Te  Te158  1  0.23993936  0.40400020  0.91805983  1
  Te  Te159  1  0.25632754  0.74968963  0.21226568  1
  Te  Te160  1  0.25869714  0.75713828  0.56630226  1
  Te  Te161  1  0.23556298  0.73883961  0.91446180  1
  Te  Te162  1  0.56714073  0.07026698  0.24671861  1
  Te  Te163  1  0.56223237  0.08703729  0.54890759  1
  Te  Te164  1  0.56190198  0.12332502  0.94250205  1
  Te  Te165  1  0.57616918  0.40743763  0.26197192  1
  Te  Te166  1  0.60917185  0.37547055  0.61704147  1
  Te  Te167  1  0.56782906  0.40676384  0.90755031  1
  Te  Te168  1  0.59657947  0.74652508  0.26178353  1
  Te  Te169  1  0.57996243  0.76035921  0.55891346  1
  Te  Te170  1  0.59707076  0.74941017  0.89963952  1
  Te  Te171  1  0.92454480  0.08120736  0.26790514  1
  Te  Te172  1  0.91849046  0.08670259  0.60539262  1
  Te  Te173  1  0.91855441  0.08628344  0.90473331  1
  Te  Te174  1  0.93781371  0.42025574  0.23810502  1
  Te  Te175  1  0.91174080  0.43652388  0.55538918  1
  Te  Te176  1  0.85725320  0.47678459  0.94418736  1
  Te  Te177  1  0.93410841  0.70158549  0.27090092  1
  Te  Te178  1  0.92860275  0.72171611  0.58862854  1
  Te  Te179  1  0.93800573  0.74128037  0.93766545  1
