# generated using pymatgen
data_In2Te3
_symmetry_space_group_name_H-M   'P 1'
_cell_length_a   18.96983373
_cell_length_b   19.00402631
_cell_length_c   18.98688616
_cell_angle_alpha   90.04531701
_cell_angle_beta   89.98351828
_cell_angle_gamma   90.01284222
_symmetry_Int_Tables_number   1
_chemical_formula_structural   In2Te3
_chemical_formula_sum   'In72 Te108'
_cell_volume   6844.83099001
_cell_formula_units_Z   36
loop_
 _symmetry_equiv_pos_site_id
 _symmetry_equiv_pos_as_xyz
  1  'x, y, z'
loop_
 _atom_site_type_symbol
 _atom_site_label
 _atom_site_symmetry_multiplicity
 _atom_site_fract_x
 _atom_site_fract_y
 _atom_site_fract_z
 _atom_site_occupancy
  In  In0  1  0.19049387  0.64067541  0.83533687  1
  In  In1  1  0.49880301  0.49977020  0.67274435  1
  In  In2  1  0.28992020  -0.01231629  0.67377709  1
  In  In3  1  -0.03602976  0.82586778  0.16189473  1
  In  In4  1  -0.00294167  0.64934242  -0.01801702  1
  In  In5  1  -0.01746872  0.17910856  0.52048192  1
  In  In6  1  0.81950608  -0.02847280  0.49902969  1
  In  In7  1  0.34929164  0.84692224  0.15623168  1
  In  In8  1  0.50080420  0.66346172  0.83124333  1
  In  In9  1  -0.00282274  0.50143877  0.17757986  1
  In  In10  1  0.48528976  -0.00618237  0.47656562  1
  In  In11  1  0.51509127  0.65507823  0.15772178  1
  In  In12  1  0.01088029  0.31306054  -0.00714298  1
  In  In13  1  0.29886617  0.01481522  -0.02626257  1
  In  In14  1  0.47528498  0.20077796  0.00531575  1
  In  In15  1  0.15123388  0.17659862  0.68807738  1
  In  In16  1  0.18172888  0.64656122  0.14215289  1
  In  In17  1  0.70024329  0.81957422  0.83117241  1
  In  In18  1  0.15361024  0.81397529  0.33899019  1
  In  In19  1  0.65601401  -0.02483702  0.64441998  1
  In  In20  1  0.84380769  0.01112250  0.83097178  1
  In  In21  1  0.49513613  0.34760100  0.48923024  1
  In  In22  1  0.00970682  0.15238922  0.14358585  1
  In  In23  1  0.34141458  0.52748395  0.51615353  1
  In  In24  1  0.31678704  0.84276363  0.51418966  1
  In  In25  1  0.00961787  0.35704865  0.68278810  1
  In  In26  1  0.14998693  0.80315455  0.68472881  1
  In  In27  1  0.16560790  0.35131114  0.83698959  1
  In  In28  1  0.46805261  0.14591394  0.65797704  1
  In  In29  1  0.84617034  0.52630354  0.33028977  1
  In  In30  1  0.62864295  0.18043864  0.15871802  1
  In  In31  1  -0.02990252  0.63439421  0.68557073  1
  In  In32  1  0.67614744  0.52969165  0.49619641  1
  In  In33  1  0.50952630  0.51888773  0.32972262  1
  In  In34  1  0.17357340  0.48966231  0.34428205  1
  In  In35  1  0.67021617  0.19656740  0.81044029  1
  In  In36  1  0.48942460  0.50039962  -0.01386673  1
  In  In37  1  0.15171781  0.00052720  0.51777580  1
  In  In38  1  0.82671705  0.83491261  0.32595582  1
  In  In39  1  0.69396196  0.51646669  0.15496672  1
  In  In40  1  0.85871160  0.34253064  0.81824185  1
  In  In41  1  0.71386802  0.79292994  0.15558938  1
  In  In42  1  0.17416806  0.15846447  0.33970900  1
  In  In43  1  0.49788102  0.00997104  0.17666600  1
  In  In44  1  0.36888788  0.67851192  0.32776879  1
  In  In45  1  0.32352764  0.16752102  0.16356764  1
  In  In46  1  0.82694720  0.16616670  -0.00904664  1
  In  In47  1  0.48157765  0.35147542  0.83083431  1
  In  In48  1  0.50009945  0.81219313  0.66726916  1
  In  In49  1  0.85205894  0.17256283  0.32537646  1
  In  In50  1  -0.00524063  -0.00579746  0.31157495  1
  In  In51  1  0.62855048  -0.00026445  -0.00621344  1
  In  In52  1  0.50128235  0.37486656  0.13996639  1
  In  In53  1  0.35111974  0.35373283  0.66372146  1
  In  In54  1  0.49202727  0.83720435  -0.01823919  1
  In  In55  1  0.68020391  0.35557063  0.69818419  1
  In  In56  1  0.00362216  -0.01777115  0.00704941  1
  In  In57  1  0.51312138  0.83754816  0.33054839  1
  In  In58  1  0.00646084  -0.00343211  0.67586797  1
  In  In59  1  0.82700388  0.50816449  -0.01446149  1
  In  In60  1  0.84972393  0.18238466  0.70059379  1
  In  In61  1  0.69786743  0.33742351  0.33854495  1
  In  In62  1  0.84932421  0.65878721  0.50937417  1
  In  In63  1  0.65600697  0.80863270  0.51807039  1
  In  In64  1  0.49141001  0.16208851  0.34013140  1
  In  In65  1  -0.00180715  0.35404992  0.34457871  1
  In  In66  1  0.15218782  0.82887391  -0.02707158  1
  In  In67  1  0.70110868  0.17409045  0.51362312  1
  In  In68  1  0.16810290  0.31399784  0.16520448  1
  In  In69  1  0.48527580  0.01183765  0.83113756  1
  In  In70  1  0.13775542  0.65575326  0.51161236  1
  In  In71  1  0.32578769  0.30859114  0.32046290  1
  Te  Te72  1  0.10640671  0.06999241  0.07044701  1
  Te  Te73  1  0.05720986  0.08547689  0.42552395  1
  Te  Te74  1  0.10489084  0.05958945  0.76984507  1
  Te  Te75  1  0.07904775  0.41021133  0.09001386  1
  Te  Te76  1  0.06762610  0.44462834  0.43793258  1
  Te  Te77  1  0.11508041  0.44795506  0.73516905  1
  Te  Te78  1  0.07618065  0.73907862  0.08086742  1
  Te  Te79  1  0.05957446  0.73937316  0.42114813  1
  Te  Te80  1  0.07154414  0.71288267  0.77598178  1
  Te  Te81  1  0.41672691  0.06942093  0.06340348  1
  Te  Te82  1  0.39188513  0.08751198  0.41585437  1
  Te  Te83  1  0.37552855  0.08711630  0.76070026  1
  Te  Te84  1  0.39224047  0.40817694  0.05067966  1
  Te  Te85  1  0.40626667  0.42487281  0.39630426  1
  Te  Te86  1  0.38196623  0.46182458  0.77407544  1
  Te  Te87  1  0.41874261  0.74050380  0.07524260  1
  Te  Te88  1  0.42566853  0.76945760  0.43570489  1
  Te  Te89  1  0.40085906  0.73047159  0.74059326  1
  Te  Te90  1  0.71886486  0.09342143  0.07177190  1
  Te  Te91  1  0.76278914  0.08139454  0.41107391  1
  Te  Te92  1  0.73177148  0.07728037  0.73431041  1
  Te  Te93  1  0.75595278  0.41394179  0.07324069  1
  Te  Te94  1  0.76947495  0.43170192  0.42962857  1
  Te  Te95  1  0.79056462  0.45610395  0.73476204  1
  Te  Te96  1  0.79312284  0.73152408  0.05140038  1
  Te  Te97  1  0.75327153  0.74379853  0.42435542  1
  Te  Te98  1  0.79832030  0.72465773  0.77717184  1
  Te  Te99  1  0.06541974  0.24266199  0.25901614  1
  Te  Te100  1  0.08756283  0.26451030  0.58195018  1
  Te  Te101  1  0.11731327  0.23884385  0.92219523  1
  Te  Te102  1  0.09667125  0.58572585  0.25326891  1
  Te  Te103  1  0.09269360  0.57101580  0.62400264  1
  Te  Te104  1  0.11229423  0.55745568  0.94563977  1
  Te  Te105  1  0.08393276  0.90144903  0.23670094  1
  Te  Te106  1  0.07267267  0.89399172  0.58560404  1
  Te  Te107  1  0.03832697  0.88660052  0.89845841  1
  Te  Te108  1  0.44178725  0.25565392  0.23047951  1
  Te  Te109  1  0.40781712  0.24873907  0.56279606  1
  Te  Te110  1  0.39467744  0.25493628  0.89724346  1
  Te  Te111  1  0.40997467  0.57108991  0.22698879  1
  Te  Te112  1  0.45965490  0.59559188  0.56725724  1
  Te  Te113  1  0.40944039  0.61431302  0.93694860  1
  Te  Te114  1  0.40896121  0.92909432  0.26888123  1
  Te  Te115  1  0.42149984  0.92966608  0.59925805  1
  Te  Te116  1  0.39198156  0.91392190  0.89976101  1
  Te  Te117  1  0.74872147  0.23993868  0.23661158  1
  Te  Te118  1  0.77218860  0.27076998  0.60503471  1
  Te  Te119  1  0.75664444  0.27297998  0.90769687  1
  Te  Te120  1  0.74203387  0.60252296  0.26155642  1
  Te  Te121  1  0.73941540  0.61309484  0.60057999  1
  Te  Te122  1  0.78338875  0.61107232  0.88293572  1
  Te  Te123  1  0.75079295  0.91373049  0.22779264  1
  Te  Te124  1  0.76590940  0.88100933  0.60618242  1
  Te  Te125  1  0.74499490  0.93495170  0.91925198  1
  Te  Te126  1  0.24953925  0.24408516  0.06495853  1
  Te  Te127  1  0.22768095  0.26740887  0.41950156  1
  Te  Te128  1  0.25777766  0.26513827  0.74730112  1
  Te  Te129  1  0.24844560  0.55923141  0.04459007  1
  Te  Te130  1  0.26030091  0.60477404  0.40716146  1
  Te  Te131  1  0.30421377  0.59293971  0.75039539  1
  Te  Te132  1  0.24396709  0.91039994  0.07048722  1
  Te  Te133  1  0.23339472  0.92186789  0.41698553  1
  Te  Te134  1  0.23168020  0.89344905  0.76677735  1
  Te  Te135  1  0.58994674  0.28433628  0.05519582  1
  Te  Te136  1  0.59881061  0.24901220  0.41961303  1
  Te  Te137  1  0.56030828  0.25328073  0.71977017  1
  Te  Te138  1  0.60207705  0.58497361  0.05824211  1
  Te  Te139  1  0.57147883  0.60827117  0.42724855  1
  Te  Te140  1  0.58914110  0.55702095  0.77454868  1
  Te  Te141  1  0.57141309  0.90303711  0.09596796  1
  Te  Te142  1  0.60410427  0.91707394  0.42297224  1
  Te  Te143  1  0.58119644  0.91451767  0.76348457  1
  Te  Te144  1  0.90924495  0.25055474  0.08668894  1
  Te  Te145  1  0.90248459  0.26984109  0.42995594  1
  Te  Te146  1  0.96430654  0.24158793  0.77415191  1
  Te  Te147  1  0.90906484  0.58819118  0.09113496  1
  Te  Te148  1  0.93757225  0.55865917  0.44155151  1
  Te  Te149  1  0.90541717  0.55264847  0.79285358  1
  Te  Te150  1  0.89117799  0.92305745  0.08138087  1
  Te  Te151  1  0.92872112  0.90894164  0.41768003  1
  Te  Te152  1  0.92957390  0.90913367  0.76825868  1
  Te  Te153  1  0.25050188  0.07509490  0.24824722  1
  Te  Te154  1  0.23973112  0.10042464  0.58592702  1
  Te  Te155  1  0.17955966  0.06854293  0.90839496  1
  Te  Te156  1  0.25436827  0.41464494  0.23893909  1
  Te  Te157  1  0.26047649  0.42159520  0.57156465  1
  Te  Te158  1  0.22553410  0.45030706  0.93355635  1
  Te  Te159  1  0.26172652  0.74768231  0.23873760  1
  Te  Te160  1  0.24706715  0.73391222  0.58824640  1
  Te  Te161  1  0.25364358  0.72864389  0.93689547  1
  Te  Te162  1  0.59562388  0.07846622  0.26825214  1
  Te  Te163  1  0.58509067  0.08820036  0.56735529  1
  Te  Te164  1  0.57501899  0.11430534  0.90132841  1
  Te  Te165  1  0.59726443  0.41643958  0.25656193  1
  Te  Te166  1  0.59873026  0.41349882  0.57758247  1
  Te  Te167  1  0.58660656  0.43163563  0.89472848  1
  Te  Te168  1  0.59767809  0.74398661  0.24813318  1
  Te  Te169  1  0.61254751  0.72318826  0.63116980  1
  Te  Te170  1  0.59813747  0.75004507  0.91807795  1
  Te  Te171  1  0.90423791  0.07442862  0.22165890  1
  Te  Te172  1  0.90013087  0.07251609  0.59313848  1
  Te  Te173  1  0.93473649  0.09340586  0.91743105  1
  Te  Te174  1  0.89858951  0.40929112  0.24578463  1
  Te  Te175  1  0.88976597  0.41458699  0.62406411  1
  Te  Te176  1  0.93985076  0.42352186  0.91757690  1
  Te  Te177  1  0.91658460  0.73590284  0.26552335  1
  Te  Te178  1  0.94251204  0.74138668  0.58864938  1
  Te  Te179  1  0.88349518  0.73229265  0.92410642  1
