# generated using pymatgen
data_In2Te3
_symmetry_space_group_name_H-M   'P 1'
_cell_length_a   18.98478679
_cell_length_b   18.96714440
_cell_length_c   18.98904416
_cell_angle_alpha   90.26186247
_cell_angle_beta   90.03872863
_cell_angle_gamma   89.86285374
_symmetry_Int_Tables_number   1
_chemical_formula_structural   In2Te3
_chemical_formula_sum   'In72 Te108'
_cell_volume   6837.61908614
_cell_formula_units_Z   36
loop_
 _symmetry_equiv_pos_site_id
 _symmetry_equiv_pos_as_xyz
  1  'x, y, z'
loop_
 _atom_site_type_symbol
 _atom_site_label
 _atom_site_symmetry_multiplicity
 _atom_site_fract_x
 _atom_site_fract_y
 _atom_site_fract_z
 _atom_site_occupancy
  In  In0  1  0.50418777  0.50681679  0.32145150  1
  In  In1  1  0.18920057  0.18654443  0.67585511  1
  In  In2  1  0.65913487  0.64467212  0.65727089  1
  In  In3  1  0.30056541  0.17965822  0.85261559  1
  In  In4  1  0.01317629  0.32060138  0.01194096  1
  In  In5  1  0.16061286  0.49394656  0.32946880  1
  In  In6  1  0.44752897  0.49316789  0.71122402  1
  In  In7  1  0.46013600  0.85118543  -0.01906911  1
  In  In8  1  0.01331599  0.52091170  0.49429140  1
  In  In9  1  0.83892426  0.00617777  0.82835528  1
  In  In10  1  0.67221022  -0.01010256  0.32810556  1
  In  In11  1  0.86883581  0.83498218  0.66218184  1
  In  In12  1  0.67762984  0.14045333  0.51194613  1
  In  In13  1  0.33590949  0.82853467  0.51825611  1
  In  In14  1  0.64982674  0.50616182  0.85870303  1
  In  In15  1  0.47988958  0.32219257  0.16255227  1
  In  In16  1  0.33755020  0.00494474  0.32644630  1
  In  In17  1  0.83237679  0.33786418  0.84902224  1
  In  In18  1  0.20060797  0.82571631  -0.02357365  1
  In  In19  1  0.64202801  0.66984351  0.00519805  1
  In  In20  1  0.14756121  0.82548051  0.66156572  1
  In  In21  1  0.84064811  0.49452181  -0.00378962  1
  In  In22  1  0.69722713  0.81868096  0.47174266  1
  In  In23  1  0.01231850  -0.00808593  0.66194878  1
  In  In24  1  0.19657321  0.64038070  0.14371163  1
  In  In25  1  -0.00913227  -0.00722050  0.32676652  1
  In  In26  1  0.64062212  -0.00864497  0.64749237  1
  In  In27  1  0.14901854  0.14719409  0.29934629  1
  In  In28  1  0.65689439  -0.00405030  -0.01328841  1
  In  In29  1  0.34945211  0.51510926  0.49325425  1
  In  In30  1  0.51401133  0.66614140  0.16331227  1
  In  In31  1  0.86243360  0.36669946  0.16420033  1
  In  In32  1  0.84682185  0.34632462  0.46491147  1
  In  In33  1  0.66834140  0.32120931  0.67627513  1
  In  In34  1  0.17065566  0.36382659  0.51074997  1
  In  In35  1  0.66063859  0.83871882  0.80947594  1
  In  In36  1  0.83030234  0.49847696  0.64258813  1
  In  In37  1  0.84784829  0.00321984  0.48514044  1
  In  In38  1  0.33144939  0.83411563  0.16799479  1
  In  In39  1  0.67116220  0.33946714  0.01208598  1
  In  In40  1  0.30669661  0.32350535  0.31788502  1
  In  In41  1  0.19144720  0.01725500  0.85637009  1
  In  In42  1  0.13878486  0.14884442  0.03274399  1
  In  In43  1  0.44922322  0.65623168  0.86444698  1
  In  In44  1  0.03729072  0.63129509  -0.02177647  1
  In  In45  1  0.86270809  0.68358022  0.83448828  1
  In  In46  1  0.33072642  0.16162827  0.48637457  1
  In  In47  1  0.34524187  0.67367230  0.34806789  1
  In  In48  1  0.49644602  0.34712938  0.51796396  1
  In  In49  1  0.82201436  0.18092109  0.69483990  1
  In  In50  1  0.84078489  0.81122281  0.01711867  1
  In  In51  1  0.82953146  -0.01255288  0.16068785  1
  In  In52  1  -0.01171422  0.17563164  0.82767517  1
  In  In53  1  0.15452903  0.33909331  0.16578411  1
  In  In54  1  0.30393663  0.34279868  0.00077523  1
  In  In55  1  0.01573321  0.67219625  0.32680488  1
  In  In56  1  0.83381988  0.62377958  0.19673795  1
  In  In57  1  0.32114665  0.01360411  0.68745750  1
  In  In58  1  0.68591384  0.33238543  0.33956821  1
  In  In59  1  0.01671338  0.83976586  0.15807034  1
  In  In60  1  0.14647818  0.36021193  0.81842961  1
  In  In61  1  0.00777286  0.17646357  0.50504966  1
  In  In62  1  0.52257067  0.15619959  0.32716278  1
  In  In63  1  0.32169694  0.64382651  0.68928965  1
  In  In64  1  0.66614827  0.83088098  0.19526219  1
  In  In65  1  0.47451569  -0.01889309  0.12895901  1
  In  In66  1  0.68271206  0.17647480  0.16699749  1
  In  In67  1  0.67523795  0.48642315  0.47312132  1
  In  In68  1  0.16160179  0.83653849  0.35764173  1
  In  In69  1  0.50120770  0.83223330  0.66833683  1
  In  In70  1  0.00641641  0.66041512  0.67039657  1
  In  In71  1  0.62572501  0.17013179  0.85036515  1
  Te  Te72  1  0.04735284  0.11402102  0.14240691  1
  Te  Te73  1  0.08230204  0.07688646  0.41638888  1
  Te  Te74  1  0.09265741  0.08783614  0.74945867  1
  Te  Te75  1  0.09203120  0.43460064  0.06870783  1
  Te  Te76  1  0.06758584  0.40219922  0.40570653  1
  Te  Te77  1  0.10129672  0.46875959  0.72732880  1
  Te  Te78  1  0.09963081  0.73942037  0.07527504  1
  Te  Te79  1  0.09414880  0.73444441  0.43473055  1
  Te  Te80  1  0.07581299  0.74969259  0.76467831  1
  Te  Te81  1  0.39545016  0.08713652  0.07189206  1
  Te  Te82  1  0.43777377  0.07380484  0.41978908  1
  Te  Te83  1  0.39296562  0.12072494  0.75544022  1
  Te  Te84  1  0.39521603  0.41725277  0.09136256  1
  Te  Te85  1  0.40924876  0.40231894  0.39915565  1
  Te  Te86  1  0.37922374  0.39990159  0.80023908  1
  Te  Te87  1  0.41382201  0.74556491  0.07656620  1
  Te  Te88  1  0.42973075  0.75966739  0.42886174  1
  Te  Te89  1  0.40640876  0.75418834  0.75497842  1
  Te  Te90  1  0.75157774  0.07968400  0.07003626  1
  Te  Te91  1  0.76124351  0.09319406  0.39584995  1
  Te  Te92  1  0.72627955  0.07983738  0.75731606  1
  Te  Te93  1  0.74470034  0.44024119  0.09912372  1
  Te  Te94  1  0.78198850  0.44650634  0.37108561  1
  Te  Te95  1  0.74756235  0.43060883  0.76094063  1
  Te  Te96  1  0.74566847  0.72925955  0.10143104  1
  Te  Te97  1  0.75813135  0.72691749  0.37316159  1
  Te  Te98  1  0.75370412  0.74031518  0.73763570  1
  Te  Te99  1  0.05769966  0.25689313  0.24538452  1
  Te  Te100  1  0.08891190  0.26727244  0.59619407  1
  Te  Te101  1  0.10284860  0.23538091  0.90985824  1
  Te  Te102  1  0.08700032  0.57871423  0.22934418  1
  Te  Te103  1  0.10476306  0.56658084  0.60342337  1
  Te  Te104  1  0.09529999  0.57821855  0.84970096  1
  Te  Te105  1  0.10328722  0.92430909  0.24837204  1
  Te  Te106  1  0.07549378  0.90660854  0.56234825  1
  Te  Te107  1  0.10461393  0.93618813  0.94009061  1
  Te  Te108  1  0.40858235  0.22720692  0.25649831  1
  Te  Te109  1  0.39783760  0.25767571  0.57674194  1
  Te  Te110  1  0.40141559  0.27146778  0.91329967  1
  Te  Te111  1  0.40623786  0.58667291  0.23962356  1
  Te  Te112  1  0.43097746  0.59209904  0.59489888  1
  Te  Te113  1  0.38260210  0.54114740  0.92505961  1
  Te  Te114  1  0.43229119  0.90873265  0.25475681  1
  Te  Te115  1  0.41472870  0.93220165  0.59488887  1
  Te  Te116  1  0.36545470  0.91250912  0.88885236  1
  Te  Te117  1  0.77904588  0.25983703  0.24542347  1
  Te  Te118  1  0.76157011  0.26008183  0.57235808  1
  Te  Te119  1  0.74368218  0.24168039  0.91917968  1
  Te  Te120  1  0.70685268  0.62391943  0.27161686  1
  Te  Te121  1  0.75615502  0.59291950  0.55295610  1
  Te  Te122  1  0.75824613  0.60512279  0.91727104  1
  Te  Te123  1  0.77949384  0.89829506  0.27054249  1
  Te  Te124  1  0.76652552  0.92697127  0.59377672  1
  Te  Te125  1  0.76059069  0.89285771  0.91209645  1
  Te  Te126  1  0.24275070  0.23760511  0.09516141  1
  Te  Te127  1  0.22177717  0.24455571  0.41436818  1
  Te  Te128  1  0.26538124  0.29960552  0.74510879  1
  Te  Te129  1  0.27626321  0.60290574  0.02186179  1
  Te  Te130  1  0.23960396  0.58825443  0.41745303  1
  Te  Te131  1  0.24423358  0.58470261  0.80268700  1
  Te  Te132  1  0.24414177  0.91720371  0.08384468  1
  Te  Te133  1  0.25894602  0.92678191  0.42919124  1
  Te  Te134  1  0.23627382  0.90925923  0.75602091  1
  Te  Te135  1  0.57683835  0.23863774  0.07962907  1
  Te  Te136  1  0.58936298  0.25299264  0.42634125  1
  Te  Te137  1  0.56376634  0.26732005  0.76057563  1
  Te  Te138  1  0.57811478  0.56306373  0.07956197  1
  Te  Te139  1  0.56352358  0.57404896  0.43631932  1
  Te  Te140  1  0.56482181  0.58903196  0.76370130  1
  Te  Te141  1  0.59144493  0.88954660  0.07400735  1
  Te  Te142  1  0.60111446  0.92363608  0.43623096  1
  Te  Te143  1  0.55775790  0.93909915  0.76524886  1
  Te  Te144  1  0.89270060  0.26051010  0.06595115  1
  Te  Te145  1  0.91379697  0.22943977  0.40696512  1
  Te  Te146  1  0.92472007  0.28224499  0.74036226  1
  Te  Te147  1  0.92696988  0.58642171  0.07748430  1
  Te  Te148  1  0.92166712  0.58794353  0.40261379  1
  Te  Te149  1  0.90983491  0.56684829  0.75199471  1
  Te  Te150  1  0.93033477  0.92368281  0.06586005  1
  Te  Te151  1  0.92543391  0.89914463  0.41883423  1
  Te  Te152  1  0.94217789  0.91107279  0.77084874  1
  Te  Te153  1  0.26007468  0.08195885  0.22935432  1
  Te  Te154  1  0.23843006  0.08198633  0.57839883  1
  Te  Te155  1  0.31521010  0.04814418  0.94556394  1
  Te  Te156  1  0.25786286  0.43513334  0.22946917  1
  Te  Te157  1  0.27693551  0.42916912  0.58676942  1
  Te  Te158  1  0.19519471  0.42906804  0.94429159  1
  Te  Te159  1  0.24048379  0.74513904  0.25348816  1
  Te  Te160  1  0.24633585  0.73184457  0.59083506  1
  Te  Te161  1  0.25954386  0.70593974  0.90493030  1
  Te  Te162  1  0.58897175  0.06536421  0.22318912  1
  Te  Te163  1  0.56640489  0.10678208  0.59820920  1
  Te  Te164  1  0.54846418  0.07607612  0.93180272  1
  Te  Te165  1  0.58286527  0.39768455  0.25077150  1
  Te  Te166  1  0.59820298  0.42806142  0.59456024  1
  Te  Te167  1  0.57143151  0.40721774  0.92866879  1
  Te  Te168  1  0.57218744  0.74816436  0.27212458  1
  Te  Te169  1  0.60132875  0.76107129  0.57991107  1
  Te  Te170  1  0.57137768  0.75700737  0.90225843  1
  Te  Te171  1  0.92079523  0.08410739  0.23126164  1
  Te  Te172  1  0.90917813  0.09369730  0.60429328  1
  Te  Te173  1  0.91388334  0.09203071  0.91995413  1
  Te  Te174  1  0.98058686  0.39516350  0.24536856  1
  Te  Te175  1  0.93027452  0.41378938  0.57108647  1
  Te  Te176  1  0.94064595  0.41993635  0.91247933  1
  Te  Te177  1  0.92433667  0.74526995  0.22910929  1
  Te  Te178  1  0.91212936  0.72627081  0.57688740  1
  Te  Te179  1  0.95250272  0.75308179  0.93180906  1
