# generated using pymatgen
data_In2Te3
_symmetry_space_group_name_H-M   'P 1'
_cell_length_a   18.91457606
_cell_length_b   18.88445036
_cell_length_c   18.91150174
_cell_angle_alpha   90.39106239
_cell_angle_beta   90.05050325
_cell_angle_gamma   90.00443809
_symmetry_Int_Tables_number   1
_chemical_formula_structural   In2Te3
_chemical_formula_sum   'In72 Te108'
_cell_volume   6754.86527765
_cell_formula_units_Z   36
loop_
 _symmetry_equiv_pos_site_id
 _symmetry_equiv_pos_as_xyz
  1  'x, y, z'
loop_
 _atom_site_type_symbol
 _atom_site_label
 _atom_site_symmetry_multiplicity
 _atom_site_fract_x
 _atom_site_fract_y
 _atom_site_fract_z
 _atom_site_occupancy
  In  In0  1  0.84858714  0.65565202  0.48852497  1
  In  In1  1  0.00577806  0.13833749  0.86902992  1
  In  In2  1  0.51889218  0.63639684  0.17116996  1
  In  In3  1  0.32869002  -0.02462062  0.64567960  1
  In  In4  1  -0.00528153  0.49761783  0.21471661  1
  In  In5  1  0.46536622  0.82593341  -0.02639274  1
  In  In6  1  0.05980909  0.03646567  0.29342430  1
  In  In7  1  0.47435337  -0.08626909  0.77799556  1
  In  In8  1  0.65374424  0.34972883  0.64973078  1
  In  In9  1  -0.02896310  -0.01280917  0.66076549  1
  In  In10  1  0.80544322  0.83461628  0.67212604  1
  In  In11  1  0.63248494  0.18972517  0.17677045  1
  In  In12  1  0.31343600  0.16109586  0.20377651  1
  In  In13  1  0.49009506  -0.01305943  0.51121850  1
  In  In14  1  0.34157665  0.31933566  0.00312439  1
  In  In15  1  0.18217399  0.17388808  0.01833403  1
  In  In16  1  0.47627974  0.67854596  0.80632311  1
  In  In17  1  0.83168744  0.00267957  0.83524154  1
  In  In18  1  0.18465972  0.54511420  0.34893002  1
  In  In19  1  0.49705447  0.82081987  0.32439503  1
  In  In20  1  0.82744606  0.50454014  0.01183272  1
  In  In21  1  0.85696111  0.35072503  0.45234509  1
  In  In22  1  0.66950769  0.35518229  0.34413220  1
  In  In23  1  0.33506703  0.17433533  0.49907686  1
  In  In24  1  0.69090587  0.50301195  0.18237649  1
  In  In25  1  0.00121184  0.83409260  0.47593064  1
  In  In26  1  0.83104531  0.51509968  0.63687835  1
  In  In27  1  0.80904994  0.17795524  0.68629653  1
  In  In28  1  0.14051310  -0.02284684  0.82651748  1
  In  In29  1  0.84086928  0.67122962  0.82283409  1
  In  In30  1  0.36003300  0.36203728  0.35387437  1
  In  In31  1  0.17959402  0.58374865  0.61222811  1
  In  In32  1  0.78525524  0.35433683  0.86399035  1
  In  In33  1  -0.00617934  0.51199746  0.83132751  1
  In  In34  1  0.65259276  0.83020077  0.51028833  1
  In  In35  1  0.83007323  0.01171829  0.15749494  1
  In  In36  1  -0.04059793  0.19249091  0.46224637  1
  In  In37  1  0.15798772  0.69548306  0.83577682  1
  In  In38  1  0.86149725  0.66383076  0.18657956  1
  In  In39  1  0.31731733  0.83830535  0.15271708  1
  In  In40  1  0.82726192  -0.01401130  0.49464591  1
  In  In41  1  0.84535178  0.83412981  -0.00459440  1
  In  In42  1  0.33165241  0.13500094  0.82201257  1
  In  In43  1  0.13982752  0.47768055  0.03541934  1
  In  In44  1  0.17736523  0.79982319  0.64154868  1
  In  In45  1  0.04211092  0.69287710  0.03315969  1
  In  In46  1  0.34967715  0.35247842  0.62508095  1
  In  In47  1  0.50016298  0.50897690  0.66275989  1
  In  In48  1  -0.06980922  0.34223655  0.07812042  1
  In  In49  1  0.66677504  -0.01017797  -0.00728683  1
  In  In50  1  0.86199467  0.83125923  0.31456465  1
  In  In51  1  0.33800272  0.49336314  0.15764356  1
  In  In52  1  0.33318368  0.50224609  0.82881227  1
  In  In53  1  0.31909293  0.66006906  -0.00144882  1
  In  In54  1  0.54292591  0.36069917  0.85413951  1
  In  In55  1  0.15924473  0.35466541  0.48474738  1
  In  In56  1  0.49288027  0.16800313  0.02049414  1
  In  In57  1  0.65666427  0.65857410  0.36820548  1
  In  In58  1  0.66369818  0.17876802  0.86573916  1
  In  In59  1  0.84696956  0.18162926  0.35378524  1
  In  In60  1  0.48630762  0.01132861  0.15326845  1
  In  In61  1  0.64996334  0.66582346  -0.01207012  1
  In  In62  1  0.19043042  0.81403305  0.33200348  1
  In  In63  1  0.49584368  0.66236606  0.50420976  1
  In  In64  1  0.66654477  0.17169492  0.51258230  1
  In  In65  1  0.01073795  -0.01841464  0.02012858  1
  In  In66  1  0.48603647  0.16404906  0.34482252  1
  In  In67  1  0.15839479  0.19146480  0.65699146  1
  In  In68  1  0.69428055  0.84260793  0.15746264  1
  In  In69  1  0.16683637  -0.01680724  0.46279456  1
  In  In70  1  -0.02831901  0.34069290  0.68676937  1
  In  In71  1  0.15105266  0.33304429  0.83616803  1
  Te  Te72  1  0.10938257  0.06701598  0.09377130  1
  Te  Te73  1  0.08509547  0.10426847  0.43193634  1
  Te  Te74  1  0.07267379  0.09057177  0.73566445  1
  Te  Te75  1  0.06800670  0.38846961  0.13241136  1
  Te  Te76  1  0.07847658  0.45786753  0.41379775  1
  Te  Te77  1  0.08610226  0.42895453  0.73905808  1
  Te  Te78  1  0.11106535  0.79935299  0.11298050  1
  Te  Te79  1  0.10604568  0.73678787  0.43415763  1
  Te  Te80  1  0.07279127  0.74129120  0.72575489  1
  Te  Te81  1  0.37890892  0.08756231  0.08124694  1
  Te  Te82  1  0.39578514  0.06485671  0.41328966  1
  Te  Te83  1  0.42353547  0.05846482  0.73152727  1
  Te  Te84  1  0.42674161  0.42320664  0.06153136  1
  Te  Te85  1  0.44176759  0.43743498  0.45086837  1
  Te  Te86  1  0.42337050  0.40185209  0.75810028  1
  Te  Te87  1  0.42923923  0.73458604  0.08885166  1
  Te  Te88  1  0.40782172  0.72762056  0.39817125  1
  Te  Te89  1  0.40685883  0.78607627  0.73241666  1
  Te  Te90  1  0.72036776  0.09142680  0.09088356  1
  Te  Te91  1  0.74380219  0.08388094  0.41479932  1
  Te  Te92  1  0.72434508  0.07767575  0.76024096  1
  Te  Te93  1  0.78974351  0.40340334  0.11773925  1
  Te  Te94  1  0.74395573  0.44533602  0.43809165  1
  Te  Te95  1  0.75088883  0.43174640  0.73263681  1
  Te  Te96  1  0.76019688  0.72634978  0.07939110  1
  Te  Te97  1  0.76187893  0.77065187  0.41316681  1
  Te  Te98  1  0.73585537  0.72148248  0.73306964  1
  Te  Te99  1  0.13726178  0.15530022  0.24396548  1
  Te  Te100  1  0.06018902  0.26921964  0.57421475  1
  Te  Te101  1  0.07726486  0.25335642  0.94061934  1
  Te  Te102  1  0.08637969  0.60742746  0.25250392  1
  Te  Te103  1  0.06125568  0.61671231  0.52704438  1
  Te  Te104  1  0.09467922  0.57981415  0.92442508  1
  Te  Te105  1  0.09726847  0.89796963  0.24616063  1
  Te  Te106  1  0.08360748  0.92020765  0.58349872  1
  Te  Te107  1  0.05806619  0.89244925  0.91212078  1
  Te  Te108  1  0.41995202  0.26159689  0.25047677  1
  Te  Te109  1  0.43171297  0.23753250  0.58982455  1
  Te  Te110  1  0.41741072  0.23573788  0.90046884  1
  Te  Te111  1  0.42118329  0.56917559  0.25521155  1
  Te  Te112  1  0.40089608  0.59919210  0.60045502  1
  Te  Te113  1  0.42383679  0.58353452  0.91892510  1
  Te  Te114  1  0.41011616  0.91830055  0.24579110  1
  Te  Te115  1  0.41223452  0.87611897  0.57372979  1
  Te  Te116  1  0.41079229  0.94378224  0.90939990  1
  Te  Te117  1  0.74278537  0.24959530  0.26165781  1
  Te  Te118  1  0.76945009  0.27357713  0.57422652  1
  Te  Te119  1  0.76936528  0.23640983  0.94880033  1
  Te  Te120  1  0.76649072  0.59263370  0.27994299  1
  Te  Te121  1  0.73288666  0.57957380  0.54543772  1
  Te  Te122  1  0.75015497  0.58245450  0.90635443  1
  Te  Te123  1  0.75442817  0.93197571  0.26278765  1
  Te  Te124  1  0.72585160  0.94043567  0.59641545  1
  Te  Te125  1  0.74281748  0.89382699  0.90204326  1
  Te  Te126  1  0.25014932  0.27173823  0.11264616  1
  Te  Te127  1  0.25341834  0.26303545  0.40781912  1
  Te  Te128  1  0.25481717  0.25612664  0.75485115  1
  Te  Te129  1  0.23036717  0.58450696  0.09543575  1
  Te  Te130  1  0.28666982  0.62176670  0.42759558  1
  Te  Te131  1  0.24471135  0.59677125  0.75412359  1
  Te  Te132  1  0.22420291  0.87724437  0.04449483  1
  Te  Te133  1  0.27392283  0.89097601  0.42966598  1
  Te  Te134  1  0.23937855  0.89815981  0.74269700  1
  Te  Te135  1  0.57475676  0.27691068  0.07469193  1
  Te  Te136  1  0.57957725  0.25566021  0.42092976  1
  Te  Te137  1  0.59185879  0.25750009  0.75345376  1
  Te  Te138  1  0.59466349  0.55203031  0.07002170  1
  Te  Te139  1  0.54809443  0.56261364  0.40239627  1
  Te  Te140  1  0.58047173  0.58456488  0.75978484  1
  Te  Te141  1  0.57628538  0.90242404  0.08240110  1
  Te  Te142  1  0.58218109  0.91582398  0.40773006  1
  Te  Te143  1  0.58475050  0.87313586  0.68617434  1
  Te  Te144  1  0.93551203  0.20433116  0.11829605  1
  Te  Te145  1  0.96382666  0.29547355  0.34394371  1
  Te  Te146  1  0.91864017  0.23189114  0.77757043  1
  Te  Te147  1  0.93923575  0.58016258  0.08353315  1
  Te  Te148  1  0.95186174  0.56840673  0.42681967  1
  Te  Te149  1  0.92937852  0.59573985  0.72281662  1
  Te  Te150  1  0.91825899  0.89571022  0.11223475  1
  Te  Te151  1  0.93477459  0.94536624  0.39638100  1
  Te  Te152  1  0.91499992  0.89579219  0.76508945  1
  Te  Te153  1  0.23356121  0.04149349  0.24379316  1
  Te  Te154  1  0.23764220  0.08446332  0.58329254  1
  Te  Te155  1  0.22749430  0.07140778  0.90985352  1
  Te  Te156  1  0.25347804  0.43083732  0.26985816  1
  Te  Te157  1  0.24366658  0.44459227  0.57490959  1
  Te  Te158  1  0.24116486  0.42004233  0.92726083  1
  Te  Te159  1  0.27609201  0.73117036  0.24338569  1
  Te  Te160  1  0.26400339  0.70082595  0.56332821  1
  Te  Te161  1  0.25630581  0.77055106  0.92086594  1
  Te  Te162  1  0.57542071  0.07493245  0.25852805  1
  Te  Te163  1  0.56807617  0.09025630  0.58408554  1
  Te  Te164  1  0.56576038  0.07595243  0.92040532  1
  Te  Te165  1  0.58369113  0.43032557  0.25118211  1
  Te  Te166  1  0.55675716  0.41653880  0.55671879  1
  Te  Te167  1  0.65916376  0.41537283  0.92328629  1
  Te  Te168  1  0.61136275  0.74457928  0.24388121  1
  Te  Te169  1  0.58260209  0.73944423  0.60513752  1
  Te  Te170  1  0.57828201  0.76039569  0.89654624  1
  Te  Te171  1  0.92290998  0.10376006  0.23703128  1
  Te  Te172  1  0.89937956  0.09661854  0.58442615  1
  Te  Te173  1  0.90067725  0.06967209  0.95219075  1
  Te  Te174  1  0.89022324  0.40692283  0.26743366  1
  Te  Te175  1  0.93067816  0.42450997  0.56707742  1
  Te  Te176  1  0.92227547  0.41484256  0.92226869  1
  Te  Te177  1  0.96158793  0.72704155  0.27645029  1
  Te  Te178  1  0.90512540  0.76944248  0.57350898  1
  Te  Te179  1  0.93365294  0.73053190  0.92866518  1
