# generated using pymatgen
data_In2Te3
_symmetry_space_group_name_H-M   'P 1'
_cell_length_a   18.77884220
_cell_length_b   18.79434267
_cell_length_c   18.78976495
_cell_angle_alpha   90.01087379
_cell_angle_beta   90.04115581
_cell_angle_gamma   90.08432091
_symmetry_Int_Tables_number   1
_chemical_formula_structural   In2Te3
_chemical_formula_sum   'In72 Te108'
_cell_volume   6631.57537985
_cell_formula_units_Z   36
loop_
 _symmetry_equiv_pos_site_id
 _symmetry_equiv_pos_as_xyz
  1  'x, y, z'
loop_
 _atom_site_type_symbol
 _atom_site_label
 _atom_site_symmetry_multiplicity
 _atom_site_fract_x
 _atom_site_fract_y
 _atom_site_fract_z
 _atom_site_occupancy
  In  In0  1  0.65743821  0.16507619  0.17531299  1
  In  In1  1  0.64442803  0.32408175  0.69336902  1
  In  In2  1  -0.01159246  0.69233266  -0.00652901  1
  In  In3  1  0.81418799  0.51944621  0.67168388  1
  In  In4  1  0.67730922  0.15580044  0.50271341  1
  In  In5  1  0.33614188  0.32761340  0.63811610  1
  In  In6  1  0.33282342  0.35587072  0.34397641  1
  In  In7  1  0.68476911  0.51350077  0.84960116  1
  In  In8  1  0.34747016  0.52043209  0.84637428  1
  In  In9  1  0.50261220  0.83550002  0.32988406  1
  In  In10  1  0.83956741  0.65169939  0.16914971  1
  In  In11  1  0.33590053  0.15179889  0.52102712  1
  In  In12  1  0.66126655  0.65708621  0.00283397  1
  In  In13  1  0.12565164  0.48488025  0.03282444  1
  In  In14  1  0.36286658  0.68824406  0.64709764  1
  In  In15  1  0.50709615  0.65902078  0.16212428  1
  In  In16  1  0.50346486  0.15314630  0.32440860  1
  In  In17  1  0.67492310  0.52042617  0.51904177  1
  In  In18  1  0.82759458  -0.00363660  0.82828068  1
  In  In19  1  0.17377789  0.33024731  0.84233078  1
  In  In20  1  0.52143565  0.32649897  0.84254439  1
  In  In21  1  0.33432638  0.32825041  0.02188911  1
  In  In22  1  0.34437685  -0.00687818  0.00744846  1
  In  In23  1  0.52320797  0.69180458  0.49881727  1
  In  In24  1  0.84319338  0.33653962  0.50096658  1
  In  In25  1  0.15481458  0.14369291  0.33649894  1
  In  In26  1  -0.02905072  0.84925004  0.48792011  1
  In  In27  1  -0.02604333  0.33973364  0.32376413  1
  In  In28  1  0.16955360  0.00307705  0.49461428  1
  In  In29  1  -0.02697195  0.47842627  0.86357331  1
  In  In30  1  0.66220053  0.32489145  0.31111409  1
  In  In31  1  0.17544038  0.17252734  -0.01921431  1
  In  In32  1  0.83840825  0.84264780  -0.02247936  1
  In  In33  1  0.33407610  0.48224413  0.47539336  1
  In  In34  1  -0.00774162  0.18128005  0.16912582  1
  In  In35  1  -0.00496047  0.67565486  0.66641445  1
  In  In36  1  0.14485527  0.33451461  0.49198778  1
  In  In37  1  0.82392127  0.00728656  0.17067391  1
  In  In38  1  0.50407748  0.34086349  0.17039107  1
  In  In39  1  0.33373191  0.51460448  0.17327375  1
  In  In40  1  0.14820329  0.51035909  0.31538577  1
  In  In41  1  0.83796672  0.50403780  0.32461373  1
  In  In42  1  0.46174302  0.33129598  0.50161583  1
  In  In43  1  0.34735185  0.83902429  0.50035416  1
  In  In44  1  0.82627595  0.18424001  0.00251523  1
  In  In45  1  0.00890094  0.81106506  0.17485774  1
  In  In46  1  -0.02827730  -0.02519235  0.66852135  1
  In  In47  1  0.32129818  0.15898059  0.13879479  1
  In  In48  1  0.17353730  0.83231159  0.32245612  1
  In  In49  1  0.51280366  0.50691145  0.68649933  1
  In  In50  1  0.32670501  0.66428422  -0.01364297  1
  In  In51  1  0.02165740  -0.02505558  -0.01984063  1
  In  In52  1  -0.01570311  0.32437244  0.66483600  1
  In  In53  1  0.65395973  0.83903937  0.16165910  1
  In  In54  1  0.00635134  0.16579243  0.82106223  1
  In  In55  1  0.51163679  -0.02990661  0.50196841  1
  In  In56  1  0.80936735  0.16581711  0.32950446  1
  In  In57  1  0.15462244  0.15503421  0.67135033  1
  In  In58  1  0.14142372  0.53912348  0.68109529  1
  In  In59  1  0.69894303  0.35164804  0.01130545  1
  In  In60  1  0.16120202  -0.00657497  0.17679781  1
  In  In61  1  -0.00841325  0.65153810  0.33745288  1
  In  In62  1  0.50760621  0.68037040  0.82790858  1
  In  In63  1  0.33304433  0.83966276  0.18143091  1
  In  In64  1  0.18011482  0.67187385  0.51187210  1
  In  In65  1  0.52285659  0.13710135  -0.03174931  1
  In  In66  1  0.16081337  0.69661050  0.84564455  1
  In  In67  1  0.69596460  -0.02850300  0.65980633  1
  In  In68  1  0.35591253  0.12442748  0.82335375  1
  In  In69  1  0.86206027  0.15741702  0.67056948  1
  In  In70  1  0.50928385  0.85043620  -0.01659974  1
  In  In71  1  0.51861401  0.83172162  0.68336632  1
  Te  Te72  1  0.08481335  0.08628239  0.07986037  1
  Te  Te73  1  0.06034616  0.07086361  0.42153971  1
  Te  Te74  1  0.07901135  0.05211261  0.75426145  1
  Te  Te75  1  0.02923957  0.39697256  0.09932819  1
  Te  Te76  1  0.05938575  0.43205602  0.41386911  1
  Te  Te77  1  0.08289148  0.41225491  0.74910393  1
  Te  Te78  1  0.09644241  0.75807679  0.06913523  1
  Te  Te79  1  0.08314806  0.75548549  0.42345150  1
  Te  Te80  1  0.09517900  0.76995721  0.73101924  1
  Te  Te81  1  0.44136806  0.08184554  0.08811888  1
  Te  Te82  1  0.42208588  0.07049904  0.42518264  1
  Te  Te83  1  0.41948030  0.02800069  0.73559266  1
  Te  Te84  1  0.42505005  0.43498802  0.07850120  1
  Te  Te85  1  0.45460276  0.43653701  0.38959732  1
  Te  Te86  1  0.41016121  0.40810081  0.75369523  1
  Te  Te87  1  0.42168410  0.75549036  0.07512051  1
  Te  Te88  1  0.40964887  0.73747619  0.40766401  1
  Te  Te89  1  0.40343355  0.77284677  0.76770105  1
  Te  Te90  1  0.73562957  0.08241245  0.07190525  1
  Te  Te91  1  0.74836643  0.06128858  0.41523458  1
  Te  Te92  1  0.74662850  0.09352703  0.74458660  1
  Te  Te93  1  0.78191461  0.46226214  0.06534593  1
  Te  Te94  1  0.73862107  0.40942379  0.41697566  1
  Te  Te95  1  0.75195271  0.40993091  0.75949817  1
  Te  Te96  1  0.75957943  0.75701593  0.08064272  1
  Te  Te97  1  0.76027898  0.81612786  0.44020376  1
  Te  Te98  1  0.72432846  0.71664991  0.70235148  1
  Te  Te99  1  0.08890245  0.25727337  0.26075230  1
  Te  Te100  1  0.06558842  0.23164185  0.57442802  1
  Te  Te101  1  0.06521554  0.26348926  0.92480524  1
  Te  Te102  1  0.07003692  0.59654784  0.22528090  1
  Te  Te103  1  0.06281333  0.58641341  0.56019537  1
  Te  Te104  1  0.08746780  0.57553045  0.90909664  1
  Te  Te105  1  0.06225285  0.92206628  0.26741683  1
  Te  Te106  1  0.08021842  0.91083728  0.57759495  1
  Te  Te107  1  0.08689919  0.87862636  0.89029876  1
  Te  Te108  1  0.40537986  0.25034451  0.24920663  1
  Te  Te109  1  0.44130959  0.22067803  0.60777700  1
  Te  Te110  1  0.40562121  0.23946715  0.92091520  1
  Te  Te111  1  0.42281279  0.58923342  0.26319899  1
  Te  Te112  1  0.42353755  0.56724893  0.57549713  1
  Te  Te113  1  0.44993534  0.58825962  0.93618087  1
  Te  Te114  1  0.42608486  0.93190832  0.24823263  1
  Te  Te115  1  0.41010687  0.92422247  0.61336272  1
  Te  Te116  1  0.42462930  0.93779843  0.89253019  1
  Te  Te117  1  0.76739697  0.26369170  0.21944619  1
  Te  Te118  1  0.75244184  0.25650147  0.59471974  1
  Te  Te119  1  0.72431342  0.24339123  0.91418863  1
  Te  Te120  1  0.73833086  0.59315672  0.26066746  1
  Te  Te121  1  0.77086026  0.62567060  0.57208415  1
  Te  Te122  1  0.77442127  0.60840979  0.91846572  1
  Te  Te123  1  0.75577601  0.90371576  0.25261609  1
  Te  Te124  1  0.78996313  0.89138818  0.57441604  1
  Te  Te125  1  0.73328127  0.93698979  0.92906112  1
  Te  Te126  1  0.21870161  0.26423368  0.09693549  1
  Te  Te127  1  0.25487625  0.24665661  0.42842650  1
  Te  Te128  1  0.25618085  0.24258706  0.74813465  1
  Te  Te129  1  0.23522798  0.58434691  0.07872069  1
  Te  Te130  1  0.24834652  0.58749192  0.40475617  1
  Te  Te131  1  0.26738567  0.60135601  0.74385640  1
  Te  Te132  1  0.23866066  0.90771720  0.07869189  1
  Te  Te133  1  0.26484769  0.92401506  0.40493807  1
  Te  Te134  1  0.20770404  0.87099914  0.79150781  1
  Te  Te135  1  0.57586478  0.24837384  0.07170062  1
  Te  Te136  1  0.57997774  0.24934678  0.41946962  1
  Te  Te137  1  0.57242357  0.21438164  0.76185452  1
  Te  Te138  1  0.60590204  0.56230976  0.10383371  1
  Te  Te139  1  0.60474741  0.60028888  0.41669710  1
  Te  Te140  1  0.61508276  0.60837220  0.73641124  1
  Te  Te141  1  0.57149271  0.93609129  0.08710334  1
  Te  Te142  1  0.60918330  0.88792654  0.42443803  1
  Te  Te143  1  0.60288798  0.92246949  0.77067696  1
  Te  Te144  1  0.92179286  0.27605467  0.07587125  1
  Te  Te145  1  0.91655081  0.23403997  0.41804030  1
  Te  Te146  1  0.89933823  0.26478579  0.77575520  1
  Te  Te147  1  0.90874839  0.58108078  0.05561597  1
  Te  Te148  1  0.88828992  0.59739523  0.42896504  1
  Te  Te149  1  0.91899663  0.58332132  0.76334981  1
  Te  Te150  1  0.92523683  0.91684200  0.08643514  1
  Te  Te151  1  0.86836700  0.91132065  0.39539693  1
  Te  Te152  1  0.89978144  0.88241141  0.76354406  1
  Te  Te153  1  0.26427716  0.07564582  0.25458991  1
  Te  Te154  1  0.25512982  0.05817211  0.61056252  1
  Te  Te155  1  0.24340846  0.06081046  0.90640881  1
  Te  Te156  1  0.23829374  0.41329035  0.23935374  1
  Te  Te157  1  0.23190738  0.42762674  0.58466965  1
  Te  Te158  1  0.25371735  0.42727800  0.92884369  1
  Te  Te159  1  0.24653606  0.73568027  0.23976447  1
  Te  Te160  1  0.24706534  0.77711766  0.59828772  1
  Te  Te161  1  0.27006636  0.77995615  0.90939382  1
  Te  Te162  1  0.60546115  0.06299093  0.26897522  1
  Te  Te163  1  0.59289281  0.06440703  0.59084860  1
  Te  Te164  1  0.58363587  0.02816335  0.88837205  1
  Te  Te165  1  0.60788692  0.43368385  0.22501295  1
  Te  Te166  1  0.57939123  0.40888956  0.58134159  1
  Te  Te167  1  0.58583185  0.42999227  0.93013774  1
  Te  Te168  1  0.59687837  0.73726511  0.25993221  1
  Te  Te169  1  0.61841703  0.75935429  0.59614689  1
  Te  Te170  1  0.60899341  0.76413573  0.90487669  1
  Te  Te171  1  0.92175481  0.08296265  0.26008447  1
  Te  Te172  1  0.91251472  0.06626782  0.56812063  1
  Te  Te173  1  0.92194139  0.08095172  0.92515054  1
  Te  Te174  1  0.92950236  0.44117464  0.22245646  1
  Te  Te175  1  0.91735033  0.43636722  0.58710410  1
  Te  Te176  1  0.86357164  0.41314215  0.94729391  1
  Te  Te177  1  0.90164204  0.75362714  0.26575832  1
  Te  Te178  1  0.90030485  0.77103063  0.59700129  1
  Te  Te179  1  0.91912100  0.76207274  0.88002647  1
