# generated using pymatgen
data_In2Te3
_symmetry_space_group_name_H-M   'P 1'
_cell_length_a   18.79946755
_cell_length_b   18.79525097
_cell_length_c   18.79673021
_cell_angle_alpha   90.01948202
_cell_angle_beta   90.02031587
_cell_angle_gamma   89.98278356
_symmetry_Int_Tables_number   1
_chemical_formula_structural   In2Te3
_chemical_formula_sum   'In72 Te108'
_cell_volume   6641.64891202
_cell_formula_units_Z   36
loop_
 _symmetry_equiv_pos_site_id
 _symmetry_equiv_pos_as_xyz
  1  'x, y, z'
loop_
 _atom_site_type_symbol
 _atom_site_label
 _atom_site_symmetry_multiplicity
 _atom_site_fract_x
 _atom_site_fract_y
 _atom_site_fract_z
 _atom_site_occupancy
  In  In0  1  0.67923978  0.48960917  0.50198127  1
  In  In1  1  0.68521799  0.14529921  0.16063238  1
  In  In2  1  0.16817386  0.83742656  0.01515856  1
  In  In3  1  -0.00902343  -0.00922633  0.69026248  1
  In  In4  1  0.32644219  0.16439765  0.81716289  1
  In  In5  1  0.85081962  0.70459075  0.51290191  1
  In  In6  1  0.00666926  0.50256407  0.48650133  1
  In  In7  1  0.33689279  -0.01276802  0.35555395  1
  In  In8  1  0.35670084  0.66474084  0.00287409  1
  In  In9  1  0.48821676  0.50445540  0.30369264  1
  In  In10  1  -0.02506512  0.13653254  0.18545362  1
  In  In11  1  0.33099378  0.81124471  0.16010210  1
  In  In12  1  0.50980875  0.35907265  0.83300701  1
  In  In13  1  0.16302979  0.02459275  0.82831795  1
  In  In14  1  0.83759821  -0.02799126  0.46256402  1
  In  In15  1  0.15986603  0.32299052  0.83740612  1
  In  In16  1  -0.00445334  0.33505150  0.34502396  1
  In  In17  1  -0.03641254  0.85650246  0.17530646  1
  In  In18  1  -0.00729737  0.33445765  0.65732368  1
  In  In19  1  0.14135031  0.69070711  0.50010314  1
  In  In20  1  -0.01438386  -0.00374741  0.01790693  1
  In  In21  1  0.53022231  -0.01761089  0.84345505  1
  In  In22  1  0.00120581  0.16994175  0.50374272  1
  In  In23  1  0.16393996  0.02057821  0.52224986  1
  In  In24  1  0.52621248  0.51335442  -0.01993468  1
  In  In25  1  0.50886648  0.83742694  0.67808961  1
  In  In26  1  0.15103796  0.49453608  0.32980724  1
  In  In27  1  0.83614925  0.50397158  0.33268504  1
  In  In28  1  0.64226162  0.30956986  0.32259351  1
  In  In29  1  0.81639511  0.52968694  0.69111535  1
  In  In30  1  0.82070531  0.52375769  0.00567983  1
  In  In31  1  0.03028872  0.34993102  0.01112910  1
  In  In32  1  0.16502196  0.66040126  0.17505278  1
  In  In33  1  0.29829618  0.33147297  0.35014182  1
  In  In34  1  0.83411756  0.14481389  -0.00079748  1
  In  In35  1  0.15422058  0.65764644  0.83720968  1
  In  In36  1  0.50608394  0.15746235  0.33752721  1
  In  In37  1  0.50723549  0.14419680  0.65911262  1
  In  In38  1  0.16864074  0.84310659  0.65456595  1
  In  In39  1  0.81780840  -0.01977677  0.85748444  1
  In  In40  1  0.51733139  0.82217404  0.32738320  1
  In  In41  1  0.34487416  0.84515378  0.81932916  1
  In  In42  1  0.82973001  0.17134221  0.67064431  1
  In  In43  1  0.50282109  0.67296652  0.50480404  1
  In  In44  1  0.31939987  0.18089495  0.14988913  1
  In  In45  1  0.66672517  0.83948962  0.50116266  1
  In  In46  1  0.66320610  0.16698297  0.83751227  1
  In  In47  1  0.67412039  0.67225965  0.32088674  1
  In  In48  1  0.52420671  0.51544056  0.69542206  1
  In  In49  1  -0.02920533  0.83291133  0.84310396  1
  In  In50  1  0.51562393  -0.00370119  0.50683334  1
  In  In51  1  0.49905988  0.33331219  0.15934215  1
  In  In52  1  0.66409519  0.68240664  -0.01612483  1
  In  In53  1  0.84473331  0.30873558  0.50967124  1
  In  In54  1  0.50607095  0.16211424  -0.00250309  1
  In  In55  1  0.49927519  0.30608925  0.50560420  1
  In  In56  1  0.82668167  0.34403185  0.81727605  1
  In  In57  1  0.15944266  0.17042783  0.34328450  1
  In  In58  1  0.31876210  0.65520674  0.31301794  1
  In  In59  1  0.35121120  0.01290388  -0.03358318  1
  In  In60  1  -0.03342319  0.52980349  0.83028747  1
  In  In61  1  0.15048527  -0.01215724  0.17776030  1
  In  In62  1  0.53753007  -0.04165977  0.13469916  1
  In  In63  1  0.33469950  0.51221298  0.19273069  1
  In  In64  1  0.17186278  0.49903251  0.66193331  1
  In  In65  1  0.84052921  0.66891222  0.15129093  1
  In  In66  1  0.31815981  0.83967019  0.51013787  1
  In  In67  1  0.35213583  0.49913720  0.84222674  1
  In  In68  1  -0.02636851  0.67711827  -0.01533831  1
  In  In69  1  0.31586895  0.33850668  0.00177490  1
  In  In70  1  0.83054815  0.34888867  0.15574918  1
  In  In71  1  0.34128061  0.49326389  0.51310185  1
  Te  Te72  1  0.08452039  0.08940774  0.08624848  1
  Te  Te73  1  0.06787115  0.06994263  0.40987889  1
  Te  Te74  1  0.09095927  0.09636218  0.72120695  1
  Te  Te75  1  0.12184820  0.41058503  0.10696761  1
  Te  Te76  1  0.10173431  0.39399309  0.43649197  1
  Te  Te77  1  0.06238308  0.43371142  0.75530348  1
  Te  Te78  1  0.06699883  0.75425042  0.08919160  1
  Te  Te79  1  0.04496742  0.75927411  0.41560523  1
  Te  Te80  1  0.08483792  0.76772623  0.76026287  1
  Te  Te81  1  0.42188068  0.07965454  0.09423731  1
  Te  Te82  1  0.41154831  0.09168958  0.43771314  1
  Te  Te83  1  0.42656332  0.06358735  0.76219569  1
  Te  Te84  1  0.41323596  0.43092513  0.07793709  1
  Te  Te85  1  0.42675708  0.40955438  0.40669959  1
  Te  Te86  1  0.40980357  0.41329566  0.73217644  1
  Te  Te87  1  0.44202371  0.75967657  0.07780887  1
  Te  Te88  1  0.40624790  0.75371976  0.41569858  1
  Te  Te89  1  0.41653955  0.74169031  0.74366392  1
  Te  Te90  1  0.77619991  0.04367439  0.09629806  1
  Te  Te91  1  0.75942747  0.06322574  0.37275274  1
  Te  Te92  1  0.74900837  0.07301012  0.75497472  1
  Te  Te93  1  0.73465736  0.42148206  0.06975271  1
  Te  Te94  1  0.75162833  0.39654109  0.40376567  1
  Te  Te95  1  0.72863295  0.42019422  0.73813766  1
  Te  Te96  1  0.73419517  0.76177479  0.09588293  1
  Te  Te97  1  0.75925075  0.76635859  0.40314028  1
  Te  Te98  1  0.74344109  0.69295747  0.77114692  1
  Te  Te99  1  0.06861199  0.24351180  0.24595284  1
  Te  Te100  1  0.09093612  0.24344411  0.59540280  1
  Te  Te101  1  0.06654933  0.24223178  0.91716785  1
  Te  Te102  1  0.06763268  0.59546841  0.26403382  1
  Te  Te103  1  0.07041307  0.59167364  0.59319047  1
  Te  Te104  1  0.07580882  0.57283408  0.93283754  1
  Te  Te105  1  0.05924061  0.91989725  0.27118114  1
  Te  Te106  1  0.06072003  0.91466408  0.57717948  1
  Te  Te107  1  0.08690809  0.91963555  0.91521227  1
  Te  Te108  1  0.41116998  0.25407949  0.25730631  1
  Te  Te109  1  0.40782256  0.23896308  0.59949882  1
  Te  Te110  1  0.41865671  0.25542262  0.91456283  1
  Te  Te111  1  0.43930767  0.62442285  0.22421106  1
  Te  Te112  1  0.42269805  0.58734634  0.60106999  1
  Te  Te113  1  0.44548358  0.60879945  0.89200418  1
  Te  Te114  1  0.41747999  0.91151069  0.24848668  1
  Te  Te115  1  0.41243181  0.92389041  0.59348282  1
  Te  Te116  1  0.43730200  0.89375377  0.93163488  1
  Te  Te117  1  0.75961484  0.24614879  0.24748492  1
  Te  Te118  1  0.73683405  0.25697965  0.59413351  1
  Te  Te119  1  0.75702215  0.25161472  0.92205702  1
  Te  Te120  1  0.74732454  0.57340299  0.23118368  1
  Te  Te121  1  0.74832994  0.60153613  0.57373790  1
  Te  Te122  1  0.74944901  0.58843426  0.88670592  1
  Te  Te123  1  0.76063683  0.95929129  0.26351909  1
  Te  Te124  1  0.76813338  0.91303957  0.57981109  1
  Te  Te125  1  0.70849482  0.88369363  0.90848503  1
  Te  Te126  1  0.21502984  0.26140726  0.08066217  1
  Te  Te127  1  0.25372417  0.22608243  0.44758038  1
  Te  Te128  1  0.24394294  0.25571297  0.73697915  1
  Te  Te129  1  0.25385889  0.58237897  0.07964633  1
  Te  Te130  1  0.24616863  0.57886877  0.42398595  1
  Te  Te131  1  0.25823208  0.58584686  0.75360313  1
  Te  Te132  1  0.26579928  0.93478381  0.07958500  1
  Te  Te133  1  0.22164225  0.91327568  0.42027783  1
  Te  Te134  1  0.25411744  0.93836831  0.73861167  1
  Te  Te135  1  0.59849304  0.25099136  0.07962957  1
  Te  Te136  1  0.60545985  0.21674825  0.43794160  1
  Te  Te137  1  0.57789525  0.25250070  0.74701227  1
  Te  Te138  1  0.59407068  0.59544618  0.08090540  1
  Te  Te139  1  0.58021439  0.57967724  0.41036799  1
  Te  Te140  1  0.62054279  0.60167365  0.77287000  1
  Te  Te141  1  0.63797089  0.89049294  0.04961737  1
  Te  Te142  1  0.59863081  0.92970793  0.39779998  1
  Te  Te143  1  0.61853805  0.91151597  0.74671766  1
  Te  Te144  1  0.91908809  0.24439506  0.08303117  1
  Te  Te145  1  0.90338360  0.22532903  0.39745976  1
  Te  Te146  1  0.92790234  0.24359188  0.76187532  1
  Te  Te147  1  0.93959400  0.56932101  0.08892927  1
  Te  Te148  1  0.91808266  0.60212342  0.41373012  1
  Te  Te149  1  0.91078398  0.64267544  0.74208913  1
  Te  Te150  1  0.87682724  0.90646096  0.06385833  1
  Te  Te151  1  0.93726618  0.87274350  0.41346291  1
  Te  Te152  1  0.87764095  0.89724231  0.74006720  1
  Te  Te153  1  0.25673747  0.08324000  0.25442428  1
  Te  Te154  1  0.27469955  0.10944813  0.55797462  1
  Te  Te155  1  0.23958629  0.10898796  0.93151063  1
  Te  Te156  1  0.23037240  0.40210189  0.22888570  1
  Te  Te157  1  0.24732665  0.40224860  0.57990465  1
  Te  Te158  1  0.23548402  0.43369757  0.91457102  1
  Te  Te159  1  0.22770958  0.76855220  0.26433442  1
  Te  Te160  1  0.25433587  0.73039497  0.59482832  1
  Te  Te161  1  0.25259135  0.75448356  0.91928670  1
  Te  Te162  1  0.57857210  0.06784680  0.23843581  1
  Te  Te163  1  0.61400263  0.07062344  0.58734386  1
  Te  Te164  1  0.61094359  0.06816995  0.94216607  1
  Te  Te165  1  0.59760928  0.42532629  0.23278348  1
  Te  Te166  1  0.57270361  0.41962336  0.58304448  1
  Te  Te167  1  0.61727557  0.41652072  0.91579606  1
  Te  Te168  1  0.61665012  0.77436561  0.22803784  1
  Te  Te169  1  0.59981603  0.74122173  0.59770863  1
  Te  Te170  1  0.59839335  0.77821672  0.89021478  1
  Te  Te171  1  0.88836839  0.03839672  0.26132390  1
  Te  Te172  1  0.90822499  0.07553863  0.58102937  1
  Te  Te173  1  0.92933836  0.07622079  0.89997683  1
  Te  Te174  1  0.93186051  0.42699690  0.24152547  1
  Te  Te175  1  0.89919549  0.43471654  0.57986590  1
  Te  Te176  1  0.91187408  0.41794606  0.92403405  1
  Te  Te177  1  0.89296102  0.75658940  0.25915098  1
  Te  Te178  1  0.93579667  0.74409168  0.62527367  1
  Te  Te179  1  0.86926104  0.76227546  0.92547583  1
