# generated using pymatgen
data_In2Te3
_symmetry_space_group_name_H-M   'P 1'
_cell_length_a   18.92143826
_cell_length_b   18.91524514
_cell_length_c   18.92207178
_cell_angle_alpha   89.90906077
_cell_angle_beta   90.08794696
_cell_angle_gamma   89.92231758
_symmetry_Int_Tables_number   1
_chemical_formula_structural   In2Te3
_chemical_formula_sum   'In72 Te108'
_cell_volume   6772.25566881
_cell_formula_units_Z   36
loop_
 _symmetry_equiv_pos_site_id
 _symmetry_equiv_pos_as_xyz
  1  'x, y, z'
loop_
 _atom_site_type_symbol
 _atom_site_label
 _atom_site_symmetry_multiplicity
 _atom_site_fract_x
 _atom_site_fract_y
 _atom_site_fract_z
 _atom_site_occupancy
  In  In0  1  0.18511442  0.31635439  0.15858247  1
  In  In1  1  0.67309992  -0.00433981  0.02624191  1
  In  In2  1  0.16484258  -0.00272854  0.83192274  1
  In  In3  1  0.49398532  0.49581893  0.00110904  1
  In  In4  1  -0.01588914  0.81448241  0.49403922  1
  In  In5  1  0.64515338  0.35023585  0.32799308  1
  In  In6  1  0.84117555  0.14371084  0.32737980  1
  In  In7  1  0.82301938  0.66700895  0.16813854  1
  In  In8  1  0.33582345  0.83401580  0.82840742  1
  In  In9  1  0.50359772  0.85603340  0.68367587  1
  In  In10  1  0.67367747  0.16407246  0.48901603  1
  In  In11  1  0.15384514  -0.01714268  0.49507567  1
  In  In12  1  0.16973779  0.16572555  -0.00486302  1
  In  In13  1  -0.00553495  0.18855769  0.51046468  1
  In  In14  1  0.63532344  0.50744733  0.51005728  1
  In  In15  1  0.18554721  0.15825338  0.34213141  1
  In  In16  1  0.67326015  -0.00823732  0.68502220  1
  In  In17  1  0.82508630  0.34158956  0.17668206  1
  In  In18  1  0.18175623  0.15730619  0.67731692  1
  In  In19  1  0.48568237  0.00301426  0.49765731  1
  In  In20  1  0.32953499  0.01092320  0.32947134  1
  In  In21  1  0.67567004  0.81522883  0.48706610  1
  In  In22  1  0.20491788  0.37849973  0.52160299  1
  In  In23  1  0.84167832  0.47666178  0.00700935  1
  In  In24  1  0.18003720  0.82172618  -0.01037415  1
  In  In25  1  -0.01994698  0.48776575  0.14904856  1
  In  In26  1  0.00224848  0.14403172  0.16246047  1
  In  In27  1  0.82507753  -0.01078196  0.85968739  1
  In  In28  1  0.67644026  0.66070162  0.68092640  1
  In  In29  1  -0.01116224  0.00680265  0.63541299  1
  In  In30  1  0.49558689  0.66862171  0.48787499  1
  In  In31  1  0.33698144  0.83540007  0.18884955  1
  In  In32  1  0.16613843  0.66770570  0.50744574  1
  In  In33  1  0.51568440  0.83042251  0.33092596  1
  In  In34  1  0.66811858  0.68437962  0.01114428  1
  In  In35  1  -0.01148138  0.67352528  0.32998823  1
  In  In36  1  -0.00142443  0.81848162  0.81761256  1
  In  In37  1  0.52590308  0.13426615  0.31674786  1
  In  In38  1  0.01470187  0.33606920  0.68904788  1
  In  In39  1  0.34558222  0.50056178  0.17040673  1
  In  In40  1  0.84254828  0.32871430  0.81801301  1
  In  In41  1  0.50953999  0.68207249  0.16507203  1
  In  In42  1  0.34227256  0.49115548  0.83120210  1
  In  In43  1  0.83658943  0.68541786  0.83197235  1
  In  In44  1  0.49086523  0.17585832  0.67593100  1
  In  In45  1  0.16719639  0.69731197  0.17480041  1
  In  In46  1  0.51589019  0.83817072  -0.00359753  1
  In  In47  1  0.33708019  0.01113413  0.67233050  1
  In  In48  1  0.63922185  0.32669449  0.00118071  1
  In  In49  1  0.00710426  -0.02193365  0.31550812  1
  In  In50  1  0.80939120  0.85962213  0.31500944  1
  In  In51  1  -0.00887673  0.36706779  0.30100704  1
  In  In52  1  0.31670312  0.64668260  -0.00244225  1
  In  In53  1  0.82289267  0.13559479  0.01255251  1
  In  In54  1  0.83636736  0.81056431  0.65421119  1
  In  In55  1  0.83665126  0.50552320  0.66906085  1
  In  In56  1  0.49090955  0.16996409  -0.01741323  1
  In  In57  1  0.00355501  0.52208710  0.49192825  1
  In  In58  1  0.66586756  0.17251082  0.84474040  1
  In  In59  1  -0.00340149  0.32347509  -0.02069114  1
  In  In60  1  0.50951395  0.50833193  0.33199009  1
  In  In61  1  0.18923764  0.33581738  0.83321532  1
  In  In62  1  0.47123897  0.33570570  0.51829239  1
  In  In63  1  0.81577060  0.32595759  0.50299104  1
  In  In64  1  0.66401702  0.48128264  0.85558386  1
  In  In65  1  -0.00456188  0.86266537  0.12940065  1
  In  In66  1  0.33947654  0.01896207  0.01682332  1
  In  In67  1  0.13322119  0.52975492  -0.04334650  1
  In  In68  1  0.49338923  0.48527218  0.67823899  1
  In  In69  1  0.16774537  0.51919107  0.34735417  1
  In  In70  1  0.36143263  0.31583760  0.33002655  1
  In  In71  1  0.32014770  0.66572164  0.67121142  1
  Te  Te72  1  0.10534456  0.07172038  0.08822177  1
  Te  Te73  1  0.06576339  0.09028497  0.41128185  1
  Te  Te74  1  0.07069621  0.07834367  0.74297177  1
  Te  Te75  1  0.08438830  0.40202582  0.07727405  1
  Te  Te76  1  0.08342635  0.40655918  0.42105386  1
  Te  Te77  1  0.10720310  0.43115119  0.75214258  1
  Te  Te78  1  0.07461936  0.74236988  0.06653266  1
  Te  Te79  1  0.08934432  0.75764688  0.40237363  1
  Te  Te80  1  0.10723193  0.72711944  0.77956069  1
  Te  Te81  1  0.45010371  0.07848452  0.09238912  1
  Te  Te82  1  0.41104109  0.10550692  0.41719784  1
  Te  Te83  1  0.42805548  0.07671353  0.76490799  1
  Te  Te84  1  0.41858676  0.40093478  0.08795804  1
  Te  Te85  1  0.40998646  0.43139431  0.41765165  1
  Te  Te86  1  0.39606702  0.38714386  0.73670079  1
  Te  Te87  1  0.40255114  0.74814337  0.07090920  1
  Te  Te88  1  0.41530771  0.76854656  0.41889536  1
  Te  Te89  1  0.42814955  0.74216356  0.75103603  1
  Te  Te90  1  0.70806217  0.12044779  0.10661089  1
  Te  Te91  1  0.75559965  0.06457697  0.41668437  1
  Te  Te92  1  0.76175807  0.08873057  0.76237429  1
  Te  Te93  1  0.72722198  0.41795703  0.08802560  1
  Te  Te94  1  0.73403465  0.42693354  0.42436089  1
  Te  Te95  1  0.74096758  0.41301077  0.74302952  1
  Te  Te96  1  0.76406996  0.77220640  0.08198291  1
  Te  Te97  1  0.78023125  0.74863796  0.40813741  1
  Te  Te98  1  0.73437159  0.77415230  0.76121851  1
  Te  Te99  1  0.07924284  0.24922823  0.24677476  1
  Te  Te100  1  0.10667110  0.26062756  0.58425300  1
  Te  Te101  1  0.08384089  0.23813827  0.89251600  1
  Te  Te102  1  0.07091704  0.57569962  0.24362840  1
  Te  Te103  1  0.09848208  0.56709629  0.59236310  1
  Te  Te104  1  0.05213882  0.62620492  0.87796537  1
  Te  Te105  1  0.09730845  0.90670370  0.22696229  1
  Te  Te106  1  0.07647897  0.89298556  0.58969634  1
  Te  Te107  1  0.07909017  0.90970602  0.91802233  1
  Te  Te108  1  0.43016323  0.21987367  0.24258097  1
  Te  Te109  1  0.39321075  0.22706903  0.57679318  1
  Te  Te110  1  0.38963836  0.27558501  0.96381350  1
  Te  Te111  1  0.41621318  0.60313043  0.25592500  1
  Te  Te112  1  0.41977963  0.58090719  0.58555143  1
  Te  Te113  1  0.42590053  0.59350323  0.90674529  1
  Te  Te114  1  0.43439023  0.93249456  0.24932920  1
  Te  Te115  1  0.40440553  0.90683291  0.58057150  1
  Te  Te116  1  0.41429448  0.92298649  0.92128752  1
  Te  Te117  1  0.74689081  0.25277829  0.26972360  1
  Te  Te118  1  0.74870615  0.23500342  0.59468827  1
  Te  Te119  1  0.76580077  0.26184029  0.93416487  1
  Te  Te120  1  0.75128073  0.55569632  0.22613073  1
  Te  Te121  1  0.75071421  0.58772415  0.57285049  1
  Te  Te122  1  0.75720148  0.58037425  0.92121381  1
  Te  Te123  1  0.70239768  0.92208192  0.23083409  1
  Te  Te124  1  0.75011844  0.91104056  0.58038587  1
  Te  Te125  1  0.75623122  0.89480436  0.95185419  1
  Te  Te126  1  0.27946793  0.24144094  0.06746306  1
  Te  Te127  1  0.25164025  0.26622916  0.42404054  1
  Te  Te128  1  0.27296785  0.24476445  0.75192222  1
  Te  Te129  1  0.23091867  0.57470259  0.09965990  1
  Te  Te130  1  0.26441189  0.58440650  0.43302674  1
  Te  Te131  1  0.24149244  0.55057056  0.73313784  1
  Te  Te132  1  0.25397497  0.91251515  0.08649884  1
  Te  Te133  1  0.24063288  0.91628736  0.39908092  1
  Te  Te134  1  0.24138792  0.90935935  0.73602923  1
  Te  Te135  1  0.58052631  0.22659914  0.09277965  1
  Te  Te136  1  0.56987930  0.25536604  0.42334845  1
  Te  Te137  1  0.57864953  0.25782381  0.76279440  1
  Te  Te138  1  0.58850479  0.57843259  0.08732716  1
  Te  Te139  1  0.60300003  0.60771438  0.39920308  1
  Te  Te140  1  0.58398656  0.57367824  0.76289854  1
  Te  Te141  1  0.59368312  0.89635880  0.10935000  1
  Te  Te142  1  0.59218109  0.92570882  0.42332391  1
  Te  Te143  1  0.59017045  0.92025485  0.78244962  1
  Te  Te144  1  0.91707947  0.25444097  0.09216946  1
  Te  Te145  1  0.91200290  0.26619849  0.39776378  1
  Te  Te146  1  0.92766538  0.23389812  0.74686367  1
  Te  Te147  1  0.91766319  0.59489947  0.06380161  1
  Te  Te148  1  0.90007069  0.59481315  0.41775093  1
  Te  Te149  1  0.92261278  0.59606214  0.74909037  1
  Te  Te150  1  0.91172595  0.97445077  0.07881603  1
  Te  Te151  1  0.91028442  0.92227789  0.41688616  1
  Te  Te152  1  0.90895496  0.92137295  0.74128344  1
  Te  Te153  1  0.25433267  0.09418468  0.23196251  1
  Te  Te154  1  0.24836439  0.07800579  0.56592937  1
  Te  Te155  1  0.26300976  0.08744632  0.90215809  1
  Te  Te156  1  0.25032568  0.41159802  0.25935968  1
  Te  Te157  1  0.28787307  0.44280921  0.62517526  1
  Te  Te158  1  0.24804277  0.43347547  0.93560064  1
  Te  Te159  1  0.26825132  0.73511022  0.27243491  1
  Te  Te160  1  0.24624722  0.76169861  0.58889969  1
  Te  Te161  1  0.24265555  0.72521472  0.88792400  1
  Te  Te162  1  0.64081923  0.06383328  0.25544808  1
  Te  Te163  1  0.58295338  0.07606937  0.59092894  1
  Te  Te164  1  0.59014804  0.06661925  0.91941643  1
  Te  Te165  1  0.55605809  0.41381666  0.23008054  1
  Te  Te166  1  0.58698816  0.39482518  0.59817792  1
  Te  Te167  1  0.54829290  0.39376244  0.89968731  1
  Te  Te168  1  0.60970985  0.75314675  0.24573435  1
  Te  Te169  1  0.58218056  0.74832308  0.59366026  1
  Te  Te170  1  0.57950579  0.74022659  0.90858933  1
  Te  Te171  1  0.89484335  0.04598953  0.22115645  1
  Te  Te172  1  0.89488272  0.09680081  0.56638226  1
  Te  Te173  1  0.92683056  0.07180948  0.93218499  1
  Te  Te174  1  0.87109369  0.46528348  0.26126000  1
  Te  Te175  1  0.92284207  0.41117980  0.58305854  1
  Te  Te176  1  0.93105254  0.42940039  0.89299194  1
  Te  Te177  1  0.92102549  0.77493104  0.23791485  1
  Te  Te178  1  0.93603308  0.72008480  0.59664538  1
  Te  Te179  1  0.90015741  0.78301273  0.92314081  1
