# generated using pymatgen
data_In2Te3
_symmetry_space_group_name_H-M   'P 1'
_cell_length_a   18.76468226
_cell_length_b   18.76514957
_cell_length_c   18.75493770
_cell_angle_alpha   89.95898444
_cell_angle_beta   90.02938850
_cell_angle_gamma   90.02224288
_symmetry_Int_Tables_number   1
_chemical_formula_structural   In2Te3
_chemical_formula_sum   'In72 Te108'
_cell_volume   6604.02441471
_cell_formula_units_Z   36
loop_
 _symmetry_equiv_pos_site_id
 _symmetry_equiv_pos_as_xyz
  1  'x, y, z'
loop_
 _atom_site_type_symbol
 _atom_site_label
 _atom_site_symmetry_multiplicity
 _atom_site_fract_x
 _atom_site_fract_y
 _atom_site_fract_z
 _atom_site_occupancy
  In  In0  1  0.35650217  0.47946262  0.80763345  1
  In  In1  1  0.28777874  0.64885847  0.01775708  1
  In  In2  1  0.70194972  0.67904974  0.65855622  1
  In  In3  1  0.50243720  0.49590121  0.33645768  1
  In  In4  1  -0.00729113  -0.00936364  0.65341534  1
  In  In5  1  0.01316504  0.65322080  0.32535577  1
  In  In6  1  0.32865919  0.82805190  0.49610332  1
  In  In7  1  0.49670956  0.03000281  0.47846916  1
  In  In8  1  0.13793221  0.32942943  0.81954923  1
  In  In9  1  0.15260544  0.84485640  0.34787651  1
  In  In10  1  0.30073560  0.51219198  0.14033967  1
  In  In11  1  -0.00401149  0.34609559  0.32507514  1
  In  In12  1  0.15842921  -0.01921933  0.84334574  1
  In  In13  1  0.15920001  0.16006129  0.62776274  1
  In  In14  1  0.65262306  0.16396733  0.19082548  1
  In  In15  1  0.68759049  0.00010762  0.34322527  1
  In  In16  1  0.52401027  0.83522686  0.66239638  1
  In  In17  1  0.15723249  0.66066617  0.48907171  1
  In  In18  1  0.01595933  0.33821646  0.67669742  1
  In  In19  1  0.49934001  0.85293262  0.00456540  1
  In  In20  1  0.16379328  -0.00153434  0.50013345  1
  In  In21  1  0.84716950  0.16518677  0.64805695  1
  In  In22  1  0.51155236  0.84449535  0.32798316  1
  In  In23  1  0.13720248  0.50372248  -0.01346948  1
  In  In24  1  0.34217492  0.15918517  0.80293877  1
  In  In25  1  0.50096923  0.69341122  0.18262234  1
  In  In26  1  0.69091696  0.49947690  0.16534692  1
  In  In27  1  0.51211565  0.36171123  0.81090813  1
  In  In28  1  0.83532262  0.50047557  0.33776971  1
  In  In29  1  0.13335614  0.65225631  0.82376642  1
  In  In30  1  0.48740879  0.50618131  0.65740987  1
  In  In31  1  0.15443020  0.36101543  0.15063632  1
  In  In32  1  0.67119610  0.33701504  0.67346097  1
  In  In33  1  -0.02097618  0.15909771  0.18438527  1
  In  In34  1  0.33757102  0.66715223  0.64808383  1
  In  In35  1  -0.02556017  0.81040232  0.85774011  1
  In  In36  1  0.69784287  0.65552709  0.00738110  1
  In  In37  1  0.31130211  0.83834603  0.85647527  1
  In  In38  1  0.50338288  0.67161526  0.83656493  1
  In  In39  1  0.69455125  0.83220131  0.81968967  1
  In  In40  1  0.00110393  0.50419237  0.49128097  1
  In  In41  1  0.83771866  0.33177580  0.50226411  1
  In  In42  1  0.51056859  0.17386587  0.00963220  1
  In  In43  1  0.84317466  0.83250483  0.34974861  1
  In  In44  1  0.83040557  0.34482568  0.17292527  1
  In  In45  1  0.50698030  0.64725046  0.52422206  1
  In  In46  1  0.33225702  0.33120600  -0.00196030  1
  In  In47  1  0.67527363  0.18183624  0.84204468  1
  In  In48  1  0.67529577  -0.01447870  0.62995408  1
  In  In49  1  0.67169556  -0.00989542  0.01360887  1
  In  In50  1  0.17899756  0.47039671  0.64218941  1
  In  In51  1  0.82343817  0.16644162  -0.01322952  1
  In  In52  1  0.33651788  -0.00899057  0.01489578  1
  In  In53  1  0.32968121  0.31774150  0.31962649  1
  In  In54  1  -0.00789243  0.17210822  0.83507928  1
  In  In55  1  0.32869546  0.01035454  0.67767515  1
  In  In56  1  0.50230517  0.30203881  0.17579970  1
  In  In57  1  0.69064215  0.50178517  0.83991479  1
  In  In58  1  0.82868692  0.00028263  0.84372470  1
  In  In59  1  -0.04405144  0.67899586  0.66162438  1
  In  In60  1  0.15795119  -0.00772060  0.17913587  1
  In  In61  1  0.83006919  0.15249032  0.33667234  1
  In  In62  1  0.31237975  0.66285532  0.33859898  1
  In  In63  1  0.17602070  0.16736421  0.35746502  1
  In  In64  1  0.86397653  -0.02892402  0.15049967  1
  In  In65  1  0.83751431  0.67965585  0.16173709  1
  In  In66  1  0.35684945  0.18409509  0.18636608  1
  In  In67  1  0.50688948  0.49795743  -0.01393106  1
  In  In68  1  0.50388303  0.29108911  0.49798143  1
  In  In69  1  0.14243940  0.16784439  -0.01109330  1
  In  In70  1  0.33280673  0.82862959  0.18931462  1
  In  In71  1  0.67863452  0.52181758  0.49884615  1
  Te  Te72  1  0.06763633  0.07779510  0.08663561  1
  Te  Te73  1  0.07377854  0.07539996  0.41059409  1
  Te  Te74  1  0.08805410  0.08526235  0.75251949  1
  Te  Te75  1  0.04641396  0.41884756  0.06859074  1
  Te  Te76  1  0.08987032  0.41210460  0.41835587  1
  Te  Te77  1  0.07149384  0.46016483  0.76880191  1
  Te  Te78  1  0.07685865  0.80162682  0.05965448  1
  Te  Te79  1  0.05795621  0.75906426  0.43073997  1
  Te  Te80  1  0.06241573  0.76009186  0.74101164  1
  Te  Te81  1  0.43051496  0.07871158  0.09800771  1
  Te  Te82  1  0.39603152  0.11213578  0.41021013  1
  Te  Te83  1  0.44633852  0.08088361  0.73474721  1
  Te  Te84  1  0.42050892  0.41370560  0.09099045  1
  Te  Te85  1  0.41902655  0.40032037  0.41593487  1
  Te  Te86  1  0.40147609  0.37593763  0.70121377  1
  Te  Te87  1  0.40330256  0.74826164  0.06835117  1
  Te  Te88  1  0.42385964  0.73673550  0.41729466  1
  Te  Te89  1  0.41147345  0.75889719  0.74883139  1
  Te  Te90  1  0.76390785  0.08410468  0.10574463  1
  Te  Te91  1  0.75305589  0.08645573  0.44482167  1
  Te  Te92  1  0.75181941  0.08348818  0.74136082  1
  Te  Te93  1  0.77857099  0.43500423  0.06670817  1
  Te  Te94  1  0.73971286  0.40953012  0.41302255  1
  Te  Te95  1  0.76762948  0.42979843  0.73531415  1
  Te  Te96  1  0.73788749  0.76771424  0.09379409  1
  Te  Te97  1  0.77117948  0.75400841  0.45710179  1
  Te  Te98  1  0.79042715  0.73441504  0.76427066  1
  Te  Te99  1  0.09132984  0.24711213  0.24253590  1
  Te  Te100  1  0.05905573  0.24906104  0.56657888  1
  Te  Te101  1  0.05014840  0.27679118  0.93329178  1
  Te  Te102  1  0.09735347  0.56464702  0.24553311  1
  Te  Te103  1  0.07659125  0.58753096  0.59970683  1
  Te  Te104  1  0.04165286  0.61394609  0.94108995  1
  Te  Te105  1  0.05756419  0.92254067  0.26374274  1
  Te  Te106  1  0.08746740  0.90191041  0.58264190  1
  Te  Te107  1  0.06551785  0.90898112  0.93640901  1
  Te  Te108  1  0.45965353  0.21276221  0.30796614  1
  Te  Te109  1  0.39366559  0.26323381  0.59177242  1
  Te  Te110  1  0.42502937  0.25315057  0.90646611  1
  Te  Te111  1  0.40755741  0.58290060  0.23922147  1
  Te  Te112  1  0.38564762  0.55730110  0.55397776  1
  Te  Te113  1  0.40087213  0.58869033  0.91804558  1
  Te  Te114  1  0.41446769  0.93032486  0.25631658  1
  Te  Te115  1  0.42093419  0.91552263  0.58208084  1
  Te  Te116  1  0.42201044  0.93414641  0.89962036  1
  Te  Te117  1  0.74551034  0.25960617  0.26739627  1
  Te  Te118  1  0.73664586  0.24131101  0.57265351  1
  Te  Te119  1  0.77379229  0.27541019  0.89997075  1
  Te  Te120  1  0.74842241  0.60092742  0.26270649  1
  Te  Te121  1  0.78108972  0.57266342  0.59221423  1
  Te  Te122  1  0.79021099  0.58414905  0.91535204  1
  Te  Te123  1  0.75997290  0.90678714  0.24365718  1
  Te  Te124  1  0.78040899  0.89542252  0.57278469  1
  Te  Te125  1  0.76768401  0.89729449  0.93899780  1
  Te  Te126  1  0.24532623  0.24088266  0.08461609  1
  Te  Te127  1  0.24507704  0.27453843  0.43816552  1
  Te  Te128  1  0.23251089  0.24278535  0.73771007  1
  Te  Te129  1  0.17334830  0.60097778  0.11343820  1
  Te  Te130  1  0.24221211  0.56143438  0.42039224  1
  Te  Te131  1  0.25383271  0.58158209  0.74470318  1
  Te  Te132  1  0.23653510  0.90003118  0.08332502  1
  Te  Te133  1  0.26694717  0.92888238  0.40209513  1
  Te  Te134  1  0.23733884  0.90267904  0.73825463  1
  Te  Te135  1  0.61507305  0.26140147  0.07713752  1
  Te  Te136  1  0.58873927  0.24793888  0.38632622  1
  Te  Te137  1  0.57478349  0.23989602  0.74201317  1
  Te  Te138  1  0.57650813  0.58867898  0.08815010  1
  Te  Te139  1  0.59063286  0.60163213  0.40235551  1
  Te  Te140  1  0.58830562  0.58392759  0.74462935  1
  Te  Te141  1  0.58065811  0.91996591  0.10692674  1
  Te  Te142  1  0.59258690  0.91683089  0.43398846  1
  Te  Te143  1  0.59640442  0.92916369  0.75644310  1
  Te  Te144  1  0.91162692  0.25065057  0.08335357  1
  Te  Te145  1  0.92706126  0.24403264  0.41522824  1
  Te  Te146  1  0.90225982  0.26232870  0.75178402  1
  Te  Te147  1  0.93619667  0.60877362  0.07618792  1
  Te  Te148  1  0.90615920  0.60287338  0.42486325  1
  Te  Te149  1  0.92379989  0.57517490  0.77275239  1
  Te  Te150  1  0.94484612  0.86231040  0.07479322  1
  Te  Te151  1  0.89486846  0.91661702  0.46553111  1
  Te  Te152  1  0.91086069  0.90962044  0.75325029  1
  Te  Te153  1  0.25447543  0.08759001  0.25247808  1
  Te  Te154  1  0.27562645  0.08935525  0.55770841  1
  Te  Te155  1  0.25441523  0.08717825  0.91894982  1
  Te  Te156  1  0.24143184  0.42744297  0.25640557  1
  Te  Te157  1  0.25263563  0.36496220  0.57250966  1
  Te  Te158  1  0.24642551  0.41949958  0.90920662  1
  Te  Te159  1  0.22017014  0.74666205  0.25094623  1
  Te  Te160  1  0.22997385  0.75591514  0.58691076  1
  Te  Te161  1  0.21228184  0.74468117  0.92144852  1
  Te  Te162  1  0.57744642  0.05665021  0.25794186  1
  Te  Te163  1  0.58643045  0.09241613  0.57941856  1
  Te  Te164  1  0.59002681  0.07952232  0.91944345  1
  Te  Te165  1  0.58869451  0.41297138  0.24226828  1
  Te  Te166  1  0.58309415  0.42169139  0.57176174  1
  Te  Te167  1  0.60628773  0.40144631  0.92419696  1
  Te  Te168  1  0.60969326  0.75781104  0.25815290  1
  Te  Te169  1  0.60852419  0.75576250  0.56420623  1
  Te  Te170  1  0.59442858  0.75576927  0.92330948  1
  Te  Te171  1  0.92283867  0.04764582  0.27378051  1
  Te  Te172  1  0.91907142  0.07458232  0.55410846  1
  Te  Te173  1  0.93055338  0.07111634  0.93260077  1
  Te  Te174  1  0.93034636  0.44806823  0.23232722  1
  Te  Te175  1  0.91746513  0.42453492  0.59190217  1
  Te  Te176  1  0.94162816  0.45202795  0.85142220  1
  Te  Te177  1  0.93533607  0.76083792  0.24937358  1
  Te  Te178  1  0.88689367  0.77270764  0.56061555  1
  Te  Te179  1  0.91632782  0.71956941  0.96586213  1
