# generated using pymatgen
data_In2Te3
_symmetry_space_group_name_H-M   'P 1'
_cell_length_a   18.82457988
_cell_length_b   18.82528935
_cell_length_c   18.83524394
_cell_angle_alpha   90.01024799
_cell_angle_beta   90.07858923
_cell_angle_gamma   90.10094889
_symmetry_Int_Tables_number   1
_chemical_formula_structural   In2Te3
_chemical_formula_sum   'In72 Te108'
_cell_volume   6674.78240020
_cell_formula_units_Z   36
loop_
 _symmetry_equiv_pos_site_id
 _symmetry_equiv_pos_as_xyz
  1  'x, y, z'
loop_
 _atom_site_type_symbol
 _atom_site_label
 _atom_site_symmetry_multiplicity
 _atom_site_fract_x
 _atom_site_fract_y
 _atom_site_fract_z
 _atom_site_occupancy
  In  In0  1  0.47788497  0.47008135  0.65765687  1
  In  In1  1  0.00789050  0.33707628  -0.00167196  1
  In  In2  1  0.69375543  0.89098183  0.52866569  1
  In  In3  1  0.82232907  0.00169688  0.15341570  1
  In  In4  1  0.53623493  0.30774668  0.84064234  1
  In  In5  1  -0.00182380  0.66334338  0.00381365  1
  In  In6  1  0.68537565  0.66682171  0.02285740  1
  In  In7  1  0.69357957  0.30335742  0.67280323  1
  In  In8  1  0.85352808  0.67612791  0.50243712  1
  In  In9  1  0.66225122  0.68043863  0.69000463  1
  In  In10  1  0.66351517  0.02112428  0.02648998  1
  In  In11  1  0.67741107  0.18021547  0.15662291  1
  In  In12  1  0.52990842  0.02719720  0.51381315  1
  In  In13  1  0.32563518  0.66581839  0.32484207  1
  In  In14  1  0.50904968  0.45090996  -0.03153891  1
  In  In15  1  0.30362525  0.65298094  0.66928005  1
  In  In16  1  0.16992209  0.85188329  0.66647458  1
  In  In17  1  -0.00552857  0.68227037  0.65755068  1
  In  In18  1  0.67027912  0.03098981  0.34539874  1
  In  In19  1  -0.00979802  0.81276038  0.15313190  1
  In  In20  1  -0.03590202  0.32077547  0.68947205  1
  In  In21  1  0.83161971  0.29722026  0.86963184  1
  In  In22  1  0.31493644  0.84338745  0.16989589  1
  In  In23  1  0.00522816  0.17715321  0.50074533  1
  In  In24  1  -0.01934520  0.48046272  0.51085578  1
  In  In25  1  0.15290084  0.49629264  0.00960928  1
  In  In26  1  0.31824748  0.50215208  0.81889154  1
  In  In27  1  0.50771366  0.17616881  0.31928865  1
  In  In28  1  -0.01384931  0.00447372  0.68640864  1
  In  In29  1  0.32735508  0.00104191  0.33960079  1
  In  In30  1  0.68165796  0.46676449  0.15969740  1
  In  In31  1  0.14294115  0.32819503  0.82912696  1
  In  In32  1  0.83952245  0.65557557  0.13105338  1
  In  In33  1  0.84555705  0.84302391  0.33348814  1
  In  In34  1  0.16490840  0.18503663  -0.01024114  1
  In  In35  1  0.51017739  0.00250699  0.84274989  1
  In  In36  1  0.35015510  0.14667363  0.15251307  1
  In  In37  1  0.18156343  0.32903011  0.50144287  1
  In  In38  1  0.83197217  0.69373006  0.85505587  1
  In  In39  1  0.15088264  0.67654587  0.50712407  1
  In  In40  1  0.00053267  0.03900747  0.33609808  1
  In  In41  1  0.16544432  0.00413797  0.15083421  1
  In  In42  1  0.34334218  0.48309140  0.49662574  1
  In  In43  1  0.66471386  0.85753362  0.81687799  1
  In  In44  1  0.31770369  0.04259943  0.63813164  1
  In  In45  1  0.12876914  -0.00632401  0.83900607  1
  In  In46  1  -0.00255812  0.17718865  0.16853846  1
  In  In47  1  0.51950117  0.30807540  0.50521460  1
  In  In48  1  0.35100110  0.32052858  0.00660008  1
  In  In49  1  -0.00315815  0.31295746  0.33588854  1
  In  In50  1  0.48130217  0.65771081  0.84877429  1
  In  In51  1  0.33362160  0.16457480  0.84566918  1
  In  In52  1  0.51692449  0.84471890  -0.01458780  1
  In  In53  1  0.84066438  0.49746362  0.00344115  1
  In  In54  1  0.49117294  0.84684611  0.31132893  1
  In  In55  1  0.34359690  0.84868267  0.84800602  1
  In  In56  1  0.32088375  0.47703009  0.16353259  1
  In  In57  1  0.84859867  0.83411586  -0.00530296  1
  In  In58  1  0.29936952  0.68405536  -0.00740140  1
  In  In59  1  0.49222749  0.65021338  0.15795826  1
  In  In60  1  0.62864864  0.46221625  0.85403168  1
  In  In61  1  0.71418553  0.47429539  0.49123224  1
  In  In62  1  0.83611157  0.47377657  0.32996155  1
  In  In63  1  0.32751751  0.31070427  0.64411273  1
  In  In64  1  0.14627094  0.51317986  0.29855579  1
  In  In65  1  0.66637498  0.65992051  0.34665706  1
  In  In66  1  0.50124881  0.86110355  0.66986563  1
  In  In67  1  0.49570133  0.69628717  0.47133139  1
  In  In68  1  0.16425259  0.85250883  0.33243389  1
  In  In69  1  0.00634114  0.85953154  0.49279139  1
  In  In70  1  0.84518892  0.49126768  0.67257401  1
  In  In71  1  0.52757527  0.45964614  0.33773478  1
  Te  Te72  1  0.07183885  0.09026032  0.06702587  1
  Te  Te73  1  0.10698723  0.09524505  0.42537493  1
  Te  Te74  1  0.08853299  0.09665415  0.74284065  1
  Te  Te75  1  0.10537004  0.38766988  0.09686495  1
  Te  Te76  1  0.08695366  0.42081842  0.41835771  1
  Te  Te77  1  0.06160397  0.41731431  0.74507066  1
  Te  Te78  1  0.09597494  0.74934831  0.07402743  1
  Te  Te79  1  0.06828863  0.75156029  0.40470410  1
  Te  Te80  1  0.07166178  0.77442255  0.74369036  1
  Te  Te81  1  0.42124182  0.08074814  0.04275739  1
  Te  Te82  1  0.42874047  0.08784286  0.41614348  1
  Te  Te83  1  0.41869318  0.08239395  0.74977924  1
  Te  Te84  1  0.43743082  0.40584002  0.10015125  1
  Te  Te85  1  0.41901659  0.38158326  0.41319049  1
  Te  Te86  1  0.41974689  0.39006476  0.77313606  1
  Te  Te87  1  0.41714000  0.75321052  0.07395233  1
  Te  Te88  1  0.38855537  0.78155137  0.40368541  1
  Te  Te89  1  0.41800207  0.75023099  0.74555101  1
  Te  Te90  1  0.79219843  0.11571772  0.05220840  1
  Te  Te91  1  0.74963813  0.12740750  0.42450114  1
  Te  Te92  1  0.80760960  0.06066408  0.73852992  1
  Te  Te93  1  0.79213338  0.38908862  0.09538961  1
  Te  Te94  1  0.74313895  0.36963791  0.38804091  1
  Te  Te95  1  0.74955787  0.41432698  0.76479803  1
  Te  Te96  1  0.75165135  0.77722901  0.10187139  1
  Te  Te97  1  0.74675614  0.76035648  0.42931175  1
  Te  Te98  1  0.76976292  0.77831262  0.74030371  1
  Te  Te99  1  0.09653332  0.22709170  0.26766086  1
  Te  Te100  1  0.07925075  0.26966263  0.59697236  1
  Te  Te101  1  0.05093949  0.22765342  0.89788226  1
  Te  Te102  1  0.05551671  0.59068310  0.21739596  1
  Te  Te103  1  0.07563587  0.57245357  0.58991304  1
  Te  Te104  1  0.07484486  0.57555003  0.91315520  1
  Te  Te105  1  0.05906826  0.92631663  0.24743875  1
  Te  Te106  1  0.09026385  0.94866267  0.58141665  1
  Te  Te107  1  0.04305490  0.91027135  0.92317099  1
  Te  Te108  1  0.41022049  0.25138135  0.23802793  1
  Te  Te109  1  0.43512727  0.22430271  0.59457885  1
  Te  Te110  1  0.44548533  0.22079405  0.93770582  1
  Te  Te111  1  0.43094762  0.56806334  0.27184840  1
  Te  Te112  1  0.41936750  0.59254958  0.58188934  1
  Te  Te113  1  0.39936597  0.56848915  0.93950554  1
  Te  Te114  1  0.41458085  0.94462081  0.22415433  1
  Te  Te115  1  0.41530203  0.93927667  0.57369724  1
  Te  Te116  1  0.40955237  0.95158152  0.95170758  1
  Te  Te117  1  0.72930155  0.27483294  0.25859813  1
  Te  Te118  1  0.73671046  0.21434566  0.55967785  1
  Te  Te119  1  0.70015537  0.22790903  0.88587541  1
  Te  Te120  1  0.74582280  0.57919082  0.24397467  1
  Te  Te121  1  0.75420762  0.59481292  0.59267819  1
  Te  Te122  1  0.74269786  0.57636657  0.90970888  1
  Te  Te123  1  0.74146033  0.92399980  0.25893539  1
  Te  Te124  1  0.78592298  0.97884295  0.60658687  1
  Te  Te125  1  0.73873086  0.92201053  0.93162842  1
  Te  Te126  1  0.24750602  0.25417651  0.09551513  1
  Te  Te127  1  0.28471716  0.23417862  0.45703162  1
  Te  Te128  1  0.24249861  0.24091702  0.74968025  1
  Te  Te129  1  0.24168778  0.58743796  0.09720647  1
  Te  Te130  1  0.24680394  0.58246363  0.42670581  1
  Te  Te131  1  0.21501524  0.59567543  0.77115542  1
  Te  Te132  1  0.23232381  0.90503129  0.06531133  1
  Te  Te133  1  0.23917779  0.92836157  0.43302993  1
  Te  Te134  1  0.26933389  0.93749967  0.74734034  1
  Te  Te135  1  0.58142755  0.24305779  0.06434042  1
  Te  Te136  1  0.61112212  0.22438039  0.41985392  1
  Te  Te137  1  0.57862241  0.22148681  0.72350275  1
  Te  Te138  1  0.58410362  0.56205896  0.07252281  1
  Te  Te139  1  0.58728932  0.56407288  0.43596525  1
  Te  Te140  1  0.56702892  0.57156918  0.74979402  1
  Te  Te141  1  0.59281635  0.90886007  0.09331446  1
  Te  Te142  1  0.58193762  0.91373020  0.41464796  1
  Te  Te143  1  0.60374659  0.95949732  0.72405069  1
  Te  Te144  1  0.90811084  0.25801249  0.07788028  1
  Te  Te145  1  0.89897049  0.22509807  0.40590196  1
  Te  Te146  1  0.87935256  0.21425631  0.75312337  1
  Te  Te147  1  0.95104453  0.54965349  0.10837478  1
  Te  Te148  1  0.92075911  0.57827368  0.40979771  1
  Te  Te149  1  0.90951388  0.60067734  0.75581382  1
  Te  Te150  1  0.93495554  0.93319238  0.07531281  1
  Te  Te151  1  0.90606422  0.95056298  0.42051433  1
  Te  Te152  1  0.90837829  0.96517584  0.81893089  1
  Te  Te153  1  0.24032875  0.08943133  0.25110794  1
  Te  Te154  1  0.23105170  0.12025462  0.54126005  1
  Te  Te155  1  0.23804827  0.07280405  0.91973088  1
  Te  Te156  1  0.25093194  0.41213333  0.27460138  1
  Te  Te157  1  0.24810964  0.43265623  0.60355299  1
  Te  Te158  1  0.25149366  0.39997061  0.91971151  1
  Te  Te159  1  0.22490667  0.74389282  0.24240670  1
  Te  Te160  1  0.25650310  0.76310089  0.57572029  1
  Te  Te161  1  0.23159686  0.76221602  0.88897683  1
  Te  Te162  1  0.58521620  0.08047335  0.22880293  1
  Te  Te163  1  0.62044724  0.11435404  0.59387493  1
  Te  Te164  1  0.61661262  0.09242013  0.90134493  1
  Te  Te165  1  0.59781510  0.36970195  0.23955957  1
  Te  Te166  1  0.60352342  0.41207237  0.59261766  1
  Te  Te167  1  0.63655616  0.35495233  0.97279599  1
  Te  Te168  1  0.58032501  0.73984638  0.24703173  1
  Te  Te169  1  0.58692393  0.76344068  0.58521075  1
  Te  Te170  1  0.60211043  0.73764150  0.90515690  1
  Te  Te171  1  0.89023416  0.10012767  0.24862631  1
  Te  Te172  1  0.91442791  0.08107149  0.57681758  1
  Te  Te173  1  0.86224552  0.06288219  0.92154490  1
  Te  Te174  1  0.92543052  0.40092164  0.23954666  1
  Te  Te175  1  0.88194742  0.38279671  0.57096229  1
  Te  Te176  1  0.92021044  0.41855273  0.90090539  1
  Te  Te177  1  0.90633191  0.73210680  0.25179585  1
  Te  Te178  1  0.90917388  0.78953483  0.58769527  1
  Te  Te179  1  0.95522405  0.77805846  0.89603089  1
