# generated using pymatgen
data_In2Te3
_symmetry_space_group_name_H-M   'P 1'
_cell_length_a   18.97340066
_cell_length_b   18.97363147
_cell_length_c   18.99170855
_cell_angle_alpha   89.90530973
_cell_angle_beta   89.98831348
_cell_angle_gamma   89.78668270
_symmetry_Int_Tables_number   1
_chemical_formula_structural   In2Te3
_chemical_formula_sum   'In72 Te108'
_cell_volume   6836.85019456
_cell_formula_units_Z   36
loop_
 _symmetry_equiv_pos_site_id
 _symmetry_equiv_pos_as_xyz
  1  'x, y, z'
loop_
 _atom_site_type_symbol
 _atom_site_label
 _atom_site_symmetry_multiplicity
 _atom_site_fract_x
 _atom_site_fract_y
 _atom_site_fract_z
 _atom_site_occupancy
  In  In0  1  -0.02028151  0.70070076  0.64446675  1
  In  In1  1  0.83578250  0.14699619  0.30650091  1
  In  In2  1  0.66007013  0.52981400  0.50715934  1
  In  In3  1  0.64471086  0.83262413  0.49074979  1
  In  In4  1  0.68536387  0.50733820  0.83395873  1
  In  In5  1  0.17823420  0.50019951  0.00944409  1
  In  In6  1  0.17795321  0.69603356  0.49885740  1
  In  In7  1  0.66925335  -0.01207247  0.64623518  1
  In  In8  1  0.83270827  0.35074591  0.51399389  1
  In  In9  1  0.16236023  0.15043236  0.67837005  1
  In  In10  1  0.19337056  0.15368206  -0.01006470  1
  In  In11  1  0.16640388  0.35832202  0.49670094  1
  In  In12  1  0.50684096  0.28157779  0.15699511  1
  In  In13  1  0.49206014  0.02841057  0.14161445  1
  In  In14  1  0.33024634  0.70543162  0.33823599  1
  In  In15  1  0.17062249  0.86978204  0.67882407  1
  In  In16  1  0.82150813  0.15572140  -0.00534406  1
  In  In17  1  0.36279254  0.80565582  0.14595900  1
  In  In18  1  -0.01683454  0.18259872  0.51729638  1
  In  In19  1  0.52910267  0.17192569  0.65389732  1
  In  In20  1  0.29784644  0.31912772  0.65894258  1
  In  In21  1  0.17848071  -0.01274371  0.15428451  1
  In  In22  1  -0.01460033  0.84664047  0.85120462  1
  In  In23  1  0.84136818  0.51638032  0.34022797  1
  In  In24  1  0.51936528  0.66180746  0.85604924  1
  In  In25  1  0.15213609  0.67005597  0.84619581  1
  In  In26  1  0.31937891  -0.01727275  0.33889606  1
  In  In27  1  0.33733219  0.32559959  0.00332108  1
  In  In28  1  0.17691095  0.31519538  0.85093851  1
  In  In29  1  0.34910755  0.15566816  0.47035546  1
  In  In30  1  0.35580960  0.33156196  0.30667970  1
  In  In31  1  0.49256308  0.33018731  0.85227895  1
  In  In32  1  0.63297950  0.51438915  0.14145560  1
  In  In33  1  0.81609269  0.00492907  0.81768182  1
  In  In34  1  0.66606251  0.33205266  -0.01626353  1
  In  In35  1  0.33602705  0.84240098  0.85426673  1
  In  In36  1  0.67863252  0.82658203  0.82349336  1
  In  In37  1  0.15686862  0.15661330  0.34196172  1
  In  In38  1  0.13253567  0.84724757  0.35316009  1
  In  In39  1  0.14898779  0.01945000  0.50385638  1
  In  In40  1  -0.00148651  -0.01989525  0.01611880  1
  In  In41  1  0.01606915  0.33631080  0.35273979  1
  In  In42  1  0.34875061  0.49988891  0.17689011  1
  In  In43  1  0.83125931  0.67206689  0.83624629  1
  In  In44  1  -0.00351763  0.82188799  0.20015722  1
  In  In45  1  0.68749777  0.13659787  0.46946116  1
  In  In46  1  -0.09393348  0.34922882  0.70639780  1
  In  In47  1  0.35782414  0.67442554  0.66908343  1
  In  In48  1  0.16358764  0.82807469  0.01081001  1
  In  In49  1  0.52175071  0.32864895  0.48574635  1
  In  In50  1  0.81690130  0.32854423  0.15937275  1
  In  In51  1  0.82013908  -0.04034296  0.18115889  1
  In  In52  1  0.80350347  0.69462042  0.47784314  1
  In  In53  1  0.16196987  0.34551494  0.19464477  1
  In  In54  1  0.01845657  0.49841489  0.83471777  1
  In  In55  1  0.50574821  0.82263673  0.32737368  1
  In  In56  1  0.36740276  0.52236119  0.81647592  1
  In  In57  1  -0.01190179  0.00801075  0.66654569  1
  In  In58  1  0.67720824  0.30787256  0.33304384  1
  In  In59  1  0.66265958  -0.02432372  -0.00353324  1
  In  In60  1  0.69042718  0.34367349  0.67968452  1
  In  In61  1  0.69805514  0.14916762  0.84795899  1
  In  In62  1  0.37340573  -0.02830194  0.65059581  1
  In  In63  1  -0.03138973  0.52927701  0.16718535  1
  In  In64  1  0.52297057  0.50915095  0.32089145  1
  In  In65  1  0.16151980  0.65878596  0.18959833  1
  In  In66  1  -0.00986443  0.33405736  -0.00282743  1
  In  In67  1  0.47944471  -0.01145096  0.84847993  1
  In  In68  1  0.79757141  0.68507346  0.15367337  1
  In  In69  1  0.49904683  0.52041389  0.68617980  1
  In  In70  1  0.15764060  0.49435215  0.66007884  1
  In  In71  1  0.67787050  0.69065664  0.33701650  1
  Te  Te72  1  0.08990878  0.08397692  0.07844856  1
  Te  Te73  1  0.04542074  0.08492398  0.41482276  1
  Te  Te74  1  0.07141223  0.07708584  0.76415699  1
  Te  Te75  1  0.07702106  0.42465462  0.09466015  1
  Te  Te76  1  0.07007923  0.44637785  0.43101868  1
  Te  Te77  1  0.09092226  0.39240499  0.75144450  1
  Te  Te78  1  0.07416075  0.74121768  0.09545279  1
  Te  Te79  1  0.06285614  0.72108531  0.40207952  1
  Te  Te80  1  0.08266162  0.76583886  0.75111389  1
  Te  Te81  1  0.40329455  0.10546769  0.04885935  1
  Te  Te82  1  0.42118858  0.03628072  0.43075796  1
  Te  Te83  1  0.43443010  0.08411559  0.73304003  1
  Te  Te84  1  0.42922681  0.40257483  0.09391567  1
  Te  Te85  1  0.43122430  0.41946493  0.40491483  1
  Te  Te86  1  0.40659956  0.39226306  0.74180155  1
  Te  Te87  1  0.45398273  0.73224336  0.05689602  1
  Te  Te88  1  0.40870909  0.78669952  0.43521465  1
  Te  Te89  1  0.43166233  0.75404942  0.77187934  1
  Te  Te90  1  0.74871191  0.06123794  0.08700516  1
  Te  Te91  1  0.79309223  0.05281827  0.41155611  1
  Te  Te92  1  0.75173326  0.10173315  0.71490144  1
  Te  Te93  1  0.74171919  0.42800840  0.07337767  1
  Te  Te94  1  0.73168902  0.42439831  0.41500116  1
  Te  Te95  1  0.78373783  0.44426405  0.73732683  1
  Te  Te96  1  0.69110059  0.78756754  0.13781729  1
  Te  Te97  1  0.78513860  0.79913823  0.35155336  1
  Te  Te98  1  0.76156753  0.74855123  0.73179932  1
  Te  Te99  1  0.06911381  0.23878399  0.24858754  1
  Te  Te100  1  0.09837637  0.25140703  0.58441955  1
  Te  Te101  1  0.07435858  0.23307286  0.92204160  1
  Te  Te102  1  0.06862939  0.57248090  0.26316692  1
  Te  Te103  1  0.08837711  0.60793200  0.58877713  1
  Te  Te104  1  0.07320830  0.58896164  0.94538713  1
  Te  Te105  1  0.07061744  0.94450734  0.25082488  1
  Te  Te106  1  0.07014536  0.90890442  0.57385312  1
  Te  Te107  1  0.09931207  0.92509076  0.91411232  1
  Te  Te108  1  0.41526942  0.20644359  0.25053631  1
  Te  Te109  1  0.41693149  0.25366037  0.57658751  1
  Te  Te110  1  0.42427046  0.22667829  0.93364782  1
  Te  Te111  1  0.41923543  0.60208221  0.26150087  1
  Te  Te112  1  0.42672957  0.58510372  0.57695739  1
  Te  Te113  1  0.42687698  0.57780740  0.93893570  1
  Te  Te114  1  0.41422924  0.91583531  0.23785611  1
  Te  Te115  1  0.44767095  0.86388664  0.58021848  1
  Te  Te116  1  0.45293878  0.87492942  0.93903743  1
  Te  Te117  1  0.73185565  0.22037573  0.22288078  1
  Te  Te118  1  0.72641235  0.25530457  0.56215339  1
  Te  Te119  1  0.78015770  0.26937073  0.89556563  1
  Te  Te120  1  0.73006239  0.56784160  0.25074698  1
  Te  Te121  1  0.75774718  0.60283983  0.58521579  1
  Te  Te122  1  0.72805014  0.61208000  0.93100537  1
  Te  Te123  1  0.71433261  0.91267116  0.27569136  1
  Te  Te124  1  0.75319898  0.90142082  0.56251412  1
  Te  Te125  1  0.76949064  0.90287149  0.92008914  1
  Te  Te126  1  0.23750088  0.25962311  0.09487720  1
  Te  Te127  1  0.25127300  0.26124052  0.40856043  1
  Te  Te128  1  0.26371493  0.22141633  0.76972480  1
  Te  Te129  1  0.26167839  0.59287470  0.09360409  1
  Te  Te130  1  0.25566810  0.60561973  0.41419901  1
  Te  Te131  1  0.24258846  0.58581695  0.75425275  1
  Te  Te132  1  0.27607869  0.91140608  0.06868421  1
  Te  Te133  1  0.23699622  0.91135442  0.44368013  1
  Te  Te134  1  0.27118723  0.94534808  0.76090130  1
  Te  Te135  1  0.59642724  0.22589923  0.05550637  1
  Te  Te136  1  0.57245424  0.21804424  0.39712861  1
  Te  Te137  1  0.59613984  0.25674655  0.76452649  1
  Te  Te138  1  0.52814117  0.59643504  0.07971974  1
  Te  Te139  1  0.57263020  0.61447342  0.41887120  1
  Te  Te140  1  0.60791188  0.60326804  0.74368494  1
  Te  Te141  1  0.58125067  0.91451594  0.10455479  1
  Te  Te142  1  0.59561103  0.92704419  0.38582475  1
  Te  Te143  1  0.58656179  0.92609410  0.75532603  1
  Te  Te144  1  0.91301797  0.23786544  0.08520257  1
  Te  Te145  1  0.89510823  0.25876953  0.40757461  1
  Te  Te146  1  0.86995476  0.22171318  0.76059359  1
  Te  Te147  1  0.88319501  0.59756295  0.07197027  1
  Te  Te148  1  0.90655613  0.59228143  0.44464742  1
  Te  Te149  1  0.94008862  0.59953421  0.75136315  1
  Te  Te150  1  0.91080990  0.87983705  0.08739196  1
  Te  Te151  1  0.99660077  0.85654795  0.42352401  1
  Te  Te152  1  0.90201291  0.90630454  0.73990330  1
  Te  Te153  1  0.25091295  0.08386913  0.24794731  1
  Te  Te154  1  0.26206308  0.08645951  0.58086305  1
  Te  Te155  1  0.29944884  0.06221957  0.94769331  1
  Te  Te156  1  0.24994372  0.43759130  0.27460481  1
  Te  Te157  1  0.26975610  0.44060656  0.57201711  1
  Te  Te158  1  0.26221312  0.42825104  0.90514395  1
  Te  Te159  1  0.23820378  0.78021627  0.24166485  1
  Te  Te160  1  0.25832602  0.76962990  0.60544498  1
  Te  Te161  1  0.25687911  0.73674244  0.93080610  1
  Te  Te162  1  0.53963314  0.11059514  0.25255475  1
  Te  Te163  1  0.57869411  0.06994300  0.55495445  1
  Te  Te164  1  0.58439426  0.07772069  0.91563233  1
  Te  Te165  1  0.58616047  0.39202748  0.23973100  1
  Te  Te166  1  0.58143966  0.41874554  0.59345841  1
  Te  Te167  1  0.57730850  0.43628734  0.91631783  1
  Te  Te168  1  0.57972223  0.73315317  0.22994733  1
  Te  Te169  1  0.56066346  0.76141362  0.58490002  1
  Te  Te170  1  0.62583909  0.73549681  0.93120490  1
  Te  Te171  1  0.91663824  0.06542665  0.21594097  1
  Te  Te172  1  0.89851207  0.07722736  0.57193080  1
  Te  Te173  1  0.91561821  0.06421315  0.91927770  1
  Te  Te174  1  0.90988506  0.40491991  0.25190485  1
  Te  Te175  1  0.93586238  0.42443955  0.58560260  1
  Te  Te176  1  0.91662910  0.42827154  0.91379730  1
  Te  Te177  1  0.89668410  0.72705659  0.25810395  1
  Te  Te178  1  0.90475926  0.78435616  0.54603655  1
  Te  Te179  1  0.91572831  0.74750525  0.93094821  1
