# generated using pymatgen
data_In2Te3
_symmetry_space_group_name_H-M   'P 1'
_cell_length_a   18.97409950
_cell_length_b   18.97823565
_cell_length_c   18.99534146
_cell_angle_alpha   89.94595676
_cell_angle_beta   90.03921967
_cell_angle_gamma   90.00075619
_symmetry_Int_Tables_number   1
_chemical_formula_structural   In2Te3
_chemical_formula_sum   'In72 Te108'
_cell_volume   6840.12153569
_cell_formula_units_Z   36
loop_
 _symmetry_equiv_pos_site_id
 _symmetry_equiv_pos_as_xyz
  1  'x, y, z'
loop_
 _atom_site_type_symbol
 _atom_site_label
 _atom_site_symmetry_multiplicity
 _atom_site_fract_x
 _atom_site_fract_y
 _atom_site_fract_z
 _atom_site_occupancy
  In  In0  1  0.17980634  0.66341972  0.51203543  1
  In  In1  1  0.83950037  0.50654697  0.32322209  1
  In  In2  1  0.64448301  0.19569816  0.17391469  1
  In  In3  1  0.47708596  0.19230970  0.67737819  1
  In  In4  1  0.47084953  0.85463053  0.00983427  1
  In  In5  1  0.82558186  0.17531503  0.32077093  1
  In  In6  1  0.49041377  0.32242181  0.84908437  1
  In  In7  1  0.15408853  0.50027610  0.69702787  1
  In  In8  1  0.14248086  0.68895608  0.83375266  1
  In  In9  1  0.16428648  0.33500298  0.17161901  1
  In  In10  1  0.17576748  0.02090877  0.19186613  1
  In  In11  1  0.17281560  0.31893176  0.49977538  1
  In  In12  1  0.67173513  0.66625046  0.64643992  1
  In  In13  1  0.32838921  0.84670339  0.50206142  1
  In  In14  1  0.79877085  0.50238618  0.01817603  1
  In  In15  1  0.32982036  0.34223153  0.65611177  1
  In  In16  1  0.48414276  0.20638000  0.31993754  1
  In  In17  1  0.18878077  0.49205385  0.31252370  1
  In  In18  1  0.00995939  0.32441989  -0.00974470  1
  In  In19  1  0.49590288  -0.01665438  0.82275065  1
  In  In20  1  0.16892446  0.17863781  0.67294795  1
  In  In21  1  0.66994072  0.81982147  0.16928928  1
  In  In22  1  0.52126600  0.49737502  0.65093458  1
  In  In23  1  0.36031998  0.02257461  0.32219425  1
  In  In24  1  0.18230434  0.02284782  0.52608146  1
  In  In25  1  0.82285175  0.67691721  0.48952468  1
  In  In26  1  0.00513478  0.49062777  0.52334356  1
  In  In27  1  0.68249685  0.48225521  0.84158702  1
  In  In28  1  -0.02318873  0.33579440  0.34399816  1
  In  In29  1  0.48630295  0.65326627  0.47672211  1
  In  In30  1  0.30038037  0.65610003  -0.00828111  1
  In  In31  1  0.69156850  0.01832125  0.64696249  1
  In  In32  1  0.84653596  0.85407490  0.67934675  1
  In  In33  1  0.04784199  -0.03360879  0.68313835  1
  In  In34  1  0.83469214  0.16999459  -0.00855194  1
  In  In35  1  0.64018240  0.34520365  0.02761695  1
  In  In36  1  0.01392658  0.00300970  0.32999126  1
  In  In37  1  0.32379067  0.50222545  0.84343423  1
  In  In38  1  0.63783580  0.16140496  0.83509234  1
  In  In39  1  0.48624932  0.04304408  0.14688097  1
  In  In40  1  -0.00338743  0.64474605  0.02354426  1
  In  In41  1  0.69201778  -0.00002274  0.00798720  1
  In  In42  1  0.85945835  0.01242952  0.83696339  1
  In  In43  1  0.48162699  -0.01193998  0.50348003  1
  In  In44  1  0.18538129  0.16582575  0.35067569  1
  In  In45  1  0.63822726  0.81381642  0.83723136  1
  In  In46  1  0.67091583  0.48745055  0.50702988  1
  In  In47  1  -0.01658415  0.83132405  0.49894242  1
  In  In48  1  0.00115057  0.17817066  0.14790718  1
  In  In49  1  0.49101653  0.65367354  0.85644907  1
  In  In50  1  0.28603443  -0.00237757  -0.05966378  1
  In  In51  1  0.87537673  0.17837096  0.65831432  1
  In  In52  1  0.83923318  0.01354123  0.49903792  1
  In  In53  1  0.18013436  0.48056354  0.01785351  1
  In  In54  1  0.82610166  0.32598237  0.82459774  1
  In  In55  1  0.35310247  0.48463283  0.47683935  1
  In  In56  1  0.52904467  0.83078387  0.33130742  1
  In  In57  1  0.52976290  0.53921011  0.20043656  1
  In  In58  1  0.64887219  0.17539180  0.48710941  1
  In  In59  1  0.67412917  0.67170251  0.31881034  1
  In  In60  1  0.33804406  0.33311175  0.00537844  1
  In  In61  1  0.32152244  0.83808827  0.16475068  1
  In  In62  1  -0.02069241  0.68015304  0.30148109  1
  In  In63  1  0.84069729  0.83135927  -0.00873330  1
  In  In64  1  0.83392065  0.33350367  0.50283434  1
  In  In65  1  0.16580863  0.66000177  0.16175062  1
  In  In66  1  0.49666699  0.80407054  0.67245949  1
  In  In67  1  -0.00457796  0.48978026  0.83071427  1
  In  In68  1  0.17392935  0.83167508  0.33756727  1
  In  In69  1  0.85043460  0.65266072  0.83815264  1
  In  In70  1  0.29658510  0.01325458  0.70406265  1
  In  In71  1  0.85935195  -0.09185009  0.17754521  1
  Te  Te72  1  0.10219702  0.09185909  0.08455899  1
  Te  Te73  1  0.08207881  0.09013623  0.43332881  1
  Te  Te74  1  0.08815155  0.08784638  0.76249127  1
  Te  Te75  1  0.06491523  0.42097815  0.09456524  1
  Te  Te76  1  0.08781720  0.42293525  0.41163917  1
  Te  Te77  1  0.08068510  0.39211074  0.76184317  1
  Te  Te78  1  0.09076892  0.74925283  0.07189666  1
  Te  Te79  1  0.07797423  0.73835957  0.41000195  1
  Te  Te80  1  0.10276823  0.79041978  0.73557985  1
  Te  Te81  1  0.37846581  0.05558447  0.05063322  1
  Te  Te82  1  0.42724667  0.10625499  0.42701856  1
  Te  Te83  1  0.40706720  0.09517833  0.77167809  1
  Te  Te84  1  0.42587486  0.40262900  0.10531786  1
  Te  Te85  1  0.44451453  0.43484074  0.37109733  1
  Te  Te86  1  0.42313053  0.43071328  0.75286660  1
  Te  Te87  1  0.39764204  0.74096624  0.07799582  1
  Te  Te88  1  0.41250913  0.76519213  0.40550625  1
  Te  Te89  1  0.40926246  0.73900014  0.76894967  1
  Te  Te90  1  0.74766673  0.10573022  0.09725754  1
  Te  Te91  1  0.74023760  0.08351191  0.40833681  1
  Te  Te92  1  0.75493484  0.09716618  0.76052556  1
  Te  Te93  1  0.71401801  0.43503085  0.12392465  1
  Te  Te94  1  0.75146155  0.41200245  0.40340474  1
  Te  Te95  1  0.75384261  0.41597066  0.73440728  1
  Te  Te96  1  0.74336629  0.75050969  0.06397920  1
  Te  Te97  1  0.75249792  0.76583310  0.39906429  1
  Te  Te98  1  0.74928683  0.75079193  0.74796207  1
  Te  Te99  1  0.07962782  0.24257833  0.26875078  1
  Te  Te100  1  0.07669862  0.24364603  0.57821277  1
  Te  Te101  1  0.11593725  0.22647244  0.95803951  1
  Te  Te102  1  0.07458119  0.57617773  0.24856703  1
  Te  Te103  1  0.07962585  0.59626384  0.60317408  1
  Te  Te104  1  0.09002867  0.56771295  0.92459672  1
  Te  Te105  1  0.08563596  0.90513928  0.23953341  1
  Te  Te106  1  0.10531716  0.89578304  0.56103019  1
  Te  Te107  1  0.14963913  0.96910392  0.87350937  1
  Te  Te108  1  0.44243342  0.26422979  0.18611407  1
  Te  Te109  1  0.43430649  0.28448413  0.56968662  1
  Te  Te110  1  0.40238834  0.23135325  0.91992449  1
  Te  Te111  1  0.41548332  0.55703346  0.29077096  1
  Te  Te112  1  0.41217703  0.57915964  0.58506052  1
  Te  Te113  1  0.41337015  0.56211002  0.94916702  1
  Te  Te114  1  0.42994472  0.91671425  0.23979336  1
  Te  Te115  1  0.40326585  0.92337937  0.61673598  1
  Te  Te116  1  0.39334754  0.89383189  0.88755538  1
  Te  Te117  1  0.74100885  0.27348995  0.25258286  1
  Te  Te118  1  0.75518228  0.23225354  0.58563644  1
  Te  Te119  1  0.72464410  0.25784958  0.92332216  1
  Te  Te120  1  0.78004623  0.61036413  0.23458313  1
  Te  Te121  1  0.77002212  0.56959404  0.58532834  1
  Te  Te122  1  0.73557542  0.60029593  0.91965088  1
  Te  Te123  1  0.73032955  0.93306899  0.23863696  1
  Te  Te124  1  0.75528442  0.90583546  0.56934620  1
  Te  Te125  1  0.74316395  0.91641068  0.89107482  1
  Te  Te126  1  0.23216157  0.24822653  0.07183652  1
  Te  Te127  1  0.27588906  0.26829065  0.40800037  1
  Te  Te128  1  0.25132729  0.26933221  0.75438137  1
  Te  Te129  1  0.26748828  0.55968059  0.11021105  1
  Te  Te130  1  0.26037459  0.58578724  0.40946969  1
  Te  Te131  1  0.24762012  0.60153562  0.76051783  1
  Te  Te132  1  0.24512231  0.93671362  0.08301765  1
  Te  Te133  1  0.25355957  0.94694341  0.40209064  1
  Te  Te134  1  0.21667320  0.89604200  0.75075815  1
  Te  Te135  1  0.55437010  0.22855582  0.05975920  1
  Te  Te136  1  0.59611557  0.27136662  0.39011033  1
  Te  Te137  1  0.58855196  0.27169179  0.74445393  1
  Te  Te138  1  0.62064066  0.54942346  0.08688569  1
  Te  Te139  1  0.59714408  0.57643114  0.40936328  1
  Te  Te140  1  0.58985784  0.59189400  0.75093748  1
  Te  Te141  1  0.58130861  0.92681346  0.08737538  1
  Te  Te142  1  0.58715241  0.92546877  0.42604646  1
  Te  Te143  1  0.59758503  0.91841737  0.72733113  1
  Te  Te144  1  0.90028937  0.27183405  0.08323681  1
  Te  Te145  1  0.91623435  0.22781148  0.43047824  1
  Te  Te146  1  0.93167762  0.23582147  0.77944714  1
  Te  Te147  1  0.88461786  0.58987498  0.10388246  1
  Te  Te148  1  0.92691698  0.58239909  0.42536087  1
  Te  Te149  1  0.92518334  0.57973326  0.73818115  1
  Te  Te150  1  0.91975849  0.94269922  0.04875807  1
  Te  Te151  1  0.90938225  0.91893825  0.40162285  1
  Te  Te152  1  0.94724901  0.90249543  0.78143120  1
  Te  Te153  1  0.28048275  0.12037658  0.24008965  1
  Te  Te154  1  0.28297241  0.11202839  0.58818984  1
  Te  Te155  1  0.20434198  0.11569232  0.88628664  1
  Te  Te156  1  0.26900574  0.37617711  0.26883952  1
  Te  Te157  1  0.23903810  0.43947884  0.57936087  1
  Te  Te158  1  0.23622680  0.39797838  0.90609753  1
  Te  Te159  1  0.25832339  0.73626020  0.25743914  1
  Te  Te160  1  0.27254785  0.74477406  0.58966097  1
  Te  Te161  1  0.21039434  0.76184765  0.94384974  1
  Te  Te162  1  0.57059081  0.09210822  0.25904093  1
  Te  Te163  1  0.56905234  0.09312055  0.59799124  1
  Te  Te164  1  0.57381671  0.06124924  0.92641597  1
  Te  Te165  1  0.52934415  0.38845005  0.22159798  1
  Te  Te166  1  0.57373860  0.39148293  0.56387347  1
  Te  Te167  1  0.56805338  0.42955625  0.92413562  1
  Te  Te168  1  0.56189829  0.72357162  0.22870387  1
  Te  Te169  1  0.57870735  0.74767009  0.55995211  1
  Te  Te170  1  0.56684646  0.74726782  0.94985530  1
  Te  Te171  1  0.92233509  0.08554225  0.24146507  1
  Te  Te172  1  0.93494662  0.04958456  0.60934534  1
  Te  Te173  1  0.94035414  0.08114865  0.93873961  1
  Te  Te174  1  0.91677002  0.41481134  0.23813788  1
  Te  Te175  1  0.92965564  0.39107072  0.59780013  1
  Te  Te176  1  0.89763018  0.42444334  0.92998028  1
  Te  Te177  1  0.91528268  0.77068505  0.20839193  1
  Te  Te178  1  0.91318181  0.74478384  0.59827569  1
  Te  Te179  1  0.94010671  0.74231818  0.91838332  1
