# generated using pymatgen
data_In2Te3
_symmetry_space_group_name_H-M   'P 1'
_cell_length_a   18.77269524
_cell_length_b   18.75385285
_cell_length_c   18.76385662
_cell_angle_alpha   90.07418624
_cell_angle_beta   89.95661567
_cell_angle_gamma   89.90026923
_symmetry_Int_Tables_number   1
_chemical_formula_structural   In2Te3
_chemical_formula_sum   'In72 Te108'
_cell_volume   6605.99274483
_cell_formula_units_Z   36
loop_
 _symmetry_equiv_pos_site_id
 _symmetry_equiv_pos_as_xyz
  1  'x, y, z'
loop_
 _atom_site_type_symbol
 _atom_site_label
 _atom_site_symmetry_multiplicity
 _atom_site_fract_x
 _atom_site_fract_y
 _atom_site_fract_z
 _atom_site_occupancy
  In  In0  1  0.33611853  0.49310696  0.50402166  1
  In  In1  1  0.48389531  0.16066718  0.00348801  1
  In  In2  1  0.00201666  0.00656410  0.66587203  1
  In  In3  1  0.81895077  0.01103376  0.15708147  1
  In  In4  1  0.49314797  0.49680228  -0.01714233  1
  In  In5  1  -0.00732451  0.82094243  0.81695641  1
  In  In6  1  0.00739244  0.67646617  -0.02256078  1
  In  In7  1  0.17306899  0.33868824  0.16643630  1
  In  In8  1  0.66873310  0.13620844  0.50095233  1
  In  In9  1  0.35636890  0.81127551  0.82878748  1
  In  In10  1  -0.00037342  0.01627782  -0.02196395  1
  In  In11  1  0.67704072  0.35767249  0.70271482  1
  In  In12  1  0.82884762  -0.00144449  0.53345948  1
  In  In13  1  0.33051162  0.17112443  0.83788626  1
  In  In14  1  0.64207859  0.17429362  0.14301564  1
  In  In15  1  0.84768964  0.84659348  -0.03700770  1
  In  In16  1  0.01888589  0.83976496  0.18474938  1
  In  In17  1  0.17809055  0.66491792  0.50654606  1
  In  In18  1  0.67942115  0.33608111  0.34228238  1
  In  In19  1  0.30440834  0.32643576  0.34124207  1
  In  In20  1  0.49588903  0.81560758  0.00294693  1
  In  In21  1  0.68979997  0.52034043  0.53137816  1
  In  In22  1  0.19903202  0.63865864  0.14604251  1
  In  In23  1  0.03176678  0.35345278  0.35871033  1
  In  In24  1  0.69909223  0.48986478  0.15931567  1
  In  In25  1  0.34623545  0.68598304  0.35290481  1
  In  In26  1  0.17098144  0.36596682  0.83794105  1
  In  In27  1  0.84227687  0.36507151  0.54569165  1
  In  In28  1  0.33764448  0.52281797  0.84035298  1
  In  In29  1  0.65494963  -0.01690984  0.36235231  1
  In  In30  1  0.32616264  -0.00201396  0.66481157  1
  In  In31  1  0.16016405  0.50091282  0.67544823  1
  In  In32  1  0.33100829  0.00013792  0.33281857  1
  In  In33  1  0.80939976  0.80100689  0.35166579  1
  In  In34  1  0.82890231  0.16286550  0.65953533  1
  In  In35  1  0.67437543  -0.01287363  -0.02188176  1
  In  In36  1  0.86194778  0.33994724  0.14623075  1
  In  In37  1  0.46988065  0.33737970  0.15710620  1
  In  In38  1  0.86278144  0.19901891  0.33465785  1
  In  In39  1  0.65972179  0.67498884  0.34187514  1
  In  In40  1  -0.01702593  0.83429643  0.51668265  1
  In  In41  1  0.48046087  0.15701650  0.33304992  1
  In  In42  1  -0.03294142  0.18155616  0.82822440  1
  In  In43  1  0.68466657  0.20073990  0.83950591  1
  In  In44  1  0.50061503  -0.02063926  0.82486318  1
  In  In45  1  0.31955408  0.33761899  0.65118572  1
  In  In46  1  0.17046082  0.67735692  0.82769636  1
  In  In47  1  0.20097380  0.86205778  0.02791081  1
  In  In48  1  0.01623099  0.00155325  0.35069013  1
  In  In49  1  0.47815621  0.32760975  0.51700277  1
  In  In50  1  0.50654280  0.32786592  0.83181854  1
  In  In51  1  0.46801042  -0.00420052  0.17841352  1
  In  In52  1  0.17869667  0.17503179  0.00608917  1
  In  In53  1  0.83810851  0.50823461  -0.01488643  1
  In  In54  1  0.51571537  0.52314084  0.32497825  1
  In  In55  1  0.01559845  0.48649031  0.18921882  1
  In  In56  1  0.65659077  -0.01656841  0.66892161  1
  In  In57  1  -0.01536853  0.62635525  0.36044354  1
  In  In58  1  0.65281333  0.81420814  0.16545460  1
  In  In59  1  0.17303814  0.81118089  0.67103249  1
  In  In60  1  0.18290329  0.01802680  0.48126819  1
  In  In61  1  0.01262340  0.19230125  0.16183106  1
  In  In62  1  0.18308705  0.82848116  0.34216810  1
  In  In63  1  0.13493984  0.01123906  0.83222606  1
  In  In64  1  0.82452726  0.66379263  0.16287148  1
  In  In65  1  -0.00366042  0.34292863  0.01441316  1
  In  In66  1  0.47747707  0.66441472  0.15774405  1
  In  In67  1  0.82601329  0.81068727  0.67152200  1
  In  In68  1  0.51405489  0.52802272  0.67473065  1
  In  In69  1  0.66567588  0.65259058  -0.02781444  1
  In  In70  1  -0.00081691  0.49894018  0.81186653  1
  In  In71  1  0.48574171  -0.03298581  0.49596008  1
  Te  Te72  1  0.08668229  0.07979215  0.08426598  1
  Te  Te73  1  0.08584738  0.11650136  0.41655646  1
  Te  Te74  1  0.07761409  0.11693296  0.73990130  1
  Te  Te75  1  0.10007594  0.43700796  0.07255364  1
  Te  Te76  1  0.10336114  0.44436732  0.44958967  1
  Te  Te77  1  0.06814528  0.38819600  0.72664860  1
  Te  Te78  1  0.09275762  0.74677098  0.08567394  1
  Te  Te79  1  0.07121853  0.75296968  0.41534496  1
  Te  Te80  1  0.06246582  0.72132135  0.72615280  1
  Te  Te81  1  0.38812067  0.08036715  0.08574304  1
  Te  Te82  1  0.40166979  0.08534723  0.44062721  1
  Te  Te83  1  0.42081418  0.08626200  0.74843711  1
  Te  Te84  1  0.39640746  0.45151436  0.09157474  1
  Te  Te85  1  0.42803128  0.41225510  0.39965959  1
  Te  Te86  1  0.41412437  0.41926397  0.74266400  1
  Te  Te87  1  0.38885108  0.75953553  0.08747030  1
  Te  Te88  1  0.44391393  0.73063859  0.45441000  1
  Te  Te89  1  0.43722898  0.75317239  0.71990229  1
  Te  Te90  1  0.74539216  0.09950366  0.05637848  1
  Te  Te91  1  0.77166344  0.08566681  0.39993413  1
  Te  Te92  1  0.73920165  0.08321671  0.75158069  1
  Te  Te93  1  0.74696994  0.39139286  0.05228832  1
  Te  Te94  1  0.76026377  0.43089333  0.42674360  1
  Te  Te95  1  0.78540744  0.45128953  0.73748376  1
  Te  Te96  1  0.75473577  0.75766512  0.06413430  1
  Te  Te97  1  0.74441704  0.72114647  0.45620668  1
  Te  Te98  1  0.71545209  0.72941785  0.73175937  1
  Te  Te99  1  0.10296156  0.24732726  0.26920659  1
  Te  Te100  1  0.13664161  0.21537611  0.53563783  1
  Te  Te101  1  0.08375175  0.25433081  0.91550623  1
  Te  Te102  1  0.09472945  0.59519150  0.25721517  1
  Te  Te103  1  0.07630768  0.57783642  0.57533664  1
  Te  Te104  1  0.09458589  0.57186570  0.90907508  1
  Te  Te105  1  0.11529860  0.93679627  0.25413726  1
  Te  Te106  1  0.09490444  0.91905954  0.57916689  1
  Te  Te107  1  0.08116331  0.89066475  0.92230098  1
  Te  Te108  1  0.39064540  0.23742149  0.24107075  1
  Te  Te109  1  0.39921502  0.22795291  0.58900310  1
  Te  Te110  1  0.40354475  0.26964814  0.92852606  1
  Te  Te111  1  0.39521992  0.57651760  0.25199167  1
  Te  Te112  1  0.41595047  0.59239912  0.58035766  1
  Te  Te113  1  0.43593089  0.61005460  0.90761883  1
  Te  Te114  1  0.42647265  0.89869820  0.27972662  1
  Te  Te115  1  0.42495790  0.89328532  0.61517502  1
  Te  Te116  1  0.40665693  0.91791445  0.92729831  1
  Te  Te117  1  0.75028074  0.24861933  0.23594059  1
  Te  Te118  1  0.73331967  0.25325962  0.57614950  1
  Te  Te119  1  0.76152781  0.29098924  0.92326740  1
  Te  Te120  1  0.75852113  0.57742381  0.26943741  1
  Te  Te121  1  0.74432283  0.59615900  0.64836524  1
  Te  Te122  1  0.73787515  0.55444440  0.88457269  1
  Te  Te123  1  0.74878940  0.90635330  0.24691113  1
  Te  Te124  1  0.73220554  0.89097184  0.57172897  1
  Te  Te125  1  0.73575228  0.89539374  0.88006183  1
  Te  Te126  1  0.26927643  0.25951018  0.08562881  1
  Te  Te127  1  0.24759819  0.22671865  0.43414505  1
  Te  Te128  1  0.23769284  0.25661689  0.75242627  1
  Te  Te129  1  0.27787139  0.55550964  0.05322215  1
  Te  Te130  1  0.25174830  0.57748536  0.40585280  1
  Te  Te131  1  0.26203055  0.59997407  0.73168200  1
  Te  Te132  1  0.26951802  0.95386787  0.12192890  1
  Te  Te133  1  0.27157150  0.89928581  0.44255750  1
  Te  Te134  1  0.23996629  0.91183409  0.76588389  1
  Te  Te135  1  0.56995694  0.27663010  0.05713740  1
  Te  Te136  1  0.58114995  0.24193706  0.41462833  1
  Te  Te137  1  0.58108326  0.24051975  0.73148122  1
  Te  Te138  1  0.59892330  0.58600654  0.09472964  1
  Te  Te139  1  0.58055538  0.58814688  0.44521460  1
  Te  Te140  1  0.60791487  0.61414748  0.74918354  1
  Te  Te141  1  0.58337399  0.92887002  0.08763821  1
  Te  Te142  1  0.58515509  0.87470719  0.43193207  1
  Te  Te143  1  0.58495339  0.88131371  0.75103216  1
  Te  Te144  1  0.90845243  0.22339777  0.05610605  1
  Te  Te145  1  0.92651875  0.27663194  0.44692792  1
  Te  Te146  1  0.90556923  0.27059670  0.72631694  1
  Te  Te147  1  0.92927282  0.57928929  0.08730279  1
  Te  Te148  1  0.90109858  0.55363397  0.45578805  1
  Te  Te149  1  0.89480066  0.56388109  0.72726318  1
  Te  Te150  1  0.91887279  0.91075450  0.08538369  1
  Te  Te151  1  0.90490797  0.91721013  0.41065662  1
  Te  Te152  1  0.90432803  0.92393274  0.74654844  1
  Te  Te153  1  0.24792429  0.06572027  0.23087387  1
  Te  Te154  1  0.22896172  0.09624545  0.60362047  1
  Te  Te155  1  0.24807934  0.06938545  0.91745161  1
  Te  Te156  1  0.23679904  0.43137312  0.26311536  1
  Te  Te157  1  0.21643634  0.40826169  0.55421621  1
  Te  Te158  1  0.26579250  0.42874147  0.93353609  1
  Te  Te159  1  0.25969810  0.74836484  0.23785574  1
  Te  Te160  1  0.27091171  0.75731655  0.57487532  1
  Te  Te161  1  0.25487914  0.75287629  0.92867346  1
  Te  Te162  1  0.59160045  0.07882994  0.25245969  1
  Te  Te163  1  0.56330924  0.07145931  0.58545020  1
  Te  Te164  1  0.57931137  0.09159731  0.90599955  1
  Te  Te165  1  0.58696517  0.40730210  0.23975865  1
  Te  Te166  1  0.58417540  0.41386727  0.58529884  1
  Te  Te167  1  0.59319410  0.43023983  0.89544082  1
  Te  Te168  1  0.55358536  0.75214983  0.26077350  1
  Te  Te169  1  0.52085148  0.75519142  0.58728441  1
  Te  Te170  1  0.58785811  0.75832561  0.90270673  1
  Te  Te171  1  0.92642979  0.08332628  0.24241997  1
  Te  Te172  1  0.93577634  0.10069063  0.56517746  1
  Te  Te173  1  0.89406089  0.06924911  0.89122150  1
  Te  Te174  1  0.91245250  0.41213342  0.27080100  1
  Te  Te175  1  0.94163124  0.47175206  0.58119695  1
  Te  Te176  1  0.91412459  0.40408156  0.90156630  1
  Te  Te177  1  0.92263741  0.74212175  0.25469223  1
  Te  Te178  1  0.91040144  0.72603043  0.58313171  1
  Te  Te179  1  0.89451522  0.72088751  0.88619638  1
