# generated using pymatgen
data_In2Te3
_symmetry_space_group_name_H-M   'P 1'
_cell_length_a   18.97012380
_cell_length_b   18.95481144
_cell_length_c   18.93506029
_cell_angle_alpha   89.84259845
_cell_angle_beta   89.90812255
_cell_angle_gamma   90.16255531
_symmetry_Int_Tables_number   1
_chemical_formula_structural   In2Te3
_chemical_formula_sum   'In72 Te108'
_cell_volume   6808.51463715
_cell_formula_units_Z   36
loop_
 _symmetry_equiv_pos_site_id
 _symmetry_equiv_pos_as_xyz
  1  'x, y, z'
loop_
 _atom_site_type_symbol
 _atom_site_label
 _atom_site_symmetry_multiplicity
 _atom_site_fract_x
 _atom_site_fract_y
 _atom_site_fract_z
 _atom_site_occupancy
  In  In0  1  0.16810959  0.64114619  0.51442464  1
  In  In1  1  0.18093682  0.02764048  0.20320757  1
  In  In2  1  -0.01348126  0.18272233  0.47654656  1
  In  In3  1  0.30972728  0.18124138  0.81556193  1
  In  In4  1  0.00989416  0.64185451  0.32657963  1
  In  In5  1  0.00322015  0.02778222  -0.03565062  1
  In  In6  1  0.82020032  0.82610844  0.35902765  1
  In  In7  1  0.65880712  0.50923720  0.49422182  1
  In  In8  1  0.34056131  0.01378190  0.35148845  1
  In  In9  1  0.33922992  0.65323874  0.34830373  1
  In  In10  1  0.33062258  0.48107053  0.50548566  1
  In  In11  1  0.33085814  0.83149510  0.80518205  1
  In  In12  1  0.64774747  0.84018756  0.16880837  1
  In  In13  1  0.35018103  0.84392403  0.13955361  1
  In  In14  1  0.65618727  0.33724360  0.34289142  1
  In  In15  1  0.83408283  0.17621633  0.68173402  1
  In  In16  1  0.15455809  0.81311599  0.32750007  1
  In  In17  1  0.66810229  0.14762504  0.82565728  1
  In  In18  1  0.80508544  0.83800064  0.66412470  1
  In  In19  1  0.31529044  0.85304187  0.52660839  1
  In  In20  1  0.17580455  -0.01443590  0.81293450  1
  In  In21  1  0.49505632  0.16200363  0.66617203  1
  In  In22  1  -0.00279879  0.32872121  -0.00861113  1
  In  In23  1  -0.01374425  -0.01745253  0.68379435  1
  In  In24  1  0.82683236  0.66158224  0.52445057  1
  In  In25  1  0.18450657  0.17124242  0.66955867  1
  In  In26  1  -0.02588792  -0.01043243  0.32708325  1
  In  In27  1  0.33511859  0.49801154  0.16633265  1
  In  In28  1  0.00109011  0.67897923  0.69709383  1
  In  In29  1  -0.00403238  0.17241215  0.17747085  1
  In  In30  1  0.52184020  0.34553169  0.83257435  1
  In  In31  1  -0.00495794  0.48718190  0.17149330  1
  In  In32  1  0.32188543  0.49582610  0.83585958  1
  In  In33  1  0.17270169  0.19873545  0.36432031  1
  In  In34  1  0.34420764  0.35067156  -0.00697170  1
  In  In35  1  0.50795405  0.18462840  0.32835953  1
  In  In36  1  0.33853094  0.65543086  0.68241362  1
  In  In37  1  0.13896329  0.01559547  0.53202158  1
  In  In38  1  0.35212538  0.67940771  -0.02481817  1
  In  In39  1  0.64986669  0.51788291  0.15847814  1
  In  In40  1  -0.01608814  0.47407780  0.51309414  1
  In  In41  1  0.84419591  0.01622549  0.15837528  1
  In  In42  1  0.49749382  0.50447929  0.67196593  1
  In  In43  1  0.00879700  0.67524850  -0.08309039  1
  In  In44  1  0.86019131  0.49790524  0.00562724  1
  In  In45  1  0.50515323  -0.01775072  0.81332069  1
  In  In46  1  0.19060410  0.34089476  0.15035292  1
  In  In47  1  0.17639009  0.66331609  0.14800312  1
  In  In48  1  0.67599680  0.50551629  0.82728220  1
  In  In49  1  0.50111619  0.51101814  0.34747975  1
  In  In50  1  0.35793309  0.02429062  0.00536580  1
  In  In51  1  0.48550166  0.82795134  0.32654042  1
  In  In52  1  0.81042232  0.65252491  0.16808957  1
  In  In53  1  0.53624714  0.81589507  0.64542515  1
  In  In54  1  0.82215386  0.48369671  0.31871095  1
  In  In55  1  0.16196985  0.34577418  0.51838041  1
  In  In56  1  0.52877918  0.83160897  -0.01623563  1
  In  In57  1  0.81763402  0.67730662  0.81588921  1
  In  In58  1  0.19553026  0.83850037  -0.02346683  1
  In  In59  1  0.51166377  0.17539004  0.00761480  1
  In  In60  1  0.74071271  0.81287463  -0.05278813  1
  In  In61  1  0.84039017  0.16409977  -0.00626681  1
  In  In62  1  0.67399111  0.17501532  0.17118912  1
  In  In63  1  0.52329818  0.00569729  0.50184509  1
  In  In64  1  0.01958960  0.46914794  0.81137067  1
  In  In65  1  0.68365870  0.02132838  0.35305327  1
  In  In66  1  0.15165004  0.19348691  -0.01443517  1
  In  In67  1  0.82465964  0.46369083  0.66486376  1
  In  In68  1  -0.02097864  0.82071377  0.14260543  1
  In  In69  1  0.49466474  0.32927799  0.51555557  1
  In  In70  1  0.68165357  0.35538415  0.01073682  1
  In  In71  1  0.82354515  -0.00212265  0.50750690  1
  Te  Te72  1  0.08137235  0.08879776  0.08361392  1
  Te  Te73  1  0.07939847  0.07570942  0.39818259  1
  Te  Te74  1  0.08436093  0.08382910  0.74596308  1
  Te  Te75  1  0.08746495  0.42049176  0.07123592  1
  Te  Te76  1  0.07207749  0.40698132  0.41347951  1
  Te  Te77  1  0.10178379  0.38601162  0.72244732  1
  Te  Te78  1  0.09301169  0.75688525  0.06239663  1
  Te  Te79  1  0.07657005  0.73255179  0.42863149  1
  Te  Te80  1  0.08149187  0.73915010  0.80263159  1
  Te  Te81  1  0.42572230  0.10500274  0.11003121  1
  Te  Te82  1  0.42930472  0.10237353  0.43450573  1
  Te  Te83  1  0.40281745  0.07560731  0.75305605  1
  Te  Te84  1  0.43136957  0.42802044  0.07964271  1
  Te  Te85  1  0.41554803  0.40108742  0.40730964  1
  Te  Te86  1  0.41181640  0.40512637  0.74844988  1
  Te  Te87  1  0.44146578  0.74285386  0.07983021  1
  Te  Te88  1  0.39764272  0.76243015  0.43330196  1
  Te  Te89  1  0.44095718  0.74742689  0.74720556  1
  Te  Te90  1  0.74008843  0.07755681  0.06894341  1
  Te  Te91  1  0.76220663  0.11132362  0.43646344  1
  Te  Te92  1  0.73224032  0.07154314  0.71465268  1
  Te  Te93  1  0.76790996  0.43233907  0.10768264  1
  Te  Te94  1  0.75619338  0.41035958  0.43400188  1
  Te  Te95  1  0.74413066  0.39166588  0.76457985  1
  Te  Te96  1  0.76563202  0.77666729  0.09660555  1
  Te  Te97  1  0.73112467  0.74715851  0.44796687  1
  Te  Te98  1  0.71442817  0.73986704  0.73223312  1
  Te  Te99  1  0.09954415  0.25851803  0.24415245  1
  Te  Te100  1  0.07522079  0.23921556  0.58524434  1
  Te  Te101  1  0.04925860  0.23479907  0.88556215  1
  Te  Te102  1  0.10850357  0.56527291  0.24188108  1
  Te  Te103  1  0.05801707  0.57705004  0.59634348  1
  Te  Te104  1  0.08600738  0.55280233  0.91252732  1
  Te  Te105  1  0.07043457  0.90555294  0.23713691  1
  Te  Te106  1  0.08113453  0.90259843  0.60345908  1
  Te  Te107  1  0.08083711  0.91136211  0.90524175  1
  Te  Te108  1  0.41424776  0.22183509  0.22361237  1
  Te  Te109  1  0.40314724  0.26252426  0.61014566  1
  Te  Te110  1  0.42401199  0.24057721  0.89865691  1
  Te  Te111  1  0.42907901  0.59575820  0.24397435  1
  Te  Te112  1  0.41606682  0.58645846  0.57190204  1
  Te  Te113  1  0.42621219  0.58415897  0.89276695  1
  Te  Te114  1  0.41392557  0.93367970  0.24342974  1
  Te  Te115  1  0.43661738  0.91753469  0.59226844  1
  Te  Te116  1  0.40461552  0.90836795  0.91834146  1
  Te  Te117  1  0.75059945  0.26134558  0.26036786  1
  Te  Te118  1  0.79738694  0.29071841  0.59644007  1
  Te  Te119  1  0.73698504  0.24836874  0.92039929  1
  Te  Te120  1  0.72585961  0.59190464  0.27654221  1
  Te  Te121  1  0.73696171  0.57377361  0.60804018  1
  Te  Te122  1  0.76435646  0.58221081  0.92746194  1
  Te  Te123  1  0.76632085  0.92494772  0.25666110  1
  Te  Te124  1  0.72036778  0.91558145  0.57161443  1
  Te  Te125  1  0.73214566  0.92359317  0.84978504  1
  Te  Te126  1  0.26746521  0.23903092  0.06861229  1
  Te  Te127  1  0.26644941  0.26029624  0.45736521  1
  Te  Te128  1  0.21585926  0.28903156  0.76639718  1
  Te  Te129  1  0.26518296  0.58334629  0.05820728  1
  Te  Te130  1  0.23838897  0.55943429  0.40850584  1
  Te  Te131  1  0.23593017  0.56036034  0.73159201  1
  Te  Te132  1  0.24121225  0.93592213  0.08671887  1
  Te  Te133  1  0.23604105  0.91375476  0.40755302  1
  Te  Te134  1  0.25611680  0.91641829  0.71214059  1
  Te  Te135  1  0.58522112  0.27333517  0.09571211  1
  Te  Te136  1  0.59411791  0.24120677  0.44328492  1
  Te  Te137  1  0.59545560  0.25123471  0.74043902  1
  Te  Te138  1  0.61625242  0.62180653  0.06400395  1
  Te  Te139  1  0.56278468  0.61161796  0.44034885  1
  Te  Te140  1  0.57209565  0.59005913  0.76550005  1
  Te  Te141  1  0.57921613  0.93147167  0.07773527  1
  Te  Te142  1  0.58903736  0.91339535  0.40380627  1
  Te  Te143  1  0.60884087  0.88124277  0.76986512  1
  Te  Te144  1  0.90613041  0.25908830  0.09155395  1
  Te  Te145  1  0.95119696  0.30243968  0.39937211  1
  Te  Te146  1  0.92176088  0.21732485  0.79327283  1
  Te  Te147  1  0.93195063  0.60080166  0.09290197  1
  Te  Te148  1  0.90529690  0.57648119  0.41817781  1
  Te  Te149  1  0.90773055  0.57016118  0.75127343  1
  Te  Te150  1  0.92156138  0.93301598  0.05862197  1
  Te  Te151  1  0.92609319  0.90075447  0.43775614  1
  Te  Te152  1  0.88943641  0.90636570  0.76696120  1
  Te  Te153  1  0.27608009  0.12634872  0.26836040  1
  Te  Te154  1  0.25788726  0.08773817  0.57267044  1
  Te  Te155  1  0.24412572  0.08000909  0.91884041  1
  Te  Te156  1  0.27113865  0.40065962  0.25604438  1
  Te  Te157  1  0.23175250  0.44158415  0.61141449  1
  Te  Te158  1  0.23498688  0.39583056  0.90611602  1
  Te  Te159  1  0.26337251  0.75291352  0.23797939  1
  Te  Te160  1  0.24047725  0.74211858  0.60064444  1
  Te  Te161  1  0.24383077  0.73062995  0.88066641  1
  Te  Te162  1  0.58796835  0.07896383  0.25202745  1
  Te  Te163  1  0.60083711  0.07265813  0.60951355  1
  Te  Te164  1  0.57447483  0.06898676  0.91704367  1
  Te  Te165  1  0.57161971  0.42035450  0.24902090  1
  Te  Te166  1  0.59183579  0.41508573  0.59347681  1
  Te  Te167  1  0.58121360  0.43817123  0.93471120  1
  Te  Te168  1  0.58835808  0.74577511  0.26286616  1
  Te  Te169  1  0.59201787  0.72626603  0.54415352  1
  Te  Te170  1  0.61968532  0.72048973  0.94211846  1
  Te  Te171  1  0.89553452  0.10607714  0.27005700  1
  Te  Te172  1  0.92643188  0.08721793  0.58204404  1
  Te  Te173  1  0.89369267  0.08287947  0.87956634  1
  Te  Te174  1  0.92680812  0.39280063  0.26425853  1
  Te  Te175  1  0.92841922  0.36961627  0.60919882  1
  Te  Te176  1  0.90571315  0.40408611  0.89757752  1
  Te  Te177  1  0.91540714  0.74382537  0.26118599  1
  Te  Te178  1  0.91893302  0.75628960  0.59714112  1
  Te  Te179  1  0.88774089  0.76323665  0.91939198  1
