# generated using pymatgen
data_In2Te3
_symmetry_space_group_name_H-M   'P 1'
_cell_length_a   18.79883630
_cell_length_b   18.80183743
_cell_length_c   18.80385670
_cell_angle_alpha   89.94828659
_cell_angle_beta   89.95104073
_cell_angle_gamma   89.88383386
_symmetry_Int_Tables_number   1
_chemical_formula_structural   In2Te3
_chemical_formula_sum   'In72 Te108'
_cell_volume   6646.25446060
_cell_formula_units_Z   36
loop_
 _symmetry_equiv_pos_site_id
 _symmetry_equiv_pos_as_xyz
  1  'x, y, z'
loop_
 _atom_site_type_symbol
 _atom_site_label
 _atom_site_symmetry_multiplicity
 _atom_site_fract_x
 _atom_site_fract_y
 _atom_site_fract_z
 _atom_site_occupancy
  In  In0  1  0.50367938  0.48899112  0.68009849  1
  In  In1  1  0.68836088  0.84260839  0.16200745  1
  In  In2  1  0.49757610  0.83278351  0.03188353  1
  In  In3  1  0.49680273  0.14709769  0.31913105  1
  In  In4  1  0.15578588  0.49017310  0.32343113  1
  In  In5  1  0.84258511  0.68259285  0.16088082  1
  In  In6  1  0.17264742  0.01670781  0.50277373  1
  In  In7  1  0.15253775  0.32809749  0.14205215  1
  In  In8  1  0.32393051  0.16463156  0.83605526  1
  In  In9  1  0.50922679  0.83112183  0.35831430  1
  In  In10  1  0.30383897  0.65824893  0.31321586  1
  In  In11  1  0.30541504  0.84024200  0.51458736  1
  In  In12  1  0.32389118  0.65672695  -0.02604009  1
  In  In13  1  0.50061756  0.48199428  -0.01241896  1
  In  In14  1  0.82636930  0.30722726  0.49884714  1
  In  In15  1  0.49656707  0.00474465  0.49376582  1
  In  In16  1  0.00265802  0.32108723  0.65114041  1
  In  In17  1  0.32921956  0.33292566  -0.02955953  1
  In  In18  1  0.68389703  0.66963826  -0.01234104  1
  In  In19  1  0.50580965  0.33589690  0.82680909  1
  In  In20  1  0.65494442  0.49884807  0.50985032  1
  In  In21  1  0.14470230  0.69056669  0.50379381  1
  In  In22  1  -0.00434813  0.17166884  0.16085141  1
  In  In23  1  0.00067996  0.49455878  0.15628833  1
  In  In24  1  0.49369688  0.67644694  0.51816660  1
  In  In25  1  0.48844646  0.33225662  0.50665791  1
  In  In26  1  0.14479394  -0.00199208  0.16412320  1
  In  In27  1  0.32233198  0.83854457  0.82488409  1
  In  In28  1  0.00819957  -0.01600820  -0.02073039  1
  In  In29  1  0.85052606  0.67825190  0.52011071  1
  In  In30  1  0.16360792  0.83384263  0.68209607  1
  In  In31  1  0.49778444  0.64781223  0.18410542  1
  In  In32  1  0.31608562  0.85424110  0.16415749  1
  In  In33  1  0.15904469  0.16049976  0.66135714  1
  In  In34  1  0.33643456  0.00099926  0.35488911  1
  In  In35  1  0.02131610  0.50595614  0.49643375  1
  In  In36  1  -0.00932981  0.51902674  0.84110405  1
  In  In37  1  0.53259065  0.00266771  0.16418349  1
  In  In38  1  -0.00192503  0.83703481  0.17392151  1
  In  In39  1  0.83212636  0.49589064  0.68641584  1
  In  In40  1  0.33394710  0.47756482  0.50578845  1
  In  In41  1  0.51209110  0.44858346  0.36603984  1
  In  In42  1  0.50604314  0.83464511  0.67348683  1
  In  In43  1  0.84228408  0.16311985  0.33568483  1
  In  In44  1  0.69117766  0.14644598  0.51527842  1
  In  In45  1  0.31968635  0.01554353  0.00706601  1
  In  In46  1  0.69063211  0.87181611  0.52892268  1
  In  In47  1  0.65452733  0.18193468  0.15453696  1
  In  In48  1  0.82640887  0.49109346  -0.00418766  1
  In  In49  1  0.67544322  0.30931369  0.33105451  1
  In  In50  1  -0.02812750  -0.01355734  0.68421608  1
  In  In51  1  0.00326678  0.17527133  0.82551507  1
  In  In52  1  0.85371285  0.69905788  0.85298574  1
  In  In53  1  0.51269515  0.01287618  0.84141961  1
  In  In54  1  0.85064509  0.17935026  0.00405455  1
  In  In55  1  0.82848365  0.01805730  0.17948404  1
  In  In56  1  0.70588301  0.85505598  0.83364725  1
  In  In57  1  0.83082199  0.32859828  0.82900290  1
  In  In58  1  0.14437365  0.66644354  0.81960648  1
  In  In59  1  0.49536073  0.17064554  0.66413635  1
  In  In60  1  0.33867921  0.16895738  0.15616915  1
  In  In61  1  0.18403360  0.17569183  0.36253987  1
  In  In62  1  0.69979085  0.12888577  0.82098063  1
  In  In63  1  -0.02650769  0.84985937  0.48848730  1
  In  In64  1  0.15553419  0.32872660  0.84398630  1
  In  In65  1  0.68212776  0.47952024  0.15953513  1
  In  In66  1  0.85732895  0.49883830  0.32334494  1
  In  In67  1  0.50802947  0.65364095  0.83540340  1
  In  In68  1  0.68637205  0.67693432  0.36351256  1
  In  In69  1  0.33992848  0.48968500  0.15096206  1
  In  In70  1  0.17813558  0.50204736  0.65359402  1
  In  In71  1  0.15076628  0.67972730  0.14905887  1
  Te  Te72  1  0.08170963  0.09149407  0.06362390  1
  Te  Te73  1  0.07388739  0.09741258  0.42615451  1
  Te  Te74  1  0.08332929  0.06671521  0.75560666  1
  Te  Te75  1  0.09489068  0.43507190  0.05801095  1
  Te  Te76  1  0.07743913  0.40057096  0.41055233  1
  Te  Te77  1  0.07015378  0.42129069  0.74284865  1
  Te  Te78  1  0.05764745  0.75620700  0.05984830  1
  Te  Te79  1  0.06137157  0.76052115  0.40594638  1
  Te  Te80  1  0.05032173  0.77414144  0.76292659  1
  Te  Te81  1  0.43800301  0.08444497  0.07575721  1
  Te  Te82  1  0.40223794  0.11027921  0.43598806  1
  Te  Te83  1  0.41002709  0.07304777  0.74769174  1
  Te  Te84  1  0.43063337  0.38592615  0.08473497  1
  Te  Te85  1  0.37998465  0.37409452  0.39676448  1
  Te  Te86  1  0.40313778  0.39977640  0.74132554  1
  Te  Te87  1  0.39428060  0.73412473  0.09584723  1
  Te  Te88  1  0.39443960  0.74597316  0.41291020  1
  Te  Te89  1  0.41379422  0.74123248  0.74967038  1
  Te  Te90  1  0.74638510  0.09016387  0.07354539  1
  Te  Te91  1  0.77786372  0.06010227  0.42713896  1
  Te  Te92  1  0.78231715  0.05693564  0.71440424  1
  Te  Te93  1  0.75184970  0.38709173  0.07012411  1
  Te  Te94  1  0.74463844  0.42618793  0.40864054  1
  Te  Te95  1  0.73222397  0.41444096  0.75792241  1
  Te  Te96  1  0.77396504  0.77056010  0.05596599  1
  Te  Te97  1  0.77063284  0.77901088  0.43386914  1
  Te  Te98  1  0.76385172  0.75283597  0.74625102  1
  Te  Te99  1  0.09433221  0.24315618  0.25407474  1
  Te  Te100  1  0.06295394  0.21906589  0.56200554  1
  Te  Te101  1  0.06834050  0.25133800  0.93360648  1
  Te  Te102  1  0.07185426  0.59414663  0.24896870  1
  Te  Te103  1  0.07166326  0.60143267  0.60353756  1
  Te  Te104  1  0.08475511  0.58721303  0.93074808  1
  Te  Te105  1  0.07079841  0.92678281  0.26840321  1
  Te  Te106  1  0.08108263  0.92398656  0.58589282  1
  Te  Te107  1  0.05456807  0.88921437  0.87227232  1
  Te  Te108  1  0.41904476  0.25071046  0.24927077  1
  Te  Te109  1  0.39798254  0.26149663  0.59910800  1
  Te  Te110  1  0.43230600  0.23427380  0.91690348  1
  Te  Te111  1  0.41086506  0.55407847  0.27243022  1
  Te  Te112  1  0.40845372  0.57762418  0.59470555  1
  Te  Te113  1  0.40575507  0.55578620  0.89372057  1
  Te  Te114  1  0.42909203  0.91806261  0.25025387  1
  Te  Te115  1  0.41094044  0.92053489  0.58880541  1
  Te  Te116  1  0.41803384  0.91363034  0.92834576  1
  Te  Te117  1  0.77211214  0.24995879  0.23161399  1
  Te  Te118  1  0.73911808  0.25433439  0.60363493  1
  Te  Te119  1  0.74096140  0.24377809  0.91812953  1
  Te  Te120  1  0.74343286  0.59006073  0.24773206  1
  Te  Te121  1  0.74694562  0.58683480  0.58937742  1
  Te  Te122  1  0.75848476  0.58021146  0.89233358  1
  Te  Te123  1  0.77060781  0.90949499  0.26397993  1
  Te  Te124  1  0.79825368  0.94373331  0.60693738  1
  Te  Te125  1  0.79553157  0.94338756  0.90977370  1
  Te  Te126  1  0.24581580  0.23871183  0.05876790  1
  Te  Te127  1  0.25294098  0.27833774  0.44234374  1
  Te  Te128  1  0.24483308  0.25795522  0.74390669  1
  Te  Te129  1  0.24110308  0.57801415  0.07694478  1
  Te  Te130  1  0.23913736  0.58047865  0.42861370  1
  Te  Te131  1  0.24867843  0.58348462  0.75355029  1
  Te  Te132  1  0.22029794  0.91020484  0.06180870  1
  Te  Te133  1  0.22841362  0.90707091  0.40318155  1
  Te  Te134  1  0.24862137  0.93682288  0.74471350  1
  Te  Te135  1  0.55724021  0.27638807  0.10154601  1
  Te  Te136  1  0.58558798  0.23355893  0.42696795  1
  Te  Te137  1  0.59585234  0.22928559  0.76002420  1
  Te  Te138  1  0.58892980  0.58450864  0.07437465  1
  Te  Te139  1  0.56575901  0.59131816  0.40938071  1
  Te  Te140  1  0.59735903  0.58580390  0.74083788  1
  Te  Te141  1  0.61385822  0.92748766  0.05816477  1
  Te  Te142  1  0.60565186  0.93250533  0.41463547  1
  Te  Te143  1  0.59968818  0.92762520  0.74888286  1
  Te  Te144  1  0.92394536  0.27855494  0.08655167  1
  Te  Te145  1  0.93264617  0.24833857  0.41739596  1
  Te  Te146  1  0.90218983  0.23703273  0.72927567  1
  Te  Te147  1  0.91780190  0.58960034  0.06780645  1
  Te  Te148  1  0.92855322  0.59645447  0.41347687  1
  Te  Te149  1  0.91753536  0.60781929  0.74249196  1
  Te  Te150  1  0.91315863  0.93006043  0.08543811  1
  Te  Te151  1  0.88268330  0.94284892  0.41849298  1
  Te  Te152  1  0.87098824  0.91765845  0.78314951  1
  Te  Te153  1  0.25442925  0.07552994  0.24724367  1
  Te  Te154  1  0.26715936  0.08698803  0.58946739  1
  Te  Te155  1  0.22965733  0.07560384  0.90787040  1
  Te  Te156  1  0.24739861  0.40380854  0.23671303  1
  Te  Te157  1  0.22166658  0.39241333  0.55969342  1
  Te  Te158  1  0.23931818  0.43188409  0.90967178  1
  Te  Te159  1  0.22174828  0.77012299  0.25104740  1
  Te  Te160  1  0.25202115  0.73259794  0.60542502  1
  Te  Te161  1  0.23013165  0.76017652  0.91689299  1
  Te  Te162  1  0.61945295  0.07672764  0.26423496  1
  Te  Te163  1  0.58929406  0.06793287  0.59660828  1
  Te  Te164  1  0.60520543  0.08638662  0.92839332  1
  Te  Te165  1  0.58271141  0.39442641  0.23972351  1
  Te  Te166  1  0.59437123  0.39324217  0.59852688  1
  Te  Te167  1  0.60301533  0.42001372  0.90252707  1
  Te  Te168  1  0.58863239  0.75795992  0.24807569  1
  Te  Te169  1  0.60350266  0.75528511  0.58632475  1
  Te  Te170  1  0.57953533  0.76018882  0.92028536  1
  Te  Te171  1  0.94402628  0.07164488  0.26339576  1
  Te  Te172  1  0.88930103  0.07463520  0.59520567  1
  Te  Te173  1  0.91109005  0.07944317  0.90499299  1
  Te  Te174  1  0.92277485  0.39834278  0.23943597  1
  Te  Te175  1  0.90775331  0.42538821  0.57162656  1
  Te  Te176  1  0.92724359  0.40421580  0.91872964  1
  Te  Te177  1  0.91420981  0.75430004  0.26599822  1
  Te  Te178  1  0.92539512  0.77130206  0.60586974  1
  Te  Te179  1  0.96369815  0.77183596  0.92672021  1
