# generated using pymatgen
data_In2Te3
_symmetry_space_group_name_H-M   'P 1'
_cell_length_a   18.77981717
_cell_length_b   18.77999078
_cell_length_c   18.77203653
_cell_angle_alpha   89.95411981
_cell_angle_beta   90.06788384
_cell_angle_gamma   89.99650850
_symmetry_Int_Tables_number   1
_chemical_formula_structural   In2Te3
_chemical_formula_sum   'In72 Te108'
_cell_volume   6620.60504072
_cell_formula_units_Z   36
loop_
 _symmetry_equiv_pos_site_id
 _symmetry_equiv_pos_as_xyz
  1  'x, y, z'
loop_
 _atom_site_type_symbol
 _atom_site_label
 _atom_site_symmetry_multiplicity
 _atom_site_fract_x
 _atom_site_fract_y
 _atom_site_fract_z
 _atom_site_occupancy
  In  In0  1  0.16909837  -0.01137627  0.82811966  1
  In  In1  1  0.33371736  -0.02478200  0.32526895  1
  In  In2  1  0.33655805  0.83216691  0.48936820  1
  In  In3  1  0.32656232  0.84038945  0.84971998  1
  In  In4  1  0.83149475  0.66480996  0.83778916  1
  In  In5  1  0.67356851  0.50746901  0.84196278  1
  In  In6  1  -0.00392249  0.03161511  -0.01243373  1
  In  In7  1  0.18078954  0.34498538  0.50193214  1
  In  In8  1  0.82828945  0.31872798  0.15134659  1
  In  In9  1  0.68358530  -0.00766550  0.33977548  1
  In  In10  1  -0.01391455  0.33130826  0.68640285  1
  In  In11  1  0.51937323  0.83922721  0.30534614  1
  In  In12  1  0.52702468  0.32022277  0.50093407  1
  In  In13  1  0.65350677  0.50896207  0.17762617  1
  In  In14  1  0.67845384  0.15985884  0.18802265  1
  In  In15  1  0.18129134  0.50025242  0.65589473  1
  In  In16  1  0.32826746  0.00493458  0.68769989  1
  In  In17  1  0.33856810  -0.01512224  -0.00179216  1
  In  In18  1  0.13112208  0.15832529  -0.00349120  1
  In  In19  1  0.16475088  0.31146001  0.82836876  1
  In  In20  1  0.32094426  0.34401811  0.33717082  1
  In  In21  1  0.16918276  0.80631766  -0.00693477  1
  In  In22  1  0.51181352  0.82970757  0.66456568  1
  In  In23  1  0.33556448  0.18327581  0.50546547  1
  In  In24  1  0.66786271  0.67826291  0.33241354  1
  In  In25  1  0.33889805  0.34352503  0.00663042  1
  In  In26  1  0.33047172  0.15655953  0.15134812  1
  In  In27  1  0.33038006  0.15550424  0.79862529  1
  In  In28  1  0.81773437  0.83046429  -0.01148622  1
  In  In29  1  0.82267814  0.01797329  0.50360628  1
  In  In30  1  0.67401928  0.65811896  0.66649506  1
  In  In31  1  -0.01889966  0.32744720  0.31513969  1
  In  In32  1  0.15851424  0.80731375  0.34078908  1
  In  In33  1  0.67417747  0.16566880  0.81093369  1
  In  In34  1  0.51963354  0.34215529  0.83323261  1
  In  In35  1  0.16251410  0.00629696  0.13958570  1
  In  In36  1  0.80871891  0.31788664  0.52501393  1
  In  In37  1  -0.02690574  0.00588773  0.33504397  1
  In  In38  1  0.32777120  0.63956415  0.33094983  1
  In  In39  1  0.02657759  0.51749970  0.51242841  1
  In  In40  1  0.15961766  0.52593774  0.00207137  1
  In  In41  1  0.16949994  0.16777079  0.65886290  1
  In  In42  1  0.82543548  0.00065457  0.17778235  1
  In  In43  1  0.52723494  0.03117011  0.51554939  1
  In  In44  1  0.51354869  0.66684699  0.50554828  1
  In  In45  1  0.32550323  0.66641197  0.66812146  1
  In  In46  1  0.83106340  0.68764296  0.50187008  1
  In  In47  1  0.81798745  0.48331429  0.33931438  1
  In  In48  1  0.67409253  0.33888329  -0.01522129  1
  In  In49  1  0.49532885  0.35543436  0.16240748  1
  In  In50  1  -0.01226038  0.15076490  0.49074551  1
  In  In51  1  0.67016380  0.66515520  0.00676471  1
  In  In52  1  0.17227289  0.50988247  0.31687910  1
  In  In53  1  -0.02940650  0.17905521  0.82959469  1
  In  In54  1  0.50873155  0.48730681  0.66117449  1
  In  In55  1  -0.00770908  0.82683792  0.17042222  1
  In  In56  1  0.49990108  0.50722195  0.32111121  1
  In  In57  1  0.83569720  0.85958732  0.65976442  1
  In  In58  1  0.14628735  0.35223859  0.17553286  1
  In  In59  1  -0.02279351  0.48950942  0.87722136  1
  In  In60  1  0.14921360  0.67053499  0.47296884  1
  In  In61  1  0.66042495  -0.01974142  0.02143230  1
  In  In62  1  0.51869091  0.16402987  0.33103990  1
  In  In63  1  0.48083748  -0.00975327  0.82739775  1
  In  In64  1  0.00111702  -0.03195742  0.63394701  1
  In  In65  1  0.64577366  0.83464523  0.86417803  1
  In  In66  1  0.49753251  0.16549912  -0.00094019  1
  In  In67  1  0.17714464  0.66662300  0.16687514  1
  In  In68  1  0.82376363  0.49488227  0.68064530  1
  In  In69  1  -0.00015360  0.80361902  0.80878785  1
  In  In70  1  0.36080032  0.52753029  0.86217528  1
  In  In71  1  0.00227608  0.68287489  0.33201437  1
  Te  Te72  1  0.04705190  0.10484740  0.11286574  1
  Te  Te73  1  0.08159863  0.06959672  0.41394238  1
  Te  Te74  1  0.08402172  0.09488135  0.76093057  1
  Te  Te75  1  0.06243369  0.43264053  0.07603780  1
  Te  Te76  1  0.08060994  0.41540155  0.40297707  1
  Te  Te77  1  0.08414436  0.42500324  0.75586783  1
  Te  Te78  1  0.06871087  0.73058405  0.07972001  1
  Te  Te79  1  0.04534803  0.78104141  0.44246033  1
  Te  Te80  1  0.09485458  0.72854406  0.72976464  1
  Te  Te81  1  0.43470625  0.06217784  0.09119054  1
  Te  Te82  1  0.41497026  0.07958410  0.41177118  1
  Te  Te83  1  0.44799457  0.09777284  0.72273983  1
  Te  Te84  1  0.41582216  0.44621569  0.07820157  1
  Te  Te85  1  0.42770668  0.41249131  0.41804353  1
  Te  Te86  1  0.41127007  0.42357064  0.76176623  1
  Te  Te87  1  0.45529353  0.81256496  0.07901920  1
  Te  Te88  1  0.42728016  0.74436380  0.40352841  1
  Te  Te89  1  0.41640370  0.75430158  0.75367380  1
  Te  Te90  1  0.75343509  0.09065483  0.07525189  1
  Te  Te91  1  0.73874594  0.10832635  0.41573530  1
  Te  Te92  1  0.74682655  0.08289656  0.70791378  1
  Te  Te93  1  0.74667430  0.43013829  0.08347441  1
  Te  Te94  1  0.73183679  0.40926488  0.43508236  1
  Te  Te95  1  0.74269960  0.40234442  0.76215468  1
  Te  Te96  1  0.74558191  0.75941238  0.09705894  1
  Te  Te97  1  0.75400840  0.77206355  0.40915268  1
  Te  Te98  1  0.74266723  0.76034112  0.76006331  1
  Te  Te99  1  0.08501761  0.24300830  0.25242724  1
  Te  Te100  1  0.07585133  0.26053754  0.57923451  1
  Te  Te101  1  0.05330195  0.27179314  0.92615222  1
  Te  Te102  1  0.06137862  0.57707437  0.23235776  1
  Te  Te103  1  0.08294578  0.61770724  0.61372813  1
  Te  Te104  1  0.07285436  0.59797983  0.90557519  1
  Te  Te105  1  0.09271850  0.91385547  0.24462547  1
  Te  Te106  1  0.11864008  0.90598338  0.57996535  1
  Te  Te107  1  0.08152166  0.91498641  0.92796397  1
  Te  Te108  1  0.41163170  0.24651290  0.24742084  1
  Te  Te109  1  0.43331860  0.24858256  0.59287323  1
  Te  Te110  1  0.40814986  0.24703179  0.90684738  1
  Te  Te111  1  0.42758628  0.59923960  0.22959597  1
  Te  Te112  1  0.41446053  0.57899556  0.57918366  1
  Te  Te113  1  0.44136992  0.62207256  0.94184589  1
  Te  Te114  1  0.41505089  0.90599957  0.21979729  1
  Te  Te115  1  0.41762300  0.92357397  0.58340403  1
  Te  Te116  1  0.44966953  0.88981182  0.94172288  1
  Te  Te117  1  0.75114582  0.26195905  0.26411571  1
  Te  Te118  1  0.74471761  0.20961558  0.60652614  1
  Te  Te119  1  0.75472767  0.23608678  0.91622263  1
  Te  Te120  1  0.76301706  0.59157961  0.24582721  1
  Te  Te121  1  0.75263521  0.57221694  0.56971102  1
  Te  Te122  1  0.77362760  0.56986752  0.94105143  1
  Te  Te123  1  0.74057135  0.89784454  0.24075392  1
  Te  Te124  1  0.73138521  0.92707319  0.58010892  1
  Te  Te125  1  0.75209650  0.93782732  0.90340130  1
  Te  Te126  1  0.23521915  0.25148774  0.07607860  1
  Te  Te127  1  0.23325223  0.23907027  0.40489840  1
  Te  Te128  1  0.26495331  0.27026206  0.72041710  1
  Te  Te129  1  0.26877807  0.59649600  0.07408484  1
  Te  Te130  1  0.25216079  0.56141251  0.43685514  1
  Te  Te131  1  0.25027211  0.58042611  0.76900314  1
  Te  Te132  1  0.25283562  0.89504371  0.08639390  1
  Te  Te133  1  0.22976150  0.91883951  0.42282232  1
  Te  Te134  1  0.23482331  0.89045715  0.73511393  1
  Te  Te135  1  0.58515059  0.25184922  0.08891248  1
  Te  Te136  1  0.61662264  0.22083041  0.42872072  1
  Te  Te137  1  0.58974632  0.26091406  0.73372242  1
  Te  Te138  1  0.56786690  0.58307290  0.07957295  1
  Te  Te139  1  0.59667820  0.57353951  0.42002373  1
  Te  Te140  1  0.57328224  0.58885160  0.75592134  1
  Te  Te141  1  0.59962188  0.85757553  0.08942487  1
  Te  Te142  1  0.57685826  0.91911006  0.42453099  1
  Te  Te143  1  0.59483079  0.92538553  0.74855801  1
  Te  Te144  1  0.91912118  0.27075778  0.04538266  1
  Te  Te145  1  0.89853719  0.25058264  0.41856355  1
  Te  Te146  1  0.87369395  0.27092844  0.76016815  1
  Te  Te147  1  0.96538120  0.54501507  0.11017873  1
  Te  Te148  1  0.92133269  0.57791362  0.41771243  1
  Te  Te149  1  0.92485305  0.57788677  0.75545961  1
  Te  Te150  1  0.91785337  0.92175499  0.07277967  1
  Te  Te151  1  0.89950073  0.91673054  0.42607427  1
  Te  Te152  1  0.92517174  0.92704213  0.76505130  1
  Te  Te153  1  0.24523777  0.07754007  0.24897904  1
  Te  Te154  1  0.24980885  0.07343205  0.57346058  1
  Te  Te155  1  0.25188627  0.09155404  0.92066158  1
  Te  Te156  1  0.26713172  0.43330169  0.22522637  1
  Te  Te157  1  0.27940626  0.41671134  0.58347450  1
  Te  Te158  1  0.24145383  0.41482175  0.91249915  1
  Te  Te159  1  0.26949880  0.75621346  0.24910000  1
  Te  Te160  1  0.24042924  0.74973688  0.57279170  1
  Te  Te161  1  0.27395920  0.72442117  0.92681797  1
  Te  Te162  1  0.57892394  0.05823116  0.24012856  1
  Te  Te163  1  0.63346306  0.09684314  0.59772453  1
  Te  Te164  1  0.58441457  0.07556024  0.91326384  1
  Te  Te165  1  0.59501263  0.39791486  0.26793556  1
  Te  Te166  1  0.61029457  0.41287096  0.58461924  1
  Te  Te167  1  0.57062201  0.44005259  0.93635086  1
  Te  Te168  1  0.56938244  0.72302031  0.22823838  1
  Te  Te169  1  0.61219850  0.76213730  0.57120912  1
  Te  Te170  1  0.56502685  0.71312155  0.90607127  1
  Te  Te171  1  0.90102470  0.10386970  0.25137001  1
  Te  Te172  1  0.91744068  0.09218936  0.61097110  1
  Te  Te173  1  0.88506291  0.08602436  0.90736825  1
  Te  Te174  1  0.91467067  0.43407972  0.22881485  1
  Te  Te175  1  0.92392200  0.42080726  0.57497348  1
  Te  Te176  1  0.89766559  0.38136793  0.93786144  1
  Te  Te177  1  0.89745926  0.74965128  0.25250479  1
  Te  Te178  1  0.91559591  0.74671952  0.60737864  1
  Te  Te179  1  0.92701730  0.74176486  0.92936964  1
