# generated using pymatgen
data_In2Te3
_symmetry_space_group_name_H-M   'P 1'
_cell_length_a   18.85723568
_cell_length_b   18.86579571
_cell_length_c   18.85806867
_cell_angle_alpha   90.03511837
_cell_angle_beta   90.06214942
_cell_angle_gamma   90.06327386
_symmetry_Int_Tables_number   1
_chemical_formula_structural   In2Te3
_chemical_formula_sum   'In72 Te108'
_cell_volume   6708.87603204
_cell_formula_units_Z   36
loop_
 _symmetry_equiv_pos_site_id
 _symmetry_equiv_pos_as_xyz
  1  'x, y, z'
loop_
 _atom_site_type_symbol
 _atom_site_label
 _atom_site_symmetry_multiplicity
 _atom_site_fract_x
 _atom_site_fract_y
 _atom_site_fract_z
 _atom_site_occupancy
  In  In0  1  0.79811199  0.15086731  0.01821425  1
  In  In1  1  0.51804282  0.81201389  0.33940923  1
  In  In2  1  0.67603922  0.15330753  0.82023654  1
  In  In3  1  0.82770949  -0.00535210  0.83446128  1
  In  In4  1  0.02458788  0.65926281  0.71491891  1
  In  In5  1  0.50792844  0.83943574  0.69460810  1
  In  In6  1  0.16712439  0.83199819  0.31668715  1
  In  In7  1  -0.01403706  0.35796822  0.66405546  1
  In  In8  1  0.82470308  0.85708699  0.29982066  1
  In  In9  1  0.85071627  0.50991999  0.00471564  1
  In  In10  1  -0.00599986  0.68135137  -0.02297953  1
  In  In11  1  0.83074699  0.33891023  0.18225582  1
  In  In12  1  0.49996840  0.63877104  0.50234721  1
  In  In13  1  0.31932739  0.33100267  0.66871971  1
  In  In14  1  0.31080453  0.37208829  -0.00920556  1
  In  In15  1  0.49928737  0.00178014  0.14935929  1
  In  In16  1  0.65538205  0.65627827  0.33367608  1
  In  In17  1  0.83478253  0.65986683  0.51478575  1
  In  In18  1  0.49925427  0.13780354  0.67858015  1
  In  In19  1  0.18680347  0.51109106  0.69541563  1
  In  In20  1  0.85138660  0.49719386  0.66445271  1
  In  In21  1  0.48336622  -0.01132258  0.82244725  1
  In  In22  1  -0.01259338  0.30926639  0.32297395  1
  In  In23  1  0.01309956  0.82292235  0.15491128  1
  In  In24  1  -0.02276742  0.16730843  0.49269458  1
  In  In25  1  0.32678722  0.65617660  0.31185258  1
  In  In26  1  0.17048670  0.36528997  0.15390695  1
  In  In27  1  0.49034067  0.66994372  0.17469561  1
  In  In28  1  0.30711436  0.81449476  0.52230263  1
  In  In29  1  0.01808672  0.16425656  0.83270373  1
  In  In30  1  0.32828054  0.85104876  0.12398399  1
  In  In31  1  0.16563367  0.67906774  0.52974422  1
  In  In32  1  0.84338136  0.48428442  0.33726060  1
  In  In33  1  0.33296409  0.16791547  0.16156388  1
  In  In34  1  0.83015466  0.00839332  0.50681076  1
  In  In35  1  0.33827689  0.00664634  0.31448180  1
  In  In36  1  0.30028091  0.19178772  0.49997175  1
  In  In37  1  0.33691663  0.50270247  0.48850669  1
  In  In38  1  0.64569861  0.82717915  0.48900477  1
  In  In39  1  0.65947798  0.33339752  0.32359988  1
  In  In40  1  0.82529773  0.31829382  0.83118900  1
  In  In41  1  0.00079416  0.32438928  0.01726801  1
  In  In42  1  0.49150617  0.19501321  0.32199236  1
  In  In43  1  0.32337544  0.64036832  0.01206689  1
  In  In44  1  0.16953940  0.13536997  -0.01837903  1
  In  In45  1  0.50015331  0.50411634  0.66923374  1
  In  In46  1  0.15516910  0.32487119  0.46887942  1
  In  In47  1  0.82120271  0.70222791  0.14007222  1
  In  In48  1  0.49412648  0.17263947  0.01423514  1
  In  In49  1  0.16628343  -0.00430644  0.15307817  1
  In  In50  1  0.67609257  0.49924403  0.16100990  1
  In  In51  1  0.00147775  -0.01692199  -0.01004753  1
  In  In52  1  0.35044299  -0.01348155  0.68859162  1
  In  In53  1  0.66472890  0.51246295  0.84693805  1
  In  In54  1  0.17237462  0.17115702  0.67941887  1
  In  In55  1  0.66258461  0.15865988  0.14800495  1
  In  In56  1  0.14583638  0.01555455  0.49201143  1
  In  In57  1  -0.03079908  0.84131822  0.48369680  1
  In  In58  1  -0.00308054  0.47129737  0.49951107  1
  In  In59  1  0.49868272  0.35146854  0.49746377  1
  In  In60  1  0.48296740  0.50928779  -0.00266464  1
  In  In61  1  0.49937452  0.32331165  0.83144472  1
  In  In62  1  0.67233834  0.00213204  0.01608131  1
  In  In63  1  0.15040290  0.84667292  0.69450690  1
  In  In64  1  0.04343930  0.64331633  0.29806860  1
  In  In65  1  0.66035314  -0.02442689  0.68628631  1
  In  In66  1  0.69169538  0.66914823  0.69501031  1
  In  In67  1  0.01776409  0.51269173  0.82473283  1
  In  In68  1  0.74599254  0.20298152  0.48125093  1
  In  In69  1  0.85725017  0.83888986  0.68891715  1
  In  In70  1  0.51094164  -0.00470056  0.47538144  1
  In  In71  1  0.32816876  0.81652701  0.86094330  1
  Te  Te72  1  0.06517710  0.08645361  0.08120688  1
  Te  Te73  1  0.07849028  0.10717398  0.40060471  1
  Te  Te74  1  0.09052584  0.06906565  0.74699467  1
  Te  Te75  1  0.07777739  0.44196174  0.06488280  1
  Te  Te76  1  0.08220557  0.42656930  0.38450363  1
  Te  Te77  1  0.09823087  0.40221276  0.75626511  1
  Te  Te78  1  0.10078189  0.74501449  0.06358599  1
  Te  Te79  1  0.08382325  0.75530304  0.41925390  1
  Te  Te80  1  0.09614257  0.75583560  0.80353153  1
  Te  Te81  1  0.39274255  0.06864056  0.06375124  1
  Te  Te82  1  0.40776540  0.09420993  0.41895856  1
  Te  Te83  1  0.38987270  0.10670775  0.78225589  1
  Te  Te84  1  0.39962568  0.43211313  0.09518746  1
  Te  Te85  1  0.39495683  0.39651585  0.40452613  1
  Te  Te86  1  0.40746881  0.41936365  0.75690250  1
  Te  Te87  1  0.42357152  0.74805015  0.06443050  1
  Te  Te88  1  0.41090484  0.74348345  0.42460726  1
  Te  Te89  1  0.41979875  0.74751679  0.76666537  1
  Te  Te90  1  0.78000959  0.04872055  0.13329134  1
  Te  Te91  1  0.74820078  0.07605526  0.40606994  1
  Te  Te92  1  0.76625488  0.08026039  0.72285627  1
  Te  Te93  1  0.75613226  0.40803885  0.06848650  1
  Te  Te94  1  0.73372535  0.42568906  0.41399310  1
  Te  Te95  1  0.74842718  0.42383991  0.75326662  1
  Te  Te96  1  0.73372143  0.76611617  0.03891836  1
  Te  Te97  1  0.75639642  0.74766150  0.41568232  1
  Te  Te98  1  0.76288324  0.76784689  0.78231181  1
  Te  Te99  1  0.09249833  0.25446517  0.22639110  1
  Te  Te100  1  0.07869937  0.25695611  0.58211242  1
  Te  Te101  1  0.09758249  0.25966032  0.91984848  1
  Te  Te102  1  0.14335401  0.58155856  0.20775214  1
  Te  Te103  1  0.07299826  0.56705985  0.59396711  1
  Te  Te104  1  0.09172824  0.56649868  0.94356931  1
  Te  Te105  1  0.07096322  0.92910011  0.25182568  1
  Te  Te106  1  0.07693231  0.90661518  0.57298262  1
  Te  Te107  1  0.04334497  0.88224665  0.88951724  1
  Te  Te108  1  0.41448148  0.27316729  0.22483333  1
  Te  Te109  1  0.41621153  0.23755319  0.59123801  1
  Te  Te110  1  0.40220841  0.26204762  0.93095724  1
  Te  Te111  1  0.44300243  0.57326927  0.27539744  1
  Te  Te112  1  0.39364514  0.59010080  0.59995838  1
  Te  Te113  1  0.40306384  0.58577886  0.89695150  1
  Te  Te114  1  0.41960449  0.89636466  0.24944471  1
  Te  Te115  1  0.43181395  0.90988391  0.57572840  1
  Te  Te116  1  0.42782993  0.90485241  0.92956413  1
  Te  Te117  1  0.74764769  0.23324715  0.25181064  1
  Te  Te118  1  0.78530108  0.27027791  0.60408662  1
  Te  Te119  1  0.72666889  0.25119631  0.92573332  1
  Te  Te120  1  0.76810691  0.59162493  0.24360826  1
  Te  Te121  1  0.73699858  0.57084596  0.58648746  1
  Te  Te122  1  0.74923093  0.60081851  0.93744789  1
  Te  Te123  1  0.73751753  0.91341920  0.19813890  1
  Te  Te124  1  0.74867092  0.89050028  0.58554032  1
  Te  Te125  1  0.77651511  0.91542035  0.95033390  1
  Te  Te126  1  0.23998371  0.25052323  0.07057282  1
  Te  Te127  1  0.25633124  0.26362924  0.38008617  1
  Te  Te128  1  0.24383995  0.25979967  0.77294079  1
  Te  Te129  1  0.27929374  0.54932105  0.12445146  1
  Te  Te130  1  0.23672984  0.59693962  0.42172870  1
  Te  Te131  1  0.25407570  0.58104658  0.80586580  1
  Te  Te132  1  0.22906907  0.92281738  0.04200799  1
  Te  Te133  1  0.25325291  0.91930640  0.41370097  1
  Te  Te134  1  0.24440458  0.93071546  0.78385013  1
  Te  Te135  1  0.57466197  0.26437456  0.09620148  1
  Te  Te136  1  0.58780276  0.23854943  0.43258483  1
  Te  Te137  1  0.59079939  0.24730160  0.73500966  1
  Te  Te138  1  0.59135752  0.59448487  0.07611653  1
  Te  Te139  1  0.58199274  0.55551798  0.41292775  1
  Te  Te140  1  0.57355481  0.60141672  0.76373918  1
  Te  Te141  1  0.56378890  0.90913366  0.05482094  1
  Te  Te142  1  0.61034100  0.92822991  0.38110959  1
  Te  Te143  1  0.60548540  0.89271080  0.79944064  1
  Te  Te144  1  0.90529320  0.23564048  0.09392363  1
  Te  Te145  1  0.87767082  0.24586734  0.41061815  1
  Te  Te146  1  0.92133997  0.24250434  0.74116792  1
  Te  Te147  1  0.92732172  0.60346676  0.09588578  1
  Te  Te148  1  0.92949015  0.58803001  0.41877764  1
  Te  Te149  1  0.89336893  0.59718183  0.77541580  1
  Te  Te150  1  0.91386362  0.88837060  0.06438132  1
  Te  Te151  1  0.91410155  0.94419493  0.38848620  1
  Te  Te152  1  0.94769356  0.92592936  0.77144996  1
  Te  Te153  1  0.23330136  0.09326757  0.25107505  1
  Te  Te154  1  0.26068671  0.06633647  0.58886177  1
  Te  Te155  1  0.25164893  0.07165426  0.87899634  1
  Te  Te156  1  0.23778584  0.46024009  0.24929933  1
  Te  Te157  1  0.23415080  0.41752931  0.57410850  1
  Te  Te158  1  0.23116040  0.47333704  0.91559885  1
  Te  Te159  1  0.25469765  0.75571214  0.22041076  1
  Te  Te160  1  0.24841047  0.74103496  0.64170695  1
  Te  Te161  1  0.23347870  0.74771823  0.95656122  1
  Te  Te162  1  0.57252153  0.08669077  0.25036759  1
  Te  Te163  1  0.59396430  0.06752633  0.58209281  1
  Te  Te164  1  0.57840659  0.08468696  0.91448772  1
  Te  Te165  1  0.57806744  0.42157945  0.23840551  1
  Te  Te166  1  0.58783763  0.41438159  0.59404846  1
  Te  Te167  1  0.57916003  0.41377979  0.92538309  1
  Te  Te168  1  0.60692499  0.75611314  0.22925895  1
  Te  Te169  1  0.58288486  0.73590277  0.59344996  1
  Te  Te170  1  0.62333911  0.69392454  0.95682654  1
  Te  Te171  1  0.96511336  0.17567352  0.25277409  1
  Te  Te172  1  0.93393984  0.06696414  0.59149420  1
  Te  Te173  1  0.90672348  0.10071317  0.92085280  1
  Te  Te174  1  0.93929584  0.43105262  0.23373294  1
  Te  Te175  1  0.87558461  0.38797059  0.55456532  1
  Te  Te176  1  0.92226759  0.41114541  0.90455125  1
  Te  Te177  1  0.92460353  0.74764814  0.25899150  1
  Te  Te178  1  0.93709492  0.73677722  0.60029088  1
  Te  Te179  1  0.89367447  0.72237462  0.87551684  1
