# generated using pymatgen
data_In2Te3
_symmetry_space_group_name_H-M   'P 1'
_cell_length_a   18.77038146
_cell_length_b   18.76433962
_cell_length_c   18.77334359
_cell_angle_alpha   89.95628089
_cell_angle_beta   89.92898234
_cell_angle_gamma   89.95323530
_symmetry_Int_Tables_number   1
_chemical_formula_structural   In2Te3
_chemical_formula_sum   'In72 Te108'
_cell_volume   6612.22171477
_cell_formula_units_Z   36
loop_
 _symmetry_equiv_pos_site_id
 _symmetry_equiv_pos_as_xyz
  1  'x, y, z'
loop_
 _atom_site_type_symbol
 _atom_site_label
 _atom_site_symmetry_multiplicity
 _atom_site_fract_x
 _atom_site_fract_y
 _atom_site_fract_z
 _atom_site_occupancy
  In  In0  1  0.14583863  0.66058754  0.14037928  1
  In  In1  1  0.00212331  0.32805060  -0.00305023  1
  In  In2  1  0.67829326  0.34745737  0.36204874  1
  In  In3  1  0.49152707  0.86053588  0.33391180  1
  In  In4  1  -0.00784481  0.17999543  0.81383214  1
  In  In5  1  0.50152744  0.87278548  0.01718461  1
  In  In6  1  0.86338774  0.64511001  0.81227153  1
  In  In7  1  0.66587801  0.64895665  0.65138500  1
  In  In8  1  0.17169139  0.17868321  0.66642766  1
  In  In9  1  0.51023359  0.03117384  0.86020852  1
  In  In10  1  0.85460018  0.65011160  0.46041537  1
  In  In11  1  0.83463333  0.48025997  0.00754047  1
  In  In12  1  0.17871756  0.83380710  0.02178971  1
  In  In13  1  0.82678402  0.84001407  0.66828623  1
  In  In14  1  0.31538833  0.32746600  0.67519223  1
  In  In15  1  0.33653269  0.82051390  0.83596217  1
  In  In16  1  0.80887250  0.16294292  -0.00657270  1
  In  In17  1  0.85605264  0.16519149  0.34650289  1
  In  In18  1  0.14204382  0.84577515  0.65258297  1
  In  In19  1  0.50617999  0.47716178  0.34188093  1
  In  In20  1  0.31831023  0.31837158  0.00309172  1
  In  In21  1  0.50480832  0.34988463  0.48600230  1
  In  In22  1  0.14788593  0.47796522  0.67930938  1
  In  In23  1  0.69315383  0.50722867  0.15592044  1
  In  In24  1  0.32888699  0.66483083  0.33511957  1
  In  In25  1  0.00308376  0.16585694  0.50946753  1
  In  In26  1  0.67419585  0.01776467  0.65787395  1
  In  In27  1  0.00341783  0.65810778  0.67287773  1
  In  In28  1  0.69401743  0.48860504  0.51280520  1
  In  In29  1  0.15911023  0.34334300  0.48766318  1
  In  In30  1  0.83404417  0.82995175  -0.01034645  1
  In  In31  1  0.66432381  0.46789293  0.82342218  1
  In  In32  1  0.00765635  0.00507868  0.32837961  1
  In  In33  1  0.15123342  0.16611377  0.00464169  1
  In  In34  1  0.50236807  0.30316136  0.84624860  1
  In  In35  1  0.66172042  0.84127829  0.85075432  1
  In  In36  1  0.50278766  0.67704090  0.50383276  1
  In  In37  1  0.66954511  0.16990606  0.14824887  1
  In  In38  1  0.67685799  0.00083667  0.33412086  1
  In  In39  1  0.83480590  0.34342682  0.16818546  1
  In  In40  1  0.33363039  0.16907376  0.49185656  1
  In  In41  1  0.00391769  0.48608209  0.16637029  1
  In  In42  1  0.33735322  0.65820041  -0.00620809  1
  In  In43  1  0.31089427  0.65993725  0.65970680  1
  In  In44  1  0.00265078  0.84661909  0.48969907  1
  In  In45  1  -0.01390913  -0.01340911  0.01620083  1
  In  In46  1  0.33634321  0.50379229  0.83092221  1
  In  In47  1  0.51697974  0.16334851  0.68051681  1
  In  In48  1  0.51832178  0.50336053  0.65571185  1
  In  In49  1  0.82032424  -0.00641285  0.82002327  1
  In  In50  1  0.49316853  0.19486225  0.33714244  1
  In  In51  1  0.30287008  0.02495062  0.32094898  1
  In  In52  1  0.86379289  0.00530407  0.49367884  1
  In  In53  1  0.01940260  0.18042901  0.20274523  1
  In  In54  1  0.83900100  0.32714297  0.82347965  1
  In  In55  1  0.13983225  0.51211386  -0.02578965  1
  In  In56  1  0.85806623  0.68497046  0.19620191  1
  In  In57  1  0.17290046  0.01967865  0.84617221  1
  In  In58  1  0.66487709  0.67065725  -0.01142018  1
  In  In59  1  0.48660466  0.83544126  0.66521892  1
  In  In60  1  0.33444076  0.46460832  0.18226289  1
  In  In61  1  0.15043368  0.66947460  0.52091699  1
  In  In62  1  0.69234548  0.66659460  0.32370637  1
  In  In63  1  0.34730520  0.00558680  0.66106299  1
  In  In64  1  0.15595641  0.50242688  0.33868337  1
  In  In65  1  0.49773726  0.30785834  0.15468482  1
  In  In66  1  -0.02144378  0.83142699  0.82613633  1
  In  In67  1  0.50783110  0.67205868  0.14437358  1
  In  In68  1  0.34369885  0.30362932  0.31873720  1
  In  In69  1  0.64624306  0.85909980  0.15325714  1
  In  In70  1  0.31883719  0.87150036  0.18376295  1
  In  In71  1  0.15676405  0.84601479  0.34221475  1
  Te  Te72  1  0.07522324  0.07602543  0.10195196  1
  Te  Te73  1  0.09110439  0.08309814  0.42173824  1
  Te  Te74  1  0.08091875  0.07858785  0.74006598  1
  Te  Te75  1  0.10203214  0.40665332  0.08028376  1
  Te  Te76  1  0.05099572  0.42816771  0.42050562  1
  Te  Te77  1  0.04202500  0.42633768  0.76803318  1
  Te  Te78  1  0.06291293  0.77540696  0.09566314  1
  Te  Te79  1  0.07170840  0.73650378  0.40762738  1
  Te  Te80  1  0.09021173  0.74883384  0.75844199  1
  Te  Te81  1  0.44094295  0.00722037  0.07756503  1
  Te  Te82  1  0.42210855  0.07932708  0.40891891  1
  Te  Te83  1  0.40732551  0.09864652  0.76480026  1
  Te  Te84  1  0.42265466  0.41243718  0.07122815  1
  Te  Te85  1  0.38718476  0.41715224  0.41469404  1
  Te  Te86  1  0.42711594  0.41209409  0.74255149  1
  Te  Te87  1  0.40208834  0.76834458  0.08945172  1
  Te  Te88  1  0.40752050  0.76321401  0.42062424  1
  Te  Te89  1  0.41798776  0.72607936  0.74751237  1
  Te  Te90  1  0.76876552  0.06941565  0.10049413  1
  Te  Te91  1  0.75340733  0.09381743  0.43244128  1
  Te  Te92  1  0.74744394  0.10338670  0.75324376  1
  Te  Te93  1  0.72889755  0.38680690  0.06644482  1
  Te  Te94  1  0.79483119  0.41782932  0.42457767  1
  Te  Te95  1  0.76477120  0.41723438  0.72495766  1
  Te  Te96  1  0.74362466  0.74225439  0.09738155  1
  Te  Te97  1  0.74824911  0.74733195  0.43272207  1
  Te  Te98  1  0.75133977  0.74949907  0.76648512  1
  Te  Te99  1  0.11047319  0.26381224  0.28095840  1
  Te  Te100  1  0.07847184  0.27662081  0.59755356  1
  Te  Te101  1  0.09332512  0.25891646  0.89613348  1
  Te  Te102  1  0.06783382  0.59538304  0.25422197  1
  Te  Te103  1  0.06357827  0.55542769  0.57422948  1
  Te  Te104  1  0.04621806  0.61203800  0.92539926  1
  Te  Te105  1  0.09346183  0.92610718  0.23634600  1
  Te  Te106  1  0.07731276  0.94740800  0.56708082  1
  Te  Te107  1  0.07943380  0.91266976  0.91123389  1
  Te  Te108  1  0.39781452  0.20289116  0.21068721  1
  Te  Te109  1  0.41899673  0.25654887  0.58310805  1
  Te  Te110  1  0.41274930  0.22335129  0.93679914  1
  Te  Te111  1  0.42449416  0.58060712  0.24593359  1
  Te  Te112  1  0.41168772  0.57687132  0.57512488  1
  Te  Te113  1  0.43177699  0.57682351  0.91616625  1
  Te  Te114  1  0.43699046  0.95854390  0.23042935  1
  Te  Te115  1  0.42562272  0.92499845  0.56594991  1
  Te  Te116  1  0.40069708  0.93219670  0.91480093  1
  Te  Te117  1  0.74895617  0.25018915  0.25800592  1
  Te  Te118  1  0.74816736  0.30109227  0.59161789  1
  Te  Te119  1  0.73430995  0.25393882  0.90352241  1
  Te  Te120  1  0.78437547  0.56072510  0.26342401  1
  Te  Te121  1  0.78557635  0.58454504  0.58946655  1
  Te  Te122  1  0.75735201  0.57599358  0.91002590  1
  Te  Te123  1  0.74930903  0.90255036  0.24872035  1
  Te  Te124  1  0.75209115  0.92227251  0.56699108  1
  Te  Te125  1  0.73903693  0.93825134  0.93841790  1
  Te  Te126  1  0.24044807  0.23728113  0.10549355  1
  Te  Te127  1  0.22729888  0.23357628  0.40198974  1
  Te  Te128  1  0.24664579  0.24565990  0.77545558  1
  Te  Te129  1  0.25654019  0.56607761  0.08835252  1
  Te  Te130  1  0.24515846  0.58359284  0.43253074  1
  Te  Te131  1  0.22537693  0.58285882  0.75969424  1
  Te  Te132  1  0.24848845  0.95003950  0.07967017  1
  Te  Te133  1  0.25883493  0.92180131  0.41622065  1
  Te  Te134  1  0.24963488  0.91502102  0.74925852  1
  Te  Te135  1  0.55979573  0.21240871  0.05119502  1
  Te  Te136  1  0.60069526  0.24066370  0.43758766  1
  Te  Te137  1  0.61092393  0.24398536  0.76140172  1
  Te  Te138  1  0.58213023  0.56498518  0.06671075  1
  Te  Te139  1  0.59202189  0.57551624  0.42213902  1
  Te  Te140  1  0.58438049  0.58838958  0.76380765  1
  Te  Te141  1  0.59302401  0.98091791  0.07553153  1
  Te  Te142  1  0.58969859  0.92012888  0.42485822  1
  Te  Te143  1  0.57687715  0.92762415  0.75777869  1
  Te  Te144  1  0.91901884  0.23686650  0.08462977  1
  Te  Te145  1  0.92747941  0.26569697  0.42686060  1
  Te  Te146  1  0.90655607  0.24895598  0.71326350  1
  Te  Te147  1  0.91244831  0.58155309  0.08982041  1
  Te  Te148  1  0.95403172  0.55366659  0.41432991  1
  Te  Te149  1  0.93509271  0.53617162  0.73472166  1
  Te  Te150  1  0.91499781  0.88697313  0.10010160  1
  Te  Te151  1  0.90075584  0.89534554  0.38513173  1
  Te  Te152  1  0.92922995  0.93635523  0.72725841  1
  Te  Te153  1  0.25261625  0.11938897  0.21954003  1
  Te  Te154  1  0.24333460  0.07886416  0.57534803  1
  Te  Te155  1  0.26295511  0.09485850  0.93483947  1
  Te  Te156  1  0.22338201  0.39048785  0.25571870  1
  Te  Te157  1  0.25178253  0.42607879  0.57916643  1
  Te  Te158  1  0.24016928  0.41532816  0.90965821  1
  Te  Te159  1  0.24237999  0.74294834  0.23758889  1
  Te  Te160  1  0.25182174  0.77184476  0.57380685  1
  Te  Te161  1  0.23424949  0.73834678  0.91486685  1
  Te  Te162  1  0.58792180  0.10142864  0.25745305  1
  Te  Te163  1  0.57141352  0.08071345  0.57177606  1
  Te  Te164  1  0.60366901  0.11903841  0.93295881  1
  Te  Te165  1  0.59096311  0.40430657  0.23831074  1
  Te  Te166  1  0.60397563  0.39004851  0.59830648  1
  Te  Te167  1  0.57750978  0.40517516  0.92400458  1
  Te  Te168  1  0.57750090  0.74790360  0.25744473  1
  Te  Te169  1  0.59893921  0.76632886  0.58215631  1
  Te  Te170  1  0.55836165  0.75612279  0.92133796  1
  Te  Te171  1  0.90678035  0.07493340  0.23666254  1
  Te  Te172  1  0.89802625  0.10503107  0.59758696  1
  Te  Te173  1  0.92188397  0.08179489  0.91214644  1
  Te  Te174  1  0.94107214  0.38836285  0.25852543  1
  Te  Te175  1  0.86791100  0.37716381  0.56934923  1
  Te  Te176  1  0.93423175  0.42838526  0.90422997  1
  Te  Te177  1  0.92583390  0.76696953  0.29602116  1
  Te  Te178  1  0.92030007  0.75172752  0.58311637  1
  Te  Te179  1  0.93141418  0.72217959  0.93075689  1
