# generated using pymatgen
data_In2Te3
_symmetry_space_group_name_H-M   'P 1'
_cell_length_a   18.78038348
_cell_length_b   18.77974418
_cell_length_c   18.78957927
_cell_angle_alpha   89.95062158
_cell_angle_beta   90.04441847
_cell_angle_gamma   89.99475497
_symmetry_Int_Tables_number   1
_chemical_formula_structural   In2Te3
_chemical_formula_sum   'In72 Te108'
_cell_volume   6626.90721556
_cell_formula_units_Z   36
loop_
 _symmetry_equiv_pos_site_id
 _symmetry_equiv_pos_as_xyz
  1  'x, y, z'
loop_
 _atom_site_type_symbol
 _atom_site_label
 _atom_site_symmetry_multiplicity
 _atom_site_fract_x
 _atom_site_fract_y
 _atom_site_fract_z
 _atom_site_occupancy
  In  In0  1  0.31383610  0.16835958  0.14652733  1
  In  In1  1  0.49438774  0.81971137  0.30696567  1
  In  In2  1  0.67850654  0.32138202  0.31993266  1
  In  In3  1  0.02281324  0.49583197  0.52657883  1
  In  In4  1  0.28999360  0.30908095  -0.00260341  1
  In  In5  1  0.70197068  -0.01118122  0.32895293  1
  In  In6  1  0.84130352  0.65871755  0.14132762  1
  In  In7  1  0.66037918  0.48317272  0.15833009  1
  In  In8  1  0.68126133  0.34389198  0.67514533  1
  In  In9  1  0.30825097  0.51031356  0.17373609  1
  In  In10  1  0.66911853  0.65367051  0.66299484  1
  In  In11  1  0.84621268  0.85613040  -0.00405861  1
  In  In12  1  0.85142532  0.16352888  -0.01647551  1
  In  In13  1  0.52324407  0.34564856  0.83401383  1
  In  In14  1  0.16374916  0.33027593  0.51168463  1
  In  In15  1  0.67001979  0.84119013  0.17360714  1
  In  In16  1  0.31670024  0.00875285  0.68490585  1
  In  In17  1  0.83208070  0.47953810  -0.01392922  1
  In  In18  1  0.14292046  0.84207785  0.34076563  1
  In  In19  1  -0.01285428  0.32470821  -0.00303215  1
  In  In20  1  0.32670011  0.64909355  0.36146257  1
  In  In21  1  0.32501720  0.49093612  0.51510039  1
  In  In22  1  0.49249251  0.84490897  -0.03150002  1
  In  In23  1  0.82638183  0.66391782  0.52327614  1
  In  In24  1  0.13742286  0.64466638  0.84586323  1
  In  In25  1  0.50875772  0.17019037  -0.02018248  1
  In  In26  1  0.68630907  0.16482726  0.83774104  1
  In  In27  1  0.67529844  0.00168699  0.68343883  1
  In  In28  1  0.15759730  0.85962838  -0.01190071  1
  In  In29  1  0.15200729  0.17423495  0.33718407  1
  In  In30  1  0.32989871  0.67183075  0.01036034  1
  In  In31  1  0.49868587  -0.01132203  0.51090295  1
  In  In32  1  0.83997111  0.48836750  0.33906996  1
  In  In33  1  0.30273670  0.82625089  0.49897087  1
  In  In34  1  0.48291248  0.50761111  0.01776205  1
  In  In35  1  0.50369046  0.01532674  0.14367099  1
  In  In36  1  0.85160251  0.84457892  0.66023991  1
  In  In37  1  0.29979701  0.83661570  0.14108005  1
  In  In38  1  0.85052036  0.30743546  0.49303285  1
  In  In39  1  0.67601207  0.84201633  0.84669185  1
  In  In40  1  0.68189765  0.30900851  0.00694108  1
  In  In41  1  0.33264658  0.85225208  0.81889717  1
  In  In42  1  0.50414188  0.81895483  0.69127557  1
  In  In43  1  0.50743308  0.35331299  0.18336510  1
  In  In44  1  0.00103349  0.31854404  0.33427479  1
  In  In45  1  0.51637251  0.17313579  0.33452425  1
  In  In46  1  0.16650453  0.67738037  0.15999346  1
  In  In47  1  -0.02566880  0.02680829  0.30266461  1
  In  In48  1  0.32386926  0.31783121  0.66180902  1
  In  In49  1  0.31043961  0.51291905  0.83875993  1
  In  In50  1  0.33272684  0.36970021  0.33319562  1
  In  In51  1  -0.00341495  0.86599623  0.83868297  1
  In  In52  1  0.72096139  0.15965950  0.15676618  1
  In  In53  1  0.17280647  0.83970308  0.67115882  1
  In  In54  1  0.00507872  0.67697237  0.32976478  1
  In  In55  1  0.80811932  0.84535010  0.33537246  1
  In  In56  1  0.00712794  0.31771337  0.67551794  1
  In  In57  1  0.50202283  0.50275186  0.66367216  1
  In  In58  1  0.31047738  0.15054449  0.83631422  1
  In  In59  1  0.50922008  0.61792089  0.48429973  1
  In  In60  1  0.67716618  0.15997620  0.50264034  1
  In  In61  1  0.50434939  0.64446422  0.17225573  1
  In  In62  1  -0.00094406  0.85426245  0.14314869  1
  In  In63  1  0.31621710  -0.01423455  0.34413476  1
  In  In64  1  0.13352707  0.31035233  0.82207941  1
  In  In65  1  0.01661188  0.83436211  0.51501988  1
  In  In66  1  0.67953052  0.82122424  0.48855075  1
  In  In67  1  0.32538948  0.16124996  0.53426755  1
  In  In68  1  0.00688824  0.49803000  0.15635303  1
  In  In69  1  0.68367037  0.49963806  0.81953559  1
  In  In70  1  0.87917386  0.02185809  0.52085432  1
  In  In71  1  0.86457499  0.64053024  0.81067914  1
  Te  Te72  1  0.11978040  0.06383459  0.05788626  1
  Te  Te73  1  0.05985369  0.08197795  0.41236434  1
  Te  Te74  1  0.03730258  0.11947735  0.75009494  1
  Te  Te75  1  0.08727274  0.41029082  0.06828901  1
  Te  Te76  1  0.08787872  0.41851992  0.41189174  1
  Te  Te77  1  0.06151959  0.43065752  0.76205773  1
  Te  Te78  1  0.07662626  0.75107248  0.06211694  1
  Te  Te79  1  0.09965619  0.73100183  0.43658523  1
  Te  Te80  1  0.07775476  0.76119109  0.76456536  1
  Te  Te81  1  0.40172721  0.08483906  0.05270731  1
  Te  Te82  1  0.41776791  0.08038462  0.41449410  1
  Te  Te83  1  0.41701864  0.09342067  0.75279788  1
  Te  Te84  1  0.39672803  0.40044717  0.08430372  1
  Te  Te85  1  0.42323188  0.40871635  0.44062320  1
  Te  Te86  1  0.40862008  0.41518487  0.75760101  1
  Te  Te87  1  0.42469748  0.75510097  0.09778439  1
  Te  Te88  1  0.42217418  0.75369079  0.42415776  1
  Te  Te89  1  0.39611694  0.73894416  0.74907758  1
  Te  Te90  1  0.73631929  0.07945403  0.03447732  1
  Te  Te91  1  0.78004429  0.08425002  0.41967363  1
  Te  Te92  1  0.77655461  0.08580384  0.74879438  1
  Te  Te93  1  0.77019427  0.39419478  0.09824719  1
  Te  Te94  1  0.75107689  0.40461243  0.42854136  1
  Te  Te95  1  0.78460941  0.41300525  0.75800290  1
  Te  Te96  1  0.75084666  0.75911685  0.07103766  1
  Te  Te97  1  0.74960711  0.71848174  0.40233279  1
  Te  Te98  1  0.75883731  0.75034428  0.74240409  1
  Te  Te99  1  0.06804182  0.23481304  0.22949449  1
  Te  Te100  1  0.06861898  0.22990241  0.56882123  1
  Te  Te101  1  0.07866793  0.21390365  0.92675850  1
  Te  Te102  1  0.09492366  0.58001392  0.25385083  1
  Te  Te103  1  0.07846129  0.59194124  0.62526212  1
  Te  Te104  1  0.06172831  0.57431933  0.94957469  1
  Te  Te105  1  0.08428649  0.93703711  0.23862239  1
  Te  Te106  1  0.07598878  0.93307006  0.60611016  1
  Te  Te107  1  0.05043827  0.96150438  0.94647867  1
  Te  Te108  1  0.41255832  0.24385674  0.24631195  1
  Te  Te109  1  0.42940882  0.25273370  0.58264593  1
  Te  Te110  1  0.41179146  0.26598971  0.90866514  1
  Te  Te111  1  0.41492489  0.56589576  0.26720458  1
  Te  Te112  1  0.40587318  0.59807344  0.59228369  1
  Te  Te113  1  0.41802891  0.59600241  0.91143234  1
  Te  Te114  1  0.41231011  0.92856060  0.23565881  1
  Te  Te115  1  0.40176612  0.90678814  0.59444089  1
  Te  Te116  1  0.39279281  0.94109389  0.92080130  1
  Te  Te117  1  0.78808697  0.23535233  0.26638509  1
  Te  Te118  1  0.76521543  0.23734817  0.59961613  1
  Te  Te119  1  0.77821874  0.27151171  0.89809905  1
  Te  Te120  1  0.76102838  0.57162890  0.23691781  1
  Te  Te121  1  0.75279885  0.55599564  0.59110671  1
  Te  Te122  1  0.75809788  0.59319450  0.91410933  1
  Te  Te123  1  0.78448379  0.93518097  0.21216700  1
  Te  Te124  1  0.75392297  0.92975184  0.56482976  1
  Te  Te125  1  0.77309348  0.94082941  0.89749840  1
  Te  Te126  1  0.19714143  0.24804392  0.09720858  1
  Te  Te127  1  0.26085576  0.25195605  0.41944763  1
  Te  Te128  1  0.22604509  0.22547748  0.73332774  1
  Te  Te129  1  0.22629465  0.57364172  0.06190153  1
  Te  Te130  1  0.22825969  0.56307384  0.42708338  1
  Te  Te131  1  0.22513098  0.58472385  0.74128359  1
  Te  Te132  1  0.23341192  0.95536970  0.08158448  1
  Te  Te133  1  0.21206461  0.93558737  0.44233721  1
  Te  Te134  1  0.21619868  0.94366849  0.77976201  1
  Te  Te135  1  0.57836416  0.24378341  0.10104677  1
  Te  Te136  1  0.58754523  0.26274221  0.43245728  1
  Te  Te137  1  0.58772106  0.24252858  0.74716020  1
  Te  Te138  1  0.60102190  0.59339898  0.06691858  1
  Te  Te139  1  0.60293831  0.56755381  0.38790028  1
  Te  Te140  1  0.57429014  0.59146562  0.76523631  1
  Te  Te141  1  0.59012040  0.91644989  0.06730854  1
  Te  Te142  1  0.58112805  0.91422557  0.40275457  1
  Te  Te143  1  0.57030488  0.92989671  0.76860546  1
  Te  Te144  1  0.93333559  0.22182451  0.09706681  1
  Te  Te145  1  0.94856397  0.21395635  0.42875881  1
  Te  Te146  1  0.92858783  0.22337593  0.76452806  1
  Te  Te147  1  0.93789175  0.58629460  0.04698481  1
  Te  Te148  1  0.92731291  0.58299163  0.42401538  1
  Te  Te149  1  0.96916997  0.56593856  0.72922047  1
  Te  Te150  1  0.92905876  0.96140434  0.06602880  1
  Te  Te151  1  0.92269851  0.90939138  0.41437064  1
  Te  Te152  1  0.91365414  0.94757254  0.74464359  1
  Te  Te153  1  0.24158962  0.08149378  0.25269542  1
  Te  Te154  1  0.22094772  0.07794903  0.59373311  1
  Te  Te155  1  0.20457500  0.11672602  0.93806368  1
  Te  Te156  1  0.22808985  0.40459733  0.23753661  1
  Te  Te157  1  0.22650507  0.42454685  0.61333972  1
  Te  Te158  1  0.22074210  0.41128880  0.90809695  1
  Te  Te159  1  0.25665883  0.75890510  0.26662295  1
  Te  Te160  1  0.23843312  0.73219173  0.59117363  1
  Te  Te161  1  0.24606270  0.75526840  0.91491074  1
  Te  Te162  1  0.60004040  0.07989721  0.24624826  1
  Te  Te163  1  0.57881059  0.08546384  0.59464644  1
  Te  Te164  1  0.59861424  0.07206965  0.91724906  1
  Te  Te165  1  0.58000614  0.44233321  0.28806103  1
  Te  Te166  1  0.59538793  0.42305433  0.58338743  1
  Te  Te167  1  0.59605073  0.42464721  0.94140541  1
  Te  Te168  1  0.60391235  0.72885170  0.25459382  1
  Te  Te169  1  0.57964704  0.74585912  0.57568853  1
  Te  Te170  1  0.58059562  0.74580623  0.90643093  1
  Te  Te171  1  0.89215228  0.11650252  0.21653407  1
  Te  Te172  1  0.95023977  0.11101453  0.61680293  1
  Te  Te173  1  0.95343354  0.10939146  0.88524814  1
  Te  Te174  1  0.91699750  0.40491948  0.23816899  1
  Te  Te175  1  0.91614219  0.40805326  0.58841622  1
  Te  Te176  1  0.92749322  0.41484523  0.89249628  1
  Te  Te177  1  0.91328973  0.75685126  0.23837409  1
  Te  Te178  1  0.93703585  0.73417873  0.60044211  1
  Te  Te179  1  0.91564742  0.75353847  0.90489836  1
