# generated using pymatgen
data_In2Te3
_symmetry_space_group_name_H-M   'P 1'
_cell_length_a   18.80230934
_cell_length_b   18.80889368
_cell_length_c   18.81101939
_cell_angle_alpha   90.09862758
_cell_angle_beta   90.02556718
_cell_angle_gamma   90.08451799
_symmetry_Int_Tables_number   1
_chemical_formula_structural   In2Te3
_chemical_formula_sum   'In72 Te108'
_cell_volume   6652.51123142
_cell_formula_units_Z   36
loop_
 _symmetry_equiv_pos_site_id
 _symmetry_equiv_pos_as_xyz
  1  'x, y, z'
loop_
 _atom_site_type_symbol
 _atom_site_label
 _atom_site_symmetry_multiplicity
 _atom_site_fract_x
 _atom_site_fract_y
 _atom_site_fract_z
 _atom_site_occupancy
  In  In0  1  0.16048787  -0.00240070  0.17753647  1
  In  In1  1  0.50717450  0.50997905  -0.01737582  1
  In  In2  1  0.00090990  0.34014471  0.66590977  1
  In  In3  1  0.15433015  0.83949145  0.65172168  1
  In  In4  1  0.33380264  0.17106146  0.49733398  1
  In  In5  1  -0.01573979  0.17347514  0.18076142  1
  In  In6  1  0.35518433  0.81660865  0.85233849  1
  In  In7  1  0.82737874  0.00277068  0.50713818  1
  In  In8  1  0.51052806  0.66960049  0.49545976  1
  In  In9  1  0.34017692  0.64575713  0.00217459  1
  In  In10  1  0.33708183  0.15731326  0.79604342  1
  In  In11  1  0.34440546  -0.00295018  0.33827271  1
  In  In12  1  0.13790360  0.17146963  0.66659499  1
  In  In13  1  0.68237527  0.15074109  0.17234064  1
  In  In14  1  0.66656964  0.01066653  0.33237867  1
  In  In15  1  0.83445458  0.49984227  0.33202268  1
  In  In16  1  0.50207041  0.32507916  0.19618830  1
  In  In17  1  -0.02037048  0.64031407  0.02570966  1
  In  In18  1  0.83534496  0.16654227  0.66058022  1
  In  In19  1  0.15914076  0.32625490  0.49723224  1
  In  In20  1  0.69068757  0.66250939  -0.00637099  1
  In  In21  1  0.14127214  0.35879899  0.16911015  1
  In  In22  1  0.15879587  0.00159527  0.48532736  1
  In  In23  1  0.34565627  0.85727081  0.50437455  1
  In  In24  1  0.50979374  0.16141893  -0.01272496  1
  In  In25  1  0.51135591  0.49117334  0.33001145  1
  In  In26  1  0.67617784  0.83149912  0.49180505  1
  In  In27  1  0.33963261  0.50291548  0.18039166  1
  In  In28  1  0.50157552  0.83434014  0.33354500  1
  In  In29  1  0.53112276  0.48936068  0.67401460  1
  In  In30  1  0.15966819  0.01816127  0.80155406  1
  In  In31  1  0.00798126  0.65670132  0.33416912  1
  In  In32  1  0.67098800  0.65058893  0.32163273  1
  In  In33  1  0.67782785  0.18293330  0.84719355  1
  In  In34  1  0.15902732  0.82334944  0.00642713  1
  In  In35  1  0.67385013  0.33451624  0.34150494  1
  In  In36  1  0.15565348  0.49208240  0.32461344  1
  In  In37  1  0.34525747  0.01131720  0.00283084  1
  In  In38  1  0.14552972  0.50197942  0.00519027  1
  In  In39  1  0.84534691  0.83132269  0.64991725  1
  In  In40  1  0.14322396  0.18665146  -0.01402923  1
  In  In41  1  0.48565031  0.14771946  0.64786666  1
  In  In42  1  0.63199840  0.84652325  0.81559093  1
  In  In43  1  -0.01732626  0.66743002  0.66164716  1
  In  In44  1  0.31700959  0.80344312  0.20113809  1
  In  In45  1  0.14849462  0.65826050  0.49710742  1
  In  In46  1  0.82431437  0.84145390  0.32317694  1
  In  In47  1  0.67977747  0.64571615  0.66782528  1
  In  In48  1  0.30844750  0.34338440  0.01439673  1
  In  In49  1  -0.02179086  -0.00661733  -0.01787461  1
  In  In50  1  0.68502055  0.33045279  0.65677744  1
  In  In51  1  0.34696715  0.31719348  0.66976279  1
  In  In52  1  0.35222922  -0.00487439  0.66958226  1
  In  In53  1  0.54602943  0.85182994  0.02853488  1
  In  In54  1  0.35058122  0.15884734  0.17800180  1
  In  In55  1  0.16742352  0.51939602  0.66745988  1
  In  In56  1  0.83403364  0.34511601  0.16094399  1
  In  In57  1  0.32428748  0.50552909  0.47612807  1
  In  In58  1  0.82457844  0.00319434  0.82632443  1
  In  In59  1  0.34305020  0.66697123  0.67973508  1
  In  In60  1  0.49142823  0.33013319  0.83232825  1
  In  In61  1  -0.01149703  0.83746430  0.15607626  1
  In  In62  1  -0.00500509  0.82005573  0.81149226  1
  In  In63  1  0.81939327  0.84048693  0.02539773  1
  In  In64  1  0.83249786  0.49067539  0.66503117  1
  In  In65  1  0.14953058  0.34648037  0.86916799  1
  In  In66  1  0.50504288  0.67560407  0.15136549  1
  In  In67  1  0.68564575  0.34564586  0.00731818  1
  In  In68  1  0.83748895  0.66710349  0.84419116  1
  In  In69  1  -0.00436453  0.00875721  0.32480726  1
  In  In70  1  -0.02898701  0.31685469  0.35221174  1
  In  In71  1  0.67225638  0.18086536  0.50225169  1
  Te  Te72  1  0.07905490  0.07698466  0.07589267  1
  Te  Te73  1  0.08506700  0.09778997  0.40291972  1
  Te  Te74  1  0.05093427  0.11080524  0.76968584  1
  Te  Te75  1  0.05431101  0.39696959  0.05753045  1
  Te  Te76  1  0.06593873  0.41998957  0.42221504  1
  Te  Te77  1  0.08204652  0.42981550  0.75976134  1
  Te  Te78  1  0.08321805  0.73186658  0.09834913  1
  Te  Te79  1  0.07217529  0.75985527  0.42352345  1
  Te  Te80  1  0.09812303  0.73230529  0.74518963  1
  Te  Te81  1  0.44801238  0.07343374  0.09721278  1
  Te  Te82  1  0.42109486  0.06414645  0.44445594  1
  Te  Te83  1  0.45137173  0.05875642  0.77851098  1
  Te  Te84  1  0.42710458  0.41330970  0.08213158  1
  Te  Te85  1  0.41374615  0.41162552  0.40697406  1
  Te  Te86  1  0.40910050  0.42888324  0.75207594  1
  Te  Te87  1  0.40757028  0.76412108  0.07482560  1
  Te  Te88  1  0.40779160  0.74761061  0.41514338  1
  Te  Te89  1  0.43801489  0.75980522  0.74422860  1
  Te  Te90  1  0.71160438  0.07352427  0.04776636  1
  Te  Te91  1  0.76780307  0.09934960  0.40561461  1
  Te  Te92  1  0.73088307  0.08731429  0.73923945  1
  Te  Te93  1  0.77959755  0.45116102  0.06555984  1
  Te  Te94  1  0.75300346  0.42271693  0.42969114  1
  Te  Te95  1  0.74304152  0.41883489  0.76053080  1
  Te  Te96  1  0.75167446  0.73782347  0.10589823  1
  Te  Te97  1  0.76108239  0.73375685  0.41453092  1
  Te  Te98  1  0.75742399  0.76300325  0.75683977  1
  Te  Te99  1  0.08311562  0.25326983  0.26289408  1
  Te  Te100  1  0.05269543  0.23663833  0.56077890  1
  Te  Te101  1  0.03572708  0.25580011  0.90757703  1
  Te  Te102  1  0.07442263  0.57127658  0.23100541  1
  Te  Te103  1  0.05693568  0.56484768  0.57316339  1
  Te  Te104  1  0.06032283  0.58402885  0.91622086  1
  Te  Te105  1  0.08330708  0.89810633  0.25984333  1
  Te  Te106  1  0.07135757  0.94379271  0.59077801  1
  Te  Te107  1  0.09101552  0.91838403  0.90568103  1
  Te  Te108  1  0.41957691  0.23909186  0.28218250  1
  Te  Te109  1  0.43803769  0.26615041  0.56238536  1
  Te  Te110  1  0.39567258  0.24830830  0.92005554  1
  Te  Te111  1  0.42829563  0.59923608  0.25841689  1
  Te  Te112  1  0.42064834  0.57274995  0.57656377  1
  Te  Te113  1  0.43146359  0.60035721  0.89545044  1
  Te  Te114  1  0.41893849  0.91410597  0.23306812  1
  Te  Te115  1  0.45059191  0.90692739  0.59852514  1
  Te  Te116  1  0.44048627  0.91613897  0.93234938  1
  Te  Te117  1  0.76560027  0.24692507  0.25494255  1
  Te  Te118  1  0.79331596  0.27170464  0.55047414  1
  Te  Te119  1  0.78179866  0.25899874  0.92698491  1
  Te  Te120  1  0.76743160  0.58589098  0.22564183  1
  Te  Te121  1  0.77624078  0.59320408  0.57176862  1
  Te  Te122  1  0.77146255  0.55984425  0.92161081  1
  Te  Te123  1  0.73132642  0.91774540  0.23333347  1
  Te  Te124  1  0.73503853  0.92332696  0.59935289  1
  Te  Te125  1  0.74495639  0.90208322  0.90801486  1
  Te  Te126  1  0.24058801  0.23602891  0.09953871  1
  Te  Te127  1  0.24610263  0.24809422  0.40820968  1
  Te  Te128  1  0.23005355  0.26418952  0.75882003  1
  Te  Te129  1  0.24063524  0.58206427  0.09810897  1
  Te  Te130  1  0.25056333  0.60548214  0.38624790  1
  Te  Te131  1  0.25298390  0.58827007  0.76543926  1
  Te  Te132  1  0.25399222  0.91656018  0.08503307  1
  Te  Te133  1  0.24154276  0.90335146  0.40321949  1
  Te  Te134  1  0.25875287  0.90742821  0.75772574  1
  Te  Te135  1  0.58672625  0.25560182  0.08343591  1
  Te  Te136  1  0.57845220  0.23512044  0.39954907  1
  Te  Te137  1  0.57569734  0.24293267  0.74100770  1
  Te  Te138  1  0.59635307  0.57519613  0.08639264  1
  Te  Te139  1  0.60127380  0.56745696  0.42873869  1
  Te  Te140  1  0.59394596  0.58267369  0.76878652  1
  Te  Te141  1  0.63051076  0.94864391  0.10328838  1
  Te  Te142  1  0.57778111  0.92751273  0.42591381  1
  Te  Te143  1  0.55061130  0.93597426  0.73214439  1
  Te  Te144  1  0.90376444  0.24251761  0.07878373  1
  Te  Te145  1  0.88663195  0.22562057  0.43118857  1
  Te  Te146  1  0.88637572  0.28346510  0.75309215  1
  Te  Te147  1  0.87509226  0.57176496  0.10498099  1
  Te  Te148  1  0.91113740  0.58850969  0.42388463  1
  Te  Te149  1  0.92599012  0.57280239  0.76561030  1
  Te  Te150  1  0.89615978  0.94836795  0.10316180  1
  Te  Te151  1  0.91685355  0.91554242  0.41862718  1
  Te  Te152  1  0.92679750  0.93047910  0.73612571  1
  Te  Te153  1  0.24528001  0.08781654  0.26568078  1
  Te  Te154  1  0.24801255  0.08539812  0.60039126  1
  Te  Te155  1  0.24784836  0.09047844  0.91482415  1
  Te  Te156  1  0.25963399  0.39988941  0.25764950  1
  Te  Te157  1  0.25126679  0.41285816  0.58791249  1
  Te  Te158  1  0.26064066  0.44338309  0.91410235  1
  Te  Te159  1  0.23022040  0.71308322  0.27233768  1
  Te  Te160  1  0.25434859  0.74918052  0.57551306  1
  Te  Te161  1  0.24292222  0.73428622  0.91679108  1
  Te  Te162  1  0.57502208  0.10711602  0.26497145  1
  Te  Te163  1  0.59556451  0.07945640  0.57829929  1
  Te  Te164  1  0.61169589  0.06897963  0.92578408  1
  Te  Te165  1  0.60972635  0.42545786  0.23295433  1
  Te  Te166  1  0.59567000  0.40961778  0.56930633  1
  Te  Te167  1  0.59668832  0.41436693  0.90328024  1
  Te  Te168  1  0.59623346  0.75836504  0.24251416  1
  Te  Te169  1  0.59427935  0.74970137  0.59283532  1
  Te  Te170  1  0.58385682  0.74816516  0.92337647  1
  Te  Te171  1  0.89190857  0.07638862  0.24258437  1
  Te  Te172  1  0.92799364  0.07786153  0.58700468  1
  Te  Te173  1  0.89834330  0.09639757  0.91483153  1
  Te  Te174  1  0.93584634  0.41934842  0.24723894  1
  Te  Te175  1  0.92009191  0.41748953  0.56907128  1
  Te  Te176  1  0.90008796  0.35711144  0.88280433  1
  Te  Te177  1  0.90884173  0.74378000  0.24351053  1
  Te  Te178  1  0.93489844  0.76020855  0.55707909  1
  Te  Te179  1  0.92596367  0.76432801  0.93498788  1
