# generated using pymatgen
data_In2Te3
_symmetry_space_group_name_H-M   'P 1'
_cell_length_a   18.93637373
_cell_length_b   18.97764453
_cell_length_c   18.96325648
_cell_angle_alpha   90.02450963
_cell_angle_beta   90.00376073
_cell_angle_gamma   89.93440761
_symmetry_Int_Tables_number   1
_chemical_formula_structural   In2Te3
_chemical_formula_sum   'In72 Te108'
_cell_volume   6814.77807463
_cell_formula_units_Z   36
loop_
 _symmetry_equiv_pos_site_id
 _symmetry_equiv_pos_as_xyz
  1  'x, y, z'
loop_
 _atom_site_type_symbol
 _atom_site_label
 _atom_site_symmetry_multiplicity
 _atom_site_fract_x
 _atom_site_fract_y
 _atom_site_fract_z
 _atom_site_occupancy
  In  In0  1  0.00466903  0.14659310  0.51290074  1
  In  In1  1  -0.00864226  -0.02371186  0.36270896  1
  In  In2  1  0.48893625  0.17486069  0.34102516  1
  In  In3  1  0.29125887  0.37307954  0.47609606  1
  In  In4  1  0.15817579  0.82665954  0.33629758  1
  In  In5  1  0.49262556  0.82157013  0.67644330  1
  In  In6  1  0.32774558  0.83713833  0.16262213  1
  In  In7  1  0.66011625  0.32888290  0.65973142  1
  In  In8  1  0.34953792  0.16394146  0.50435586  1
  In  In9  1  0.31015165  0.49868638  0.82584640  1
  In  In10  1  0.64110972  0.50398379  0.81744926  1
  In  In11  1  0.00811687  0.34710867  0.31511100  1
  In  In12  1  0.85189352  0.35027107  0.48239937  1
  In  In13  1  0.68628708  0.17557541  0.16433021  1
  In  In14  1  0.33224566  0.67250110  0.34582348  1
  In  In15  1  0.46628878  0.84565705  -0.02731937  1
  In  In16  1  0.03344558  0.17269750  0.15254025  1
  In  In17  1  0.01906586  0.35773077  0.66279523  1
  In  In18  1  0.16662950  0.51463177  0.34482809  1
  In  In19  1  0.16085347  0.15821474  0.67424305  1
  In  In20  1  0.50824036  0.32581074  0.17378273  1
  In  In21  1  0.17984779  0.00576558  0.16191901  1
  In  In22  1  0.49806532  0.68035947  0.50833489  1
  In  In23  1  0.84873058  0.17683026  0.66667200  1
  In  In24  1  0.00491394  -0.01882779  0.69687660  1
  In  In25  1  0.31288462  0.65940475  -0.03559393  1
  In  In26  1  0.83060136  0.82258691  -0.03634236  1
  In  In27  1  0.51853824  -0.01542822  0.53078848  1
  In  In28  1  -0.00139641  0.68570588  0.33072096  1
  In  In29  1  0.00011485  -0.02953381  -0.05634464  1
  In  In30  1  0.15876093  0.67757989  0.81764134  1
  In  In31  1  0.33124338  0.33393151  0.66180739  1
  In  In32  1  0.15184287  0.34383648  0.83086373  1
  In  In33  1  0.83795943  0.50584347  0.34216725  1
  In  In34  1  0.18241099  0.15306014  -0.02270315  1
  In  In35  1  0.84382492  0.00858729  0.16504646  1
  In  In36  1  0.02386058  0.81614790  0.12387237  1
  In  In37  1  0.70696456  0.57247738  0.51868409  1
  In  In38  1  0.84355219  0.14066829  0.00674505  1
  In  In39  1  0.48303697  0.32647931  0.50329245  1
  In  In40  1  0.35565912  0.51180152  0.15722020  1
  In  In41  1  0.50031356  0.14330679  0.00254653  1
  In  In42  1  0.65845280  0.14295285  0.85398436  1
  In  In43  1  0.70169874  0.81651320  0.35730841  1
  In  In44  1  0.82851359  0.66140324  0.15794184  1
  In  In45  1  0.66075167  0.15291969  0.47950917  1
  In  In46  1  0.68152609  0.48803720  0.18047186  1
  In  In47  1  0.18274856  0.34943835  0.15604017  1
  In  In48  1  0.82556295  0.49616086  -0.00040471  1
  In  In49  1  0.52210581  0.48684701  0.02154504  1
  In  In50  1  0.65349898  0.69295549  -0.00975325  1
  In  In51  1  0.48987733  -0.01941441  0.14553315  1
  In  In52  1  0.66351185  0.01837400  0.32701751  1
  In  In53  1  0.49149008  0.67082777  0.83745765  1
  In  In54  1  -0.00141971  0.50370606  0.17222699  1
  In  In55  1  -0.00679083  0.53494264  0.52377109  1
  In  In56  1  0.82562326  0.32656888  0.82426742  1
  In  In57  1  0.81161283  -0.07609008  0.54281936  1
  In  In58  1  0.82220707  0.15234408  0.33125966  1
  In  In59  1  -0.03460870  0.33057039  -0.01207138  1
  In  In60  1  0.35528322  0.15135664  0.16433638  1
  In  In61  1  0.19154733  0.00994806  0.50414280  1
  In  In62  1  0.49823412  0.69764616  0.18318212  1
  In  In63  1  0.15580296  0.51546599  -0.03107115  1
  In  In64  1  0.49634062  0.33046938  0.85120336  1
  In  In65  1  -0.00441221  0.80158102  0.54425992  1
  In  In66  1  0.82912816  0.67648657  0.80979580  1
  In  In67  1  0.81693451  -0.01044997  0.81245988  1
  In  In68  1  0.32646932  0.82297104  0.50147078  1
  In  In69  1  0.49516509  0.53718546  0.66048775  1
  In  In70  1  0.36099643  0.13081403  0.81707158  1
  In  In71  1  0.18944364  0.84790842  0.67911908  1
  Te  Te72  1  0.07451727  0.06628256  0.05266420  1
  Te  Te73  1  0.09305152  0.07967088  0.40934395  1
  Te  Te74  1  0.08243993  0.08070644  0.77074281  1
  Te  Te75  1  0.07035738  0.41201220  0.07276026  1
  Te  Te76  1  0.06297487  0.43664906  0.42381815  1
  Te  Te77  1  0.09925753  0.45209403  0.74431563  1
  Te  Te78  1  0.12046724  0.73357821  0.05655503  1
  Te  Te79  1  0.08922875  0.73956399  0.43963490  1
  Te  Te80  1  0.07344707  0.78606140  0.75423643  1
  Te  Te81  1  0.39160650  0.05122055  0.05527058  1
  Te  Te82  1  0.43274687  0.06521230  0.42527788  1
  Te  Te83  1  0.47215774  0.04205723  0.77679517  1
  Te  Te84  1  0.41325233  0.39734507  0.07636315  1
  Te  Te85  1  0.41470809  0.43322237  0.42900907  1
  Te  Te86  1  0.42805936  0.42398058  0.75228710  1
  Te  Te87  1  0.40777151  0.72960062  0.06162142  1
  Te  Te88  1  0.43111323  0.77077956  0.40503055  1
  Te  Te89  1  0.38766326  0.74596596  0.75859939  1
  Te  Te90  1  0.73273283  0.06154667  0.07564819  1
  Te  Te91  1  0.77240552  0.05647883  0.43657548  1
  Te  Te92  1  0.74064758  0.09464186  0.73308868  1
  Te  Te93  1  0.74958258  0.40383214  0.08222132  1
  Te  Te94  1  0.74063935  0.44045014  0.43731224  1
  Te  Te95  1  0.74643902  0.42493688  0.73955582  1
  Te  Te96  1  0.74905897  0.76544461  0.08246864  1
  Te  Te97  1  0.71453403  0.72072408  0.47072516  1
  Te  Te98  1  0.76666749  0.79908600  0.74872422  1
  Te  Te99  1  0.11101875  0.25491799  0.25411176  1
  Te  Te100  1  0.09161103  0.25248418  0.57760361  1
  Te  Te101  1  0.07539115  0.24948621  0.92159811  1
  Te  Te102  1  0.08882795  0.59942484  0.24486931  1
  Te  Te103  1  0.06580533  0.59391287  0.63789351  1
  Te  Te104  1  0.06050261  0.59973750  0.89750787  1
  Te  Te105  1  0.07225661  0.91494154  0.24626205  1
  Te  Te106  1  0.08671137  0.92626662  0.57416877  1
  Te  Te107  1  0.09257776  0.87694669  0.87961061  1
  Te  Te108  1  0.39814330  0.26339354  0.25950859  1
  Te  Te109  1  0.43278152  0.23353294  0.61117166  1
  Te  Te110  1  0.40644187  0.23212405  0.92163414  1
  Te  Te111  1  0.43149993  0.58779216  0.26327533  1
  Te  Te112  1  0.39492762  0.60099191  0.57727761  1
  Te  Te113  1  0.42829420  0.55885710  0.92051156  1
  Te  Te114  1  0.41973662  0.90842544  0.25084263  1
  Te  Te115  1  0.40111665  0.91385506  0.59722660  1
  Te  Te116  1  0.37561930  0.87168399  0.85600597  1
  Te  Te117  1  0.74581160  0.25894022  0.26863139  1
  Te  Te118  1  0.76169097  0.25347846  0.56632119  1
  Te  Te119  1  0.75664334  0.23651923  0.92418479  1
  Te  Te120  1  0.74481970  0.59828792  0.26599135  1
  Te  Te121  1  0.78041613  0.61281386  0.64273053  1
  Te  Te122  1  0.73400724  0.58990843  0.91187099  1
  Te  Te123  1  0.76121223  0.92415312  0.25868470  1
  Te  Te124  1  0.69882187  0.89170841  0.63964055  1
  Te  Te125  1  0.73674754  0.92382127  0.91578073  1
  Te  Te126  1  0.25237351  0.23513884  0.08345849  1
  Te  Te127  1  0.25033947  0.24134964  0.43135274  1
  Te  Te128  1  0.25573359  0.24884152  0.76358000  1
  Te  Te129  1  0.24442215  0.57768093  0.07513618  1
  Te  Te130  1  0.24317879  0.59872185  0.43658182  1
  Te  Te131  1  0.27014886  0.61242514  0.74316063  1
  Te  Te132  1  0.24450165  0.91361404  0.06847023  1
  Te  Te133  1  0.25791119  0.91864491  0.40313368  1
  Te  Te134  1  0.26139605  0.93679826  0.77163542  1
  Te  Te135  1  0.58810352  0.24574213  0.07196699  1
  Te  Te136  1  0.58960557  0.26454278  0.40902058  1
  Te  Te137  1  0.58765772  0.24635710  0.76429367  1
  Te  Te138  1  0.59261904  0.59893027  0.09458575  1
  Te  Te139  1  0.59078849  0.59442232  0.43025235  1
  Te  Te140  1  0.59544685  0.62213559  0.73578973  1
  Te  Te141  1  0.56996321  0.88432724  0.07075543  1
  Te  Te142  1  0.60024197  0.91844935  0.41974255  1
  Te  Te143  1  0.57641273  0.93227683  0.73495311  1
  Te  Te144  1  0.91009352  0.24228356  0.09889401  1
  Te  Te145  1  0.93333866  0.24274260  0.41108767  1
  Te  Te146  1  0.94178849  0.25925248  0.75116937  1
  Te  Te147  1  0.92614897  0.58746357  0.06927017  1
  Te  Te148  1  0.90563239  0.61210096  0.42479282  1
  Te  Te149  1  0.93869311  0.61858482  0.71441837  1
  Te  Te150  1  0.91846833  0.91844082  0.06759976  1
  Te  Te151  1  0.91135090  0.87175156  0.43384055  1
  Te  Te152  1  0.90058544  0.88407074  0.74423189  1
  Te  Te153  1  0.26429066  0.07955895  0.25386778  1
  Te  Te154  1  0.27363002  0.08053932  0.60923060  1
  Te  Te155  1  0.25154663  0.05622969  0.88771270  1
  Te  Te156  1  0.25843481  0.43708721  0.25166853  1
  Te  Te157  1  0.23132341  0.42196518  0.60012425  1
  Te  Te158  1  0.25219346  0.40434550  0.92816067  1
  Te  Te159  1  0.24224392  0.74090592  0.24347505  1
  Te  Te160  1  0.23038710  0.74664488  0.58126891  1
  Te  Te161  1  0.21132309  0.77051773  0.93535638  1
  Te  Te162  1  0.56967719  0.09643807  0.23663309  1
  Te  Te163  1  0.58786614  0.09813976  0.59227055  1
  Te  Te164  1  0.56322114  0.04250820  0.91158061  1
  Te  Te165  1  0.57398813  0.42593338  0.25700650  1
  Te  Te166  1  0.56905565  0.42370277  0.58754072  1
  Te  Te167  1  0.60637638  0.40404727  0.92615738  1
  Te  Te168  1  0.60587591  0.76135619  0.25877566  1
  Te  Te169  1  0.59831235  0.76750148  0.58133121  1
  Te  Te170  1  0.58182822  0.77998602  0.89040379  1
  Te  Te171  1  0.94079744  0.08782179  0.25155140  1
  Te  Te172  1  0.91179284  0.05826022  0.59283027  1
  Te  Te173  1  0.91559805  0.08303563  0.88812448  1
  Te  Te174  1  0.89651791  0.41258125  0.23682865  1
  Te  Te175  1  0.90496592  0.43251676  0.59689402  1
  Te  Te176  1  0.91272721  0.43396038  0.89032590  1
  Te  Te177  1  0.92006475  0.76171518  0.22694212  1
  Te  Te178  1  0.88450260  0.72013190  0.60305639  1
  Te  Te179  1  0.92577650  0.72435729  0.91187205  1
