# generated using pymatgen
data_In2Te3
_symmetry_space_group_name_H-M   'P 1'
_cell_length_a   18.82381893
_cell_length_b   18.81300540
_cell_length_c   18.81080889
_cell_angle_alpha   90.06266796
_cell_angle_beta   90.01101673
_cell_angle_gamma   90.00190515
_symmetry_Int_Tables_number   1
_chemical_formula_structural   In2Te3
_chemical_formula_sum   'In72 Te108'
_cell_volume   6661.51668641
_cell_formula_units_Z   36
loop_
 _symmetry_equiv_pos_site_id
 _symmetry_equiv_pos_as_xyz
  1  'x, y, z'
loop_
 _atom_site_type_symbol
 _atom_site_label
 _atom_site_symmetry_multiplicity
 _atom_site_fract_x
 _atom_site_fract_y
 _atom_site_fract_z
 _atom_site_occupancy
  In  In0  1  0.67931681  0.82410716  0.82141885  1
  In  In1  1  0.50702848  0.00462857  0.51796867  1
  In  In2  1  0.48249922  0.02373127  0.83619810  1
  In  In3  1  0.17835053  0.50330019  -0.01031682  1
  In  In4  1  0.84953275  0.79726229  0.34463648  1
  In  In5  1  0.80335114  0.65744652  0.19381200  1
  In  In6  1  0.34781641  -0.01289284  0.01854765  1
  In  In7  1  0.81240468  0.18648679  0.67113366  1
  In  In8  1  0.33834764  0.80727343  0.16664736  1
  In  In9  1  -0.00529752  0.65244868  0.35530282  1
  In  In10  1  -0.00538603  0.36066506  0.64415653  1
  In  In11  1  0.81920098  0.16790878  -0.00686828  1
  In  In12  1  0.64182468  0.33670675  0.70970050  1
  In  In13  1  0.64024576  -0.00154382  -0.02457310  1
  In  In14  1  0.83151658  0.34560126  0.81478488  1
  In  In15  1  0.35539099  0.18062179  0.82764000  1
  In  In16  1  0.17821377  0.65014357  0.18389446  1
  In  In17  1  0.15187434  0.69530383  0.70044747  1
  In  In18  1  0.63721970  0.36590953  -0.01484732  1
  In  In19  1  0.64115117  0.63333719  -0.02861987  1
  In  In20  1  -0.01302334  0.17947414  0.47722915  1
  In  In21  1  -0.00225341  -0.01887724  0.28496333  1
  In  In22  1  0.81995623  0.31847910  0.18393493  1
  In  In23  1  0.13940705  -0.00173571  0.18042780  1
  In  In24  1  0.47498088  0.65165479  0.83936123  1
  In  In25  1  0.32821416  0.81211492  0.81254437  1
  In  In26  1  0.66905860  0.85417749  0.16845436  1
  In  In27  1  0.81552320  0.64359322  0.49768559  1
  In  In28  1  0.83581603  0.79315477  -0.03104603  1
  In  In29  1  -0.00463546  0.48707373  0.80645976  1
  In  In30  1  0.49282922  0.82546709  0.34153183  1
  In  In31  1  0.68453033  0.20247196  0.18107990  1
  In  In32  1  0.36715922  0.18894202  0.16731274  1
  In  In33  1  0.16350947  -0.02617649  0.48699344  1
  In  In34  1  -0.00126541  0.50935974  0.16010407  1
  In  In35  1  0.17524676  0.61988238  0.50383866  1
  In  In36  1  0.80559908  0.23900947  0.34706409  1
  In  In37  1  0.19079953  0.36958253  0.51160781  1
  In  In38  1  -0.00494145  -0.01018885  0.67462530  1
  In  In39  1  0.17502324  0.16620262  0.66487601  1
  In  In40  1  0.34940940  0.17195799  0.51227261  1
  In  In41  1  0.00454969  0.65660159  -0.02324530  1
  In  In42  1  0.48891241  0.36949316  0.46398684  1
  In  In43  1  0.02780463  0.85408104  0.16262291  1
  In  In44  1  0.18433858  0.81188477  -0.02910125  1
  In  In45  1  0.66150574  0.65396304  0.63284018  1
  In  In46  1  0.67012105  0.02955798  0.66820719  1
  In  In47  1  0.34563994  0.35176219  0.67248977  1
  In  In48  1  0.33211218  0.49853063  0.18750429  1
  In  In49  1  0.50046591  0.81958387  0.67588185  1
  In  In50  1  -0.00165490  0.33290224  0.36673347  1
  In  In51  1  0.19519747  0.19612596  -0.01081089  1
  In  In52  1  0.01316731  0.17395513  0.18574625  1
  In  In53  1  0.34952322  -0.00740233  0.69229598  1
  In  In54  1  0.50611516  0.36378182  0.19599078  1
  In  In55  1  0.34395988  0.34639470  -0.01260067  1
  In  In56  1  -0.01011811  0.00672059  -0.01532671  1
  In  In57  1  0.84347535  0.83680369  0.65443649  1
  In  In58  1  0.16065674  -0.00967236  0.84128924  1
  In  In59  1  0.32029775  0.00286742  0.34608987  1
  In  In60  1  0.49133613  0.64679409  0.14837919  1
  In  In61  1  0.00431734  0.81860440  0.49471853  1
  In  In62  1  0.51435296  0.00927197  0.15805457  1
  In  In63  1  0.50113242  0.49818773  0.66586767  1
  In  In64  1  0.03069184  0.33467016  0.00458230  1
  In  In65  1  0.85323437  0.01709892  0.15468463  1
  In  In66  1  0.49017938  0.63339746  0.49549590  1
  In  In67  1  0.80532757  0.49961199  -0.00759353  1
  In  In68  1  0.66372126  0.65004587  0.34546124  1
  In  In69  1  0.67593919  0.01894747  0.32838798  1
  In  In70  1  0.17667495  0.17402459  0.34695983  1
  In  In71  1  0.81246754  0.00467309  0.49808656  1
  Te  Te72  1  0.08375439  0.09328745  0.06991876  1
  Te  Te73  1  0.07732942  0.07314772  0.40529659  1
  Te  Te74  1  0.08067415  0.08887333  0.75637772  1
  Te  Te75  1  0.10929105  0.42215718  0.10074293  1
  Te  Te76  1  0.07646873  0.43291773  0.44255626  1
  Te  Te77  1  0.09940517  0.40961700  0.73524911  1
  Te  Te78  1  0.09309758  0.73394956  0.07597413  1
  Te  Te79  1  0.10396255  0.73443661  0.41996844  1
  Te  Te80  1  0.05454124  0.76704820  0.78744845  1
  Te  Te81  1  0.43804023  0.10214156  0.06257279  1
  Te  Te82  1  0.42711232  0.08727018  0.41222077  1
  Te  Te83  1  0.43774502  0.11228701  0.71696075  1
  Te  Te84  1  0.42616069  0.43230613  0.08493488  1
  Te  Te85  1  0.38092246  0.45054428  0.39842024  1
  Te  Te86  1  0.43263300  0.41998777  0.77654888  1
  Te  Te87  1  0.41931438  0.74370531  0.06284764  1
  Te  Te88  1  0.40829510  0.72554466  0.40994674  1
  Te  Te89  1  0.40079231  0.71438984  0.72006503  1
  Te  Te90  1  0.72848806  0.07534990  0.08544817  1
  Te  Te91  1  0.74401420  0.11751104  0.42293491  1
  Te  Te92  1  0.76337818  0.08588899  0.76736931  1
  Te  Te93  1  0.73634874  0.41382566  0.09731930  1
  Te  Te94  1  0.77120437  0.37595625  0.39515925  1
  Te  Te95  1  0.74675776  0.43912884  0.74106543  1
  Te  Te96  1  0.74289085  0.74710843  0.08465057  1
  Te  Te97  1  0.73429903  0.75785211  0.43065653  1
  Te  Te98  1  0.75527676  0.73313954  0.72789464  1
  Te  Te99  1  0.09890250  0.27221931  0.26008950  1
  Te  Te100  1  0.09279270  0.24907741  0.56638387  1
  Te  Te101  1  0.08791444  0.24576408  0.90285513  1
  Te  Te102  1  0.08837225  0.56354311  0.27099722  1
  Te  Te103  1  0.07751010  0.59189477  0.61626660  1
  Te  Te104  1  0.09657906  0.57958779  0.88279355  1
  Te  Te105  1  0.11973816  0.88557619  0.28192126  1
  Te  Te106  1  0.08758097  0.89738766  0.59510723  1
  Te  Te107  1  0.06589230  0.89223000  0.91235533  1
  Te  Te108  1  0.43028570  0.26364323  0.27916036  1
  Te  Te109  1  0.43727168  0.27450932  0.57998379  1
  Te  Te110  1  0.44469501  0.26067893  0.91420220  1
  Te  Te111  1  0.41981422  0.59164864  0.26594130  1
  Te  Te112  1  0.39261776  0.55869919  0.58204400  1
  Te  Te113  1  0.43946763  0.53892376  0.92877533  1
  Te  Te114  1  0.41597783  0.92644882  0.24072256  1
  Te  Te115  1  0.41086683  0.90456806  0.58362309  1
  Te  Te116  1  0.40923226  0.90727775  0.90510193  1
  Te  Te117  1  0.65767167  0.30977043  0.30427620  1
  Te  Te118  1  0.71834566  0.27160526  0.59766743  1
  Te  Te119  1  0.74181032  0.27400617  0.91632411  1
  Te  Te120  1  0.75002962  0.54895167  0.27606523  1
  Te  Te121  1  0.74072284  0.54100307  0.57639465  1
  Te  Te122  1  0.75487370  0.58980031  0.88822133  1
  Te  Te123  1  0.77544589  0.91880464  0.25762356  1
  Te  Te124  1  0.73003141  0.91296055  0.58453693  1
  Te  Te125  1  0.75539322  0.91607676  0.91779562  1
  Te  Te126  1  0.25922453  0.27435107  0.10124403  1
  Te  Te127  1  0.26808871  0.26612297  0.42431784  1
  Te  Te128  1  0.24971070  0.26259600  0.75491990  1
  Te  Te129  1  0.26846493  0.58873939  0.07798749  1
  Te  Te130  1  0.25776112  0.54858575  0.40010566  1
  Te  Te131  1  0.23806992  0.60713903  0.78827380  1
  Te  Te132  1  0.23234568  0.91241447  0.08421753  1
  Te  Te133  1  0.27297997  0.89301886  0.43077394  1
  Te  Te134  1  0.23341001  0.90488057  0.73753067  1
  Te  Te135  1  0.58095951  0.26947499  0.09040865  1
  Te  Te136  1  0.55576286  0.25126127  0.40155210  1
  Te  Te137  1  0.57042524  0.23505623  0.79101315  1
  Te  Te138  1  0.60354497  0.56589911  0.09605511  1
  Te  Te139  1  0.58502053  0.54232825  0.41835332  1
  Te  Te140  1  0.58613688  0.59269798  0.74943071  1
  Te  Te141  1  0.56561239  0.89958894  0.06524874  1
  Te  Te142  1  0.58638595  0.92596917  0.41025199  1
  Te  Te143  1  0.57757984  0.92606014  0.75383484  1
  Te  Te144  1  0.91761115  0.24750555  0.08216600  1
  Te  Te145  1  0.88507477  0.29460729  0.47390148  1
  Te  Te146  1  0.92988003  0.25805730  0.73862688  1
  Te  Te147  1  0.90057955  0.59309154  0.07814180  1
  Te  Te148  1  0.90820590  0.55377791  0.42128634  1
  Te  Te149  1  0.93336802  0.57215063  0.69734066  1
  Te  Te150  1  0.90813085  0.89859177  0.07134933  1
  Te  Te151  1  0.91845311  0.92024731  0.41828811  1
  Te  Te152  1  0.90506201  0.91514081  0.76312291  1
  Te  Te153  1  0.25363057  0.09372805  0.23436431  1
  Te  Te154  1  0.25419441  0.06855672  0.57730272  1
  Te  Te155  1  0.26598305  0.07566533  0.91317472  1
  Te  Te156  1  0.25961132  0.42753386  0.29832532  1
  Te  Te157  1  0.25893099  0.45847585  0.61235575  1
  Te  Te158  1  0.25373596  0.41825346  0.89559499  1
  Te  Te159  1  0.27201534  0.72629798  0.27013465  1
  Te  Te160  1  0.24115281  0.72480389  0.58503055  1
  Te  Te161  1  0.26883023  0.70571563  0.90486113  1
  Te  Te162  1  0.58059778  0.10769537  0.25111293  1
  Te  Te163  1  0.59443817  0.11084248  0.57151661  1
  Te  Te164  1  0.59248541  0.11374655  0.89093191  1
  Te  Te165  1  0.57723225  0.46453755  0.28150642  1
  Te  Te166  1  0.58501364  0.40930686  0.57589494  1
  Te  Te167  1  0.55149280  0.44401458  0.88761856  1
  Te  Te168  1  0.58982245  0.75019098  0.24836189  1
  Te  Te169  1  0.57095084  0.75140029  0.55972030  1
  Te  Te170  1  0.57462063  0.75357295  0.90624924  1
  Te  Te171  1  0.90179061  0.10977219  0.26752234  1
  Te  Te172  1  0.91619976  0.08517883  0.58025651  1
  Te  Te173  1  0.90765255  0.09460399  0.90042268  1
  Te  Te174  1  0.92726116  0.40718521  0.24764202  1
  Te  Te175  1  0.91802061  0.47470183  0.58235429  1
  Te  Te176  1  0.92493520  0.42086685  0.93261995  1
  Te  Te177  1  0.93819233  0.74146579  0.23457946  1
  Te  Te178  1  0.91887535  0.72755497  0.57897948  1
  Te  Te179  1  0.92479416  0.72495326  0.86687906  1
