# generated using pymatgen
data_In2Te3
_symmetry_space_group_name_H-M   'P 1'
_cell_length_a   18.75744164
_cell_length_b   18.75207451
_cell_length_c   18.75360539
_cell_angle_alpha   89.95200042
_cell_angle_beta   89.97198768
_cell_angle_gamma   90.04801087
_symmetry_Int_Tables_number   1
_chemical_formula_structural   In2Te3
_chemical_formula_sum   'In72 Te108'
_cell_volume   6596.40542580
_cell_formula_units_Z   36
loop_
 _symmetry_equiv_pos_site_id
 _symmetry_equiv_pos_as_xyz
  1  'x, y, z'
loop_
 _atom_site_type_symbol
 _atom_site_label
 _atom_site_symmetry_multiplicity
 _atom_site_fract_x
 _atom_site_fract_y
 _atom_site_fract_z
 _atom_site_occupancy
  In  In0  1  0.33021983  0.00272440  0.68997827  1
  In  In1  1  0.66114045  0.68228228  0.66283318  1
  In  In2  1  0.84224819  0.83235717  0.01269322  1
  In  In3  1  0.49185753  0.32340119  0.50688592  1
  In  In4  1  0.86613409  0.49356302  0.66065820  1
  In  In5  1  0.64792620  0.67467093  -0.01951087  1
  In  In6  1  0.00782198  0.15863335  0.83685697  1
  In  In7  1  0.84693631  0.68151891  0.15978524  1
  In  In8  1  0.46507518  0.85788333  0.30890838  1
  In  In9  1  0.83727363  -0.01027521  0.84188971  1
  In  In10  1  0.33715199  0.17769694  0.49877509  1
  In  In11  1  0.17594671  0.49440326  0.01515025  1
  In  In12  1  0.32264314  0.84637121  0.47137179  1
  In  In13  1  0.66168713  0.29902348  0.67910547  1
  In  In14  1  0.03346042  -0.00250527  0.30202223  1
  In  In15  1  0.34769830  0.66921998  0.66957211  1
  In  In16  1  0.62050458  0.85170908  0.86282599  1
  In  In17  1  0.83267438  -0.00306426  0.16302119  1
  In  In18  1  0.65939051  0.47523871  0.46423096  1
  In  In19  1  0.02801961  0.31480425  0.66796650  1
  In  In20  1  0.50436908  0.01046681  0.50821589  1
  In  In21  1  0.81340098  0.65989305  0.48322305  1
  In  In22  1  0.31965589  0.32257180  0.01108072  1
  In  In23  1  0.46723551  0.65069413  0.86369664  1
  In  In24  1  0.16417906  0.00754400  0.47640613  1
  In  In25  1  0.01625632  0.66311137  0.01100323  1
  In  In26  1  0.65713619  0.33306065  0.00627043  1
  In  In27  1  0.68557846  0.00635629  0.31826991  1
  In  In28  1  0.63246749  0.13855147  0.15518210  1
  In  In29  1  0.32711968  0.32909726  0.31063278  1
  In  In30  1  0.45960321  0.69095110  0.15880291  1
  In  In31  1  0.01754456  0.49200603  0.16171115  1
  In  In32  1  0.47629029  0.32408229  0.16223136  1
  In  In33  1  0.17027174  0.01073597  0.83949856  1
  In  In34  1  -0.03173799  0.65690932  0.69275275  1
  In  In35  1  0.49732294  0.51096927  0.32800211  1
  In  In36  1  0.18715663  0.48631281  0.67232839  1
  In  In37  1  0.18240206  0.32298923  0.50490680  1
  In  In38  1  0.00249795  0.84186475  0.83460024  1
  In  In39  1  0.00604114  0.84406299  0.47544637  1
  In  In40  1  0.18027864  0.85674984  0.66886577  1
  In  In41  1  0.84499770  0.49338703  0.31566756  1
  In  In42  1  0.16659752  0.15503720  0.01083098  1
  In  In43  1  0.84805275  0.17327553  0.36250483  1
  In  In44  1  0.17883676  0.48542894  0.32946498  1
  In  In45  1  0.51436280  0.83833529  0.68157209  1
  In  In46  1  0.19595715  0.85577301  0.02552526  1
  In  In47  1  0.18500354  0.67726075  0.14544441  1
  In  In48  1  0.85700921  0.84000364  0.67806781  1
  In  In49  1  0.14614248  0.66291701  0.48371522  1
  In  In50  1  0.03682414  0.18318393  0.18022873  1
  In  In51  1  0.63865277  0.69223470  0.32327937  1
  In  In52  1  0.83204405  0.31518677  0.16931684  1
  In  In53  1  0.66690830  0.51133675  0.14544522  1
  In  In54  1  -0.01244521  0.68383126  0.32837458  1
  In  In55  1  0.83293931  0.17667196  0.00081033  1
  In  In56  1  0.33022546  0.16397956  0.83143301  1
  In  In57  1  0.66041529  0.00771981  0.66030575  1
  In  In58  1  0.03098937  0.47007308  0.50319116  1
  In  In59  1  0.30775357  0.67130090  0.32120894  1
  In  In60  1  0.48108505  0.16610353  0.32160023  1
  In  In61  1  0.66475102  0.81775855  0.49514926  1
  In  In62  1  0.18085260  0.31202904  0.83335395  1
  In  In63  1  0.85858944  0.01124316  0.49786270  1
  In  In64  1  0.81561311  0.65512753  0.81230176  1
  In  In65  1  0.66420771  0.48624014  0.83824547  1
  In  In66  1  0.48200060  0.49485021  0.67682878  1
  In  In67  1  0.84385526  0.33954489  0.86565030  1
  In  In68  1  0.19124546  0.68864632  0.86177612  1
  In  In69  1  0.66752822  0.32945500  0.34600164  1
  In  In70  1  0.82589936  0.15314127  0.65681394  1
  In  In71  1  0.49757788  0.33314712  0.83102092  1
  Te  Te72  1  0.08594735  0.06687113  0.10158069  1
  Te  Te73  1  0.07562646  0.09956277  0.40004357  1
  Te  Te74  1  0.10646476  0.10176019  0.74252708  1
  Te  Te75  1  0.10234262  0.39232213  0.09328414  1
  Te  Te76  1  0.08342326  0.37965097  0.38835664  1
  Te  Te77  1  0.08754589  0.41559708  0.76386077  1
  Te  Te78  1  0.07885018  0.77353884  0.09175469  1
  Te  Te79  1  0.11027619  0.77593218  0.38296750  1
  Te  Te80  1  0.09138364  0.75084962  0.74716903  1
  Te  Te81  1  0.45083569  0.06036475  0.06192235  1
  Te  Te82  1  0.40237365  0.06953264  0.41161429  1
  Te  Te83  1  0.43280623  0.08849895  0.75166590  1
  Te  Te84  1  0.41066233  0.42455831  0.07573731  1
  Te  Te85  1  0.41323776  0.41111840  0.40884337  1
  Te  Te86  1  0.39371905  0.41166350  0.75875199  1
  Te  Te87  1  0.38973868  0.78458750  0.06781461  1
  Te  Te88  1  0.41533560  0.74625551  0.40233518  1
  Te  Te89  1  0.41497368  0.76278645  0.76994577  1
  Te  Te90  1  0.74041075  0.07522509  0.06768656  1
  Te  Te91  1  0.74161396  0.08806055  0.43391153  1
  Te  Te92  1  0.74335126  0.08286377  0.76643012  1
  Te  Te93  1  0.76478008  0.41658290  0.07557980  1
  Te  Te94  1  0.78381529  0.39688646  0.42116668  1
  Te  Te95  1  0.75625780  0.41202425  0.74242643  1
  Te  Te96  1  0.73304705  0.75079480  0.08444517  1
  Te  Te97  1  0.76014810  0.76480105  0.38736143  1
  Te  Te98  1  0.73477982  0.78035928  0.75932963  1
  Te  Te99  1  0.11022478  0.25776276  0.28413215  1
  Te  Te100  1  0.09069915  0.22486316  0.56885805  1
  Te  Te101  1  0.07947140  0.25483296  0.93126222  1
  Te  Te102  1  0.08943319  0.59584804  0.25200780  1
  Te  Te103  1  0.07967974  0.58405555  0.59923590  1
  Te  Te104  1  0.09702583  0.58017131  0.91334172  1
  Te  Te105  1  0.11791717  0.88113570  0.26476431  1
  Te  Te106  1  0.07844835  0.92872184  0.58041311  1
  Te  Te107  1  0.08820304  0.91965714  0.93140458  1
  Te  Te108  1  0.38407550  0.21219668  0.21401644  1
  Te  Te109  1  0.41215466  0.24794610  0.60565202  1
  Te  Te110  1  0.41914442  0.24103382  0.92869294  1
  Te  Te111  1  0.39426432  0.57505941  0.23706820  1
  Te  Te112  1  0.41601166  0.57891028  0.57524112  1
  Te  Te113  1  0.39085988  0.56245810  0.95265648  1
  Te  Te114  1  0.37665530  0.93516423  0.21655179  1
  Te  Te115  1  0.40791488  0.90769245  0.58470065  1
  Te  Te116  1  0.43740154  0.96184218  0.94830366  1
  Te  Te117  1  0.73009882  0.22990690  0.24511223  1
  Te  Te118  1  0.74396961  0.24227218  0.57153239  1
  Te  Te119  1  0.73116589  0.24341537  0.90732367  1
  Te  Te120  1  0.74119493  0.58996468  0.25667342  1
  Te  Te121  1  0.74953686  0.57635943  0.59465685  1
  Te  Te122  1  0.75103004  0.57531392  0.92760926  1
  Te  Te123  1  0.73615463  0.90312275  0.22715562  1
  Te  Te124  1  0.75286259  0.91075094  0.58065616  1
  Te  Te125  1  0.74029516  0.91657932  0.93441776  1
  Te  Te126  1  0.25023495  0.23183288  0.10873146  1
  Te  Te127  1  0.24181158  0.22736680  0.38772412  1
  Te  Te128  1  0.25478835  0.24091121  0.72762060  1
  Te  Te129  1  0.27918121  0.59787389  0.05871844  1
  Te  Te130  1  0.25490717  0.57138453  0.43062676  1
  Te  Te131  1  0.25761375  0.58912571  0.76319137  1
  Te  Te132  1  0.24738101  0.96920400  0.11009940  1
  Te  Te133  1  0.25263141  0.93833462  0.37289827  1
  Te  Te134  1  0.26626321  0.90176750  0.78578010  1
  Te  Te135  1  0.55626781  0.23475232  0.06507199  1
  Te  Te136  1  0.57828885  0.23048713  0.42119953  1
  Te  Te137  1  0.57738767  0.22187640  0.77190417  1
  Te  Te138  1  0.56121456  0.59644035  0.08250537  1
  Te  Te139  1  0.57589774  0.59731696  0.42742627  1
  Te  Te140  1  0.58153690  0.59891975  0.76433859  1
  Te  Te141  1  0.55973818  0.95114496  0.06199938  1
  Te  Te142  1  0.57932609  0.91442590  0.41286408  1
  Te  Te143  1  0.56008165  0.95540059  0.76723065  1
  Te  Te144  1  0.93748464  0.25434043  0.07801794  1
  Te  Te145  1  0.91741617  0.27663208  0.43692478  1
  Te  Te146  1  0.91027703  0.25041464  0.75793556  1
  Te  Te147  1  0.91381043  0.57109746  0.07934258  1
  Te  Te148  1  0.93042747  0.56988011  0.42502731  1
  Te  Te149  1  0.92603027  0.54410907  0.79521807  1
  Te  Te150  1  0.93428522  0.92410412  0.08175423  1
  Te  Te151  1  0.91468414  0.92591618  0.38674463  1
  Te  Te152  1  0.94456005  0.94812134  0.73969064  1
  Te  Te153  1  0.26066726  0.03789964  0.24914998  1
  Te  Te154  1  0.25273203  0.07745200  0.58169036  1
  Te  Te155  1  0.27076199  0.06991248  0.93748239  1
  Te  Te156  1  0.25437235  0.42174497  0.21982819  1
  Te  Te157  1  0.27307783  0.41444643  0.57693871  1
  Te  Te158  1  0.25873698  0.41958887  0.90747440  1
  Te  Te159  1  0.25768446  0.77899552  0.22964512  1
  Te  Te160  1  0.24373123  0.75262581  0.57341563  1
  Te  Te161  1  0.28999633  0.76591483  0.94675389  1
  Te  Te162  1  0.55469532  0.04973561  0.25130501  1
  Te  Te163  1  0.57655617  0.10859200  0.59104976  1
  Te  Te164  1  0.56594681  0.05006297  0.94773287  1
  Te  Te165  1  0.58745571  0.41206655  0.24135059  1
  Te  Te166  1  0.59098622  0.41757284  0.58897117  1
  Te  Te167  1  0.56207755  0.42925085  0.93489003  1
  Te  Te168  1  0.56788393  0.78150162  0.22270439  1
  Te  Te169  1  0.55489007  0.74180356  0.57032516  1
  Te  Te170  1  0.52914498  0.76800513  0.95156751  1
  Te  Te171  1  0.91318205  0.10206227  0.24464076  1
  Te  Te172  1  0.94162729  0.10054069  0.57985795  1
  Te  Te173  1  0.92603844  0.07362192  0.93402654  1
  Te  Te174  1  0.93628339  0.39295243  0.24984329  1
  Te  Te175  1  0.92245252  0.37979220  0.57342441  1
  Te  Te176  1  0.92467299  0.44472085  0.92402089  1
  Te  Te177  1  0.92012339  0.78056963  0.23968643  1
  Te  Te178  1  0.91706383  0.74779613  0.56810329  1
  Te  Te179  1  0.91530488  0.73797726  0.90710969  1
