# generated using pymatgen
data_In2Te3
_symmetry_space_group_name_H-M   'P 1'
_cell_length_a   18.79166293
_cell_length_b   18.78910229
_cell_length_c   18.78591852
_cell_angle_alpha   89.99056355
_cell_angle_beta   89.96329890
_cell_angle_gamma   90.07342831
_symmetry_Int_Tables_number   1
_chemical_formula_structural   In2Te3
_chemical_formula_sum   'In72 Te108'
_cell_volume   6632.89659773
_cell_formula_units_Z   36
loop_
 _symmetry_equiv_pos_site_id
 _symmetry_equiv_pos_as_xyz
  1  'x, y, z'
loop_
 _atom_site_type_symbol
 _atom_site_label
 _atom_site_symmetry_multiplicity
 _atom_site_fract_x
 _atom_site_fract_y
 _atom_site_fract_z
 _atom_site_occupancy
  In  In0  1  0.83829498  0.00334146  0.14497037  1
  In  In1  1  0.68807693  0.50870948  0.84060772  1
  In  In2  1  0.16495226  0.32964935  0.15983304  1
  In  In3  1  0.48853459  0.00436456  0.49556705  1
  In  In4  1  0.51489894  0.33791372  0.49050617  1
  In  In5  1  0.66073260  0.31846480  0.32329384  1
  In  In6  1  0.67289755  0.00336431  0.33101246  1
  In  In7  1  0.33510273  0.34017274  0.69132695  1
  In  In8  1  0.18103704  0.50877802  0.30948787  1
  In  In9  1  0.15605659  0.69854074  0.83033722  1
  In  In10  1  0.84624767  0.66346209  0.15729549  1
  In  In11  1  0.67332755  0.68588127  -0.01654040  1
  In  In12  1  0.82280732  0.16473982  0.32473164  1
  In  In13  1  0.65072499  0.67533403  0.33380370  1
  In  In14  1  0.16339594  0.00311492  0.16743029  1
  In  In15  1  0.68275060  0.48369082  0.16088119  1
  In  In16  1  -0.01914916  0.16028640  0.84061926  1
  In  In17  1  0.66230676  0.35311278  0.67511142  1
  In  In18  1  0.68345540  0.30663757  -0.00750893  1
  In  In19  1  0.12221568  -0.03505100  0.85960057  1
  In  In20  1  0.14443554  0.83726784  0.66417585  1
  In  In21  1  0.15456614  0.65943862  0.15253129  1
  In  In22  1  0.00159310  0.14321334  0.49875361  1
  In  In23  1  0.16565963  0.31344077  0.48415743  1
  In  In24  1  -0.02597853  0.18489427  0.14569504  1
  In  In25  1  0.85094080  0.48258977  0.34554007  1
  In  In26  1  0.81904549  0.34284265  0.50505282  1
  In  In27  1  0.70118475  0.65992509  0.65321251  1
  In  In28  1  0.01050885  0.51722188  0.50709649  1
  In  In29  1  0.33077860  0.01682946  0.02013136  1
  In  In30  1  0.35726710  0.49625364  0.82395582  1
  In  In31  1  0.49781516  0.68251239  0.17385749  1
  In  In32  1  0.16186679  0.84792561  0.33391249  1
  In  In33  1  0.00237886  0.32756616  0.31044992  1
  In  In34  1  0.33366096  0.16616828  0.47336022  1
  In  In35  1  0.67756953  0.17191403  0.14851998  1
  In  In36  1  0.66626817  0.85896366  0.51705147  1
  In  In37  1  0.83455840  0.83324274  0.33391925  1
  In  In38  1  0.34643288  0.64919829  0.32985378  1
  In  In39  1  0.52359577  0.66982648  0.84689994  1
  In  In40  1  0.35792582  0.32601072  -0.00245606  1
  In  In41  1  0.33346974  0.82820693  0.50178906  1
  In  In42  1  0.49288716  0.32081732  0.83753450  1
  In  In43  1  0.16320603  -0.00650351  0.48774812  1
  In  In44  1  0.69442380  -0.01479076  0.68460629  1
  In  In45  1  0.84353354  -0.01099187  0.85369409  1
  In  In46  1  0.50601782  0.66841766  0.49327918  1
  In  In47  1  -0.00065696  0.66363511  0.00024555  1
  In  In48  1  0.32854463  0.67628152  0.67424617  1
  In  In49  1  0.10352130  0.65493138  0.49241111  1
  In  In50  1  -0.01872027  0.00438173  0.69228248  1
  In  In51  1  0.51120715  0.17414377  0.66985294  1
  In  In52  1  0.81373164  0.66557403  0.82605934  1
  In  In53  1  0.34266826  0.18571217  0.84029784  1
  In  In54  1  0.81483725  0.83492948  0.00726414  1
  In  In55  1  0.15794370  0.32005813  0.83370234  1
  In  In56  1  0.49167154  0.50653347  0.00187847  1
  In  In57  1  0.35131228  0.17179131  0.18742230  1
  In  In58  1  -0.00323487  0.65812250  0.33950633  1
  In  In59  1  -0.02192337  0.32805143  0.67146672  1
  In  In60  1  0.15295746  0.15795008  -0.01873979  1
  In  In61  1  0.16410863  0.50145738  0.01799743  1
  In  In62  1  0.33226903  -0.00085810  0.64712121  1
  In  In63  1  0.53563912  0.01454319  0.85468773  1
  In  In64  1  0.52814077  -0.03048955  0.15311355  1
  In  In65  1  0.65738964  0.20461255  0.51309648  1
  In  In66  1  -0.03828133  0.48175187  0.85827085  1
  In  In67  1  0.33133199  0.83178907  0.85336004  1
  In  In68  1  0.34002503  0.83448094  0.16643382  1
  In  In69  1  0.15248787  0.50461809  0.63777316  1
  In  In70  1  0.84122058  -0.01071169  0.51342046  1
  In  In71  1  0.35951001  0.49392213  0.47781936  1
  Te  Te72  1  0.06563902  0.07922159  0.07540189  1
  Te  Te73  1  0.09279734  0.08791771  0.39845877  1
  Te  Te74  1  0.08964036  0.08230190  0.76438741  1
  Te  Te75  1  0.06864095  0.40877900  0.08035319  1
  Te  Te76  1  0.08385353  0.42252467  0.40907106  1
  Te  Te77  1  0.07838023  0.41904011  0.74817773  1
  Te  Te78  1  0.08226893  0.76507007  0.07402704  1
  Te  Te79  1  0.05117956  0.78437781  0.42607214  1
  Te  Te80  1  0.04911728  0.77905059  0.76528987  1
  Te  Te81  1  0.44128482  0.08540462  0.09678738  1
  Te  Te82  1  0.41620310  0.07635924  0.38968284  1
  Te  Te83  1  0.41875779  0.08265694  0.74884485  1
  Te  Te84  1  0.41778534  0.41809703  0.09474174  1
  Te  Te85  1  0.41420383  0.38777658  0.38654769  1
  Te  Te86  1  0.45462748  0.42514303  0.73012813  1
  Te  Te87  1  0.41954527  0.75478579  0.07126690  1
  Te  Te88  1  0.42476554  0.75954370  0.40068261  1
  Te  Te89  1  0.42522774  0.75591548  0.75830991  1
  Te  Te90  1  0.76189283  0.09260917  0.05406532  1
  Te  Te91  1  0.74579800  0.09137282  0.43653239  1
  Te  Te92  1  0.76529703  0.08508995  0.76708374  1
  Te  Te93  1  0.76900363  0.41341973  0.05831768  1
  Te  Te94  1  0.72742419  0.42271500  0.41502629  1
  Te  Te95  1  0.76823404  0.41428732  0.75938460  1
  Te  Te96  1  0.73325791  0.75266974  0.10806173  1
  Te  Te97  1  0.74118384  0.75862122  0.42795574  1
  Te  Te98  1  0.71895707  0.75900128  0.76213019  1
  Te  Te99  1  0.08945049  0.22485428  0.24249740  1
  Te  Te100  1  0.07625550  0.24521199  0.58797977  1
  Te  Te101  1  0.05801075  0.26698534  0.93370243  1
  Te  Te102  1  0.06219426  0.56728905  0.23534111  1
  Te  Te103  1  0.04440753  0.61652858  0.63666879  1
  Te  Te104  1  0.08603075  0.57261170  0.90031570  1
  Te  Te105  1  0.06954789  0.91340951  0.24069632  1
  Te  Te106  1  0.05888578  0.93095287  0.58087482  1
  Te  Te107  1  0.05335812  0.88726162  0.96347668  1
  Te  Te108  1  0.40402189  0.28194855  0.27020388  1
  Te  Te109  1  0.41446200  0.25275300  0.58358822  1
  Te  Te110  1  0.45148532  0.21670429  0.94324929  1
  Te  Te111  1  0.43986507  0.56883526  0.25068309  1
  Te  Te112  1  0.41622661  0.58480671  0.58823409  1
  Te  Te113  1  0.40453975  0.60253199  0.92084388  1
  Te  Te114  1  0.42244235  0.92538405  0.24704599  1
  Te  Te115  1  0.43342990  0.89844242  0.59353054  1
  Te  Te116  1  0.41819377  0.93800806  0.92229778  1
  Te  Te117  1  0.77144601  0.26898637  0.22967071  1
  Te  Te118  1  0.76166227  0.25004292  0.61143250  1
  Te  Te119  1  0.72955472  0.20028235  0.89485557  1
  Te  Te120  1  0.75925657  0.58244045  0.25908353  1
  Te  Te121  1  0.78965924  0.58256321  0.56640857  1
  Te  Te122  1  0.77341527  0.57767587  0.94591492  1
  Te  Te123  1  0.74972040  0.91567690  0.23420642  1
  Te  Te124  1  0.78633935  0.88502966  0.60908198  1
  Te  Te125  1  0.72405363  0.92976560  0.93201311  1
  Te  Te126  1  0.25454240  0.23393307  0.06733470  1
  Te  Te127  1  0.25486536  0.25485064  0.38215959  1
  Te  Te128  1  0.23774046  0.23260321  0.73718793  1
  Te  Te129  1  0.26313939  0.57680764  0.09525015  1
  Te  Te130  1  0.24177468  0.58593995  0.43294448  1
  Te  Te131  1  0.24415423  0.57373106  0.75103784  1
  Te  Te132  1  0.24147857  0.90761392  0.07495300  1
  Te  Te133  1  0.27264972  0.92736718  0.40370801  1
  Te  Te134  1  0.24710525  0.91653620  0.74617942  1
  Te  Te135  1  0.58499455  0.27998499  0.10169195  1
  Te  Te136  1  0.56371237  0.22438166  0.39756391  1
  Te  Te137  1  0.60406429  0.23950596  0.76753644  1
  Te  Te138  1  0.59831652  0.58512263  0.08017584  1
  Te  Te139  1  0.57178170  0.57095134  0.40411014  1
  Te  Te140  1  0.59546306  0.58296845  0.74541570  1
  Te  Te141  1  0.60622756  0.91748002  0.03712016  1
  Te  Te142  1  0.57622434  0.91302347  0.40707128  1
  Te  Te143  1  0.58185738  0.91907667  0.75300768  1
  Te  Te144  1  0.90514927  0.26369126  0.04230650  1
  Te  Te145  1  0.91477679  0.25552358  0.42171445  1
  Te  Te146  1  0.89625566  0.26589311  0.77796147  1
  Te  Te147  1  0.92569835  0.56454492  0.08200077  1
  Te  Te148  1  0.88464168  0.60268677  0.44091799  1
  Te  Te149  1  0.90708744  0.57297402  0.75532072  1
  Te  Te150  1  0.93066335  0.91101964  0.06779326  1
  Te  Te151  1  0.91837657  0.93732039  0.39987025  1
  Te  Te152  1  0.91936628  0.89196852  0.76725936  1
  Te  Te153  1  0.25688555  0.07959656  0.25313024  1
  Te  Te154  1  0.24030041  0.09475605  0.57405843  1
  Te  Te155  1  0.24970507  0.07154901  0.89989376  1
  Te  Te156  1  0.26359388  0.41490848  0.23260459  1
  Te  Te157  1  0.25922140  0.40941675  0.57551330  1
  Te  Te158  1  0.26093652  0.40745998  0.90836054  1
  Te  Te159  1  0.23800176  0.73600087  0.26138461  1
  Te  Te160  1  0.22846743  0.74297418  0.57642042  1
  Te  Te161  1  0.24582568  0.74445154  0.93650940  1
  Te  Te162  1  0.58829422  0.09049220  0.24233564  1
  Te  Te163  1  0.59438701  0.07668413  0.58682373  1
  Te  Te164  1  0.60558579  0.12032794  0.93258408  1
  Te  Te165  1  0.57921363  0.40601824  0.23438234  1
  Te  Te166  1  0.59578765  0.43268867  0.56962361  1
  Te  Te167  1  0.58505102  0.41556403  0.91729050  1
  Te  Te168  1  0.58737444  0.77562447  0.24580649  1
  Te  Te169  1  0.58837868  0.75023425  0.59073664  1
  Te  Te170  1  0.56660598  0.78150555  0.93949948  1
  Te  Te171  1  0.92147967  0.07942695  0.24997208  1
  Te  Te172  1  0.89998724  0.09821064  0.60377124  1
  Te  Te173  1  0.92209087  0.07505157  0.94738048  1
  Te  Te174  1  0.91043771  0.41073376  0.23116497  1
  Te  Te175  1  0.90757671  0.43523563  0.58900245  1
  Te  Te176  1  0.88576011  0.38334013  0.94147157  1
  Te  Te177  1  0.93243597  0.75724297  0.24163023  1
  Te  Te178  1  0.97249992  0.72249262  0.54995356  1
  Te  Te179  1  0.90381336  0.74898984  0.91740439  1
