# generated using pymatgen
data_In2Te3
_symmetry_space_group_name_H-M   'P 1'
_cell_length_a   18.86373132
_cell_length_b   18.87080740
_cell_length_c   18.86539783
_cell_angle_alpha   90.07634087
_cell_angle_beta   89.92010355
_cell_angle_gamma   89.88275546
_symmetry_Int_Tables_number   1
_chemical_formula_structural   In2Te3
_chemical_formula_sum   'In72 Te108'
_cell_volume   6715.56154523
_cell_formula_units_Z   36
loop_
 _symmetry_equiv_pos_site_id
 _symmetry_equiv_pos_as_xyz
  1  'x, y, z'
loop_
 _atom_site_type_symbol
 _atom_site_label
 _atom_site_symmetry_multiplicity
 _atom_site_fract_x
 _atom_site_fract_y
 _atom_site_fract_z
 _atom_site_occupancy
  In  In0  1  -0.01870639  0.30987482  0.01509685  1
  In  In1  1  0.64874318  0.83979513  0.15331510  1
  In  In2  1  0.83698455  0.66067314  0.19490305  1
  In  In3  1  0.33736118  0.49820276  0.17570378  1
  In  In4  1  0.01588771  0.14413682  0.48914431  1
  In  In5  1  0.34385514  0.65838550  0.66396479  1
  In  In6  1  0.65670553  0.16334310  0.17168607  1
  In  In7  1  0.33411740  0.01478318  0.02045169  1
  In  In8  1  0.01279127  0.47803349  0.82691229  1
  In  In9  1  0.17980898  0.16459678  0.33927536  1
  In  In10  1  0.16157862  0.68747491  0.81484185  1
  In  In11  1  0.49039735  0.51704508  0.68146930  1
  In  In12  1  0.15284506  0.32427294  0.82513577  1
  In  In13  1  -0.00000551  0.33778955  0.34297103  1
  In  In14  1  0.50158948  0.33508820  0.48276129  1
  In  In15  1  0.00072298  0.67711562  0.01319181  1
  In  In16  1  0.00929493  0.68792410  0.31609206  1
  In  In17  1  0.01094537  0.50855403  0.17851735  1
  In  In18  1  0.15767199  0.85109174  0.67861797  1
  In  In19  1  0.49288792  -0.00544305  0.82136664  1
  In  In20  1  -0.02553550  0.70527971  0.64116818  1
  In  In21  1  0.85389998  0.50176922  0.33247901  1
  In  In22  1  -0.01344683  0.15040424  0.16124120  1
  In  In23  1  0.52162459  0.32286461  0.84165439  1
  In  In24  1  0.33160343  -0.00745016  0.30887659  1
  In  In25  1  0.50059259  0.14950551  0.00667615  1
  In  In26  1  0.00428803  0.51972664  0.50028166  1
  In  In27  1  0.49218105  0.16250448  0.32534249  1
  In  In28  1  0.65135652  0.66076137  -0.01194454  1
  In  In29  1  0.84000740  0.86345279  0.36205381  1
  In  In30  1  0.68364543  0.85329349  0.51361764  1
  In  In31  1  0.83662687  -0.00566498  0.16091410  1
  In  In32  1  0.65295625  -0.02175348  -0.00818842  1
  In  In33  1  -0.02202729  0.01909809  -0.01921033  1
  In  In34  1  0.47630361  0.83101289  0.33391538  1
  In  In35  1  0.29766928  0.85694073  0.84235328  1
  In  In36  1  0.30849635  0.69880302  0.32823633  1
  In  In37  1  0.49053203  0.30840332  0.17323138  1
  In  In38  1  0.68009623  0.49772254  0.51517858  1
  In  In39  1  0.67249741  0.64558582  0.33673122  1
  In  In40  1  0.49159228  0.67301941  0.84889689  1
  In  In41  1  0.15575209  0.01219596  0.84110647  1
  In  In42  1  0.49064172  0.49208499  0.33273309  1
  In  In43  1  0.48836551  0.68520555  0.13320507  1
  In  In44  1  0.67904939  0.03493334  0.34759009  1
  In  In45  1  0.68630351  0.32640593  0.67387237  1
  In  In46  1  0.31812794  0.32889532  0.64975460  1
  In  In47  1  0.33976523  0.51381145  0.84319109  1
  In  In48  1  0.51693964  0.83128749  0.66941416  1
  In  In49  1  0.51417665  0.00838709  0.50843972  1
  In  In50  1  0.84381273  0.31455158  0.50046498  1
  In  In51  1  0.16210657  0.67646492  0.48658353  1
  In  In52  1  0.19372783  0.52998583  0.01563506  1
  In  In53  1  0.15717756  0.01876202  0.49508460  1
  In  In54  1  0.82656501  0.84755442  0.00726708  1
  In  In55  1  0.66040758  0.30201834  0.32847215  1
  In  In56  1  0.84032908  0.51227980  0.65782360  1
  In  In57  1  0.84118712  0.30438824  0.83651932  1
  In  In58  1  0.34148155  0.85025328  0.49930659  1
  In  In59  1  0.82459815  0.68047337  0.82591411  1
  In  In60  1  0.79305142  0.45740621  0.02965143  1
  In  In61  1  0.34417250  0.32375314  0.00100553  1
  In  In62  1  0.52480600  0.15269964  0.66617598  1
  In  In63  1  0.16868070  0.16236524  0.65388537  1
  In  In64  1  0.16053259  0.83394487  0.00710549  1
  In  In65  1  -0.02891402  0.00068544  0.67113397  1
  In  In66  1  0.17446815  0.34579389  0.16297491  1
  In  In67  1  0.17208315  0.34161907  0.48975085  1
  In  In68  1  0.84273900  0.17503822  0.67255818  1
  In  In69  1  0.16160500  0.18038195  0.01120735  1
  In  In70  1  0.67378826  0.83276751  0.82284764  1
  In  In71  1  0.64159484  0.50890033  0.82897166  1
  Te  Te72  1  0.08561757  0.06793635  0.07910143  1
  Te  Te73  1  0.07248701  0.05904829  0.37399607  1
  Te  Te74  1  0.06735225  0.09202531  0.74625333  1
  Te  Te75  1  0.08601244  0.42180956  0.06471778  1
  Te  Te76  1  0.08978169  0.44313971  0.40101916  1
  Te  Te77  1  0.10116566  0.41976197  0.72561849  1
  Te  Te78  1  0.09133060  0.74514643  0.10875812  1
  Te  Te79  1  0.08701588  0.78180909  0.40834504  1
  Te  Te80  1  0.05177797  0.77390691  0.75446738  1
  Te  Te81  1  0.41336159  0.09913878  0.11294234  1
  Te  Te82  1  0.41141080  0.07107301  0.41558499  1
  Te  Te83  1  0.41539767  0.09153900  0.74352812  1
  Te  Te84  1  0.42900545  0.41792366  0.08364842  1
  Te  Te85  1  0.39744159  0.40986594  0.41226488  1
  Te  Te86  1  0.41585120  0.40851357  0.75975693  1
  Te  Te87  1  0.37096893  0.72643596  0.05612360  1
  Te  Te88  1  0.41756254  0.73618853  0.43629973  1
  Te  Te89  1  0.40056187  0.76400690  0.76069485  1
  Te  Te90  1  0.73792390  0.07133974  0.07712079  1
  Te  Te91  1  0.78080006  0.03631752  0.45124755  1
  Te  Te92  1  0.79421859  0.08406807  0.77718015  1
  Te  Te93  1  0.72021434  0.35553323  0.10127692  1
  Te  Te94  1  0.75567615  0.40880661  0.41419292  1
  Te  Te95  1  0.75904675  0.42916776  0.75908881  1
  Te  Te96  1  0.75254656  0.73902931  0.08606645  1
  Te  Te97  1  0.74822339  0.75226637  0.41398586  1
  Te  Te98  1  0.74593739  0.74897739  0.72128246  1
  Te  Te99  1  0.07874784  0.25276861  0.24024430  1
  Te  Te100  1  0.07798760  0.25426359  0.57309651  1
  Te  Te101  1  0.06240053  0.23467199  0.90952514  1
  Te  Te102  1  0.10425843  0.59545995  0.24947955  1
  Te  Te103  1  0.08235909  0.60672430  0.59723783  1
  Te  Te104  1  0.08728720  0.58816984  0.91584767  1
  Te  Te105  1  0.11181051  0.82779637  0.25844124  1
  Te  Te106  1  0.07158207  0.92162810  0.57700869  1
  Te  Te107  1  0.06883494  0.91183375  0.91130606  1
  Te  Te108  1  0.39584987  0.26370247  0.27674659  1
  Te  Te109  1  0.43091291  0.24865646  0.58657545  1
  Te  Te110  1  0.41856515  0.23163895  0.90613265  1
  Te  Te111  1  0.42030419  0.60648142  0.25769222  1
  Te  Te112  1  0.41088990  0.56796157  0.56979132  1
  Te  Te113  1  0.43532973  0.57063738  0.93828697  1
  Te  Te114  1  0.40413088  0.89343302  0.22052649  1
  Te  Te115  1  0.42113229  0.92894926  0.60065387  1
  Te  Te116  1  0.40823829  0.91953522  0.92374962  1
  Te  Te117  1  0.75940559  0.21358437  0.26580574  1
  Te  Te118  1  0.73722269  0.23259050  0.56786862  1
  Te  Te119  1  0.78522717  0.21571741  0.93780320  1
  Te  Te120  1  0.74152830  0.55071028  0.23924853  1
  Te  Te121  1  0.76270016  0.60356206  0.57388575  1
  Te  Te122  1  0.75889022  0.57753358  0.91729125  1
  Te  Te123  1  0.73819653  0.91408663  0.25146984  1
  Te  Te124  1  0.78927533  0.88737600  0.62193384  1
  Te  Te125  1  0.76629725  0.93155241  0.89713510  1
  Te  Te126  1  0.26738809  0.24086374  0.10228946  1
  Te  Te127  1  0.26450559  0.24123349  0.43135303  1
  Te  Te128  1  0.25618071  0.23749194  0.75507711  1
  Te  Te129  1  0.27129561  0.61824654  0.10838630  1
  Te  Te130  1  0.24882239  0.58987561  0.40668411  1
  Te  Te131  1  0.24249522  0.57769505  0.74582740  1
  Te  Te132  1  0.25004685  0.91498000  0.09328028  1
  Te  Te133  1  0.24298060  0.92032201  0.41217274  1
  Te  Te134  1  0.25170155  0.95488180  0.73501506  1
  Te  Te135  1  0.59817609  0.25989508  0.06701055  1
  Te  Te136  1  0.58673696  0.21910642  0.43138003  1
  Te  Te137  1  0.61726748  0.23096506  0.76754091  1
  Te  Te138  1  0.58446356  0.58152401  0.09153932  1
  Te  Te139  1  0.57793293  0.57281258  0.43046702  1
  Te  Te140  1  0.58685956  0.61867622  0.74035784  1
  Te  Te141  1  0.54960860  0.91548261  0.07704868  1
  Te  Te142  1  0.58264125  0.91576173  0.40526928  1
  Te  Te143  1  0.60596852  0.93674473  0.73357627  1
  Te  Te144  1  0.88146619  0.22377646  0.08272906  1
  Te  Te145  1  0.91615857  0.22669185  0.40099605  1
  Te  Te146  1  0.93524285  0.27527502  0.72820422  1
  Te  Te147  1  0.90863755  0.57729568  0.08487744  1
  Te  Te148  1  0.91517769  0.60975352  0.41676467  1
  Te  Te149  1  0.93351827  0.58970420  0.75233340  1
  Te  Te150  1  0.93969835  0.91185299  0.08484271  1
  Te  Te151  1  0.95416137  0.90260873  0.44792927  1
  Te  Te152  1  0.88206773  0.90615687  0.73990094  1
  Te  Te153  1  0.23380667  0.07510382  0.23540767  1
  Te  Te154  1  0.26266130  0.09485585  0.56261176  1
  Te  Te155  1  0.25230919  0.09766891  0.91995094  1
  Te  Te156  1  0.25107280  0.41873916  0.26411383  1
  Te  Te157  1  0.24510834  0.43415820  0.57984328  1
  Te  Te158  1  0.24514206  0.40973276  0.92153618  1
  Te  Te159  1  0.25757874  0.80786029  0.23717197  1
  Te  Te160  1  0.24726047  0.76166538  0.59377647  1
  Te  Te161  1  0.25596457  0.73489310  0.92464608  1
  Te  Te162  1  0.57060187  0.06028479  0.24380144  1
  Te  Te163  1  0.62052840  0.06344432  0.59487306  1
  Te  Te164  1  0.58926662  0.08296715  0.90272817  1
  Te  Te165  1  0.58370445  0.40468954  0.24872681  1
  Te  Te166  1  0.58346492  0.41271975  0.60176153  1
  Te  Te167  1  0.59799615  0.41256882  0.92987546  1
  Te  Te168  1  0.58482780  0.74223363  0.25379219  1
  Te  Te169  1  0.58157130  0.75729263  0.56092550  1
  Te  Te170  1  0.57508723  0.77585030  0.92526583  1
  Te  Te171  1  0.92142954  0.06131480  0.26056970  1
  Te  Te172  1  0.89260250  0.07624785  0.55521727  1
  Te  Te173  1  0.89296820  0.10853322  0.89372700  1
  Te  Te174  1  0.91468075  0.40236901  0.23360063  1
  Te  Te175  1  0.92714170  0.41432021  0.57943996  1
  Te  Te176  1  0.91244647  0.41921011  0.92703142  1
  Te  Te177  1  0.90887407  0.78142430  0.24779066  1
  Te  Te178  1  0.90393655  0.79789055  0.54645079  1
  Te  Te179  1  0.91582046  0.75984218  0.91792852  1
