# generated using pymatgen
data_In2Te3
_symmetry_space_group_name_H-M   'P 1'
_cell_length_a   18.76256212
_cell_length_b   18.77164617
_cell_length_c   18.76786170
_cell_angle_alpha   90.04080540
_cell_angle_beta   89.98026218
_cell_angle_gamma   89.97612603
_symmetry_Int_Tables_number   1
_chemical_formula_structural   In2Te3
_chemical_formula_sum   'In72 Te108'
_cell_volume   6610.11665024
_cell_formula_units_Z   36
loop_
 _symmetry_equiv_pos_site_id
 _symmetry_equiv_pos_as_xyz
  1  'x, y, z'
loop_
 _atom_site_type_symbol
 _atom_site_label
 _atom_site_symmetry_multiplicity
 _atom_site_fract_x
 _atom_site_fract_y
 _atom_site_fract_z
 _atom_site_occupancy
  In  In0  1  0.01134294  0.48354017  0.15709863  1
  In  In1  1  0.48655892  -0.03418872  0.48328420  1
  In  In2  1  0.17836275  0.35671341  0.85917014  1
  In  In3  1  0.63823231  0.53985272  0.14391254  1
  In  In4  1  0.65912727  0.16010220  0.49769182  1
  In  In5  1  0.34543396  0.00773057  0.65656831  1
  In  In6  1  0.34191317  0.65566081  0.70893857  1
  In  In7  1  0.66739427  0.00401564  0.00394034  1
  In  In8  1  0.33933929  -0.01310016  0.32134581  1
  In  In9  1  0.15904064  -0.01692945  0.84112010  1
  In  In10  1  0.18162378  0.33752319  0.50056325  1
  In  In11  1  0.83050524  -0.00600713  0.50001520  1
  In  In12  1  0.00171664  0.32862596  0.33403657  1
  In  In13  1  0.82160701  0.82802699  0.32537181  1
  In  In14  1  0.81416256  -0.00717360  0.82593834  1
  In  In15  1  0.50315709  0.35505835  0.14441472  1
  In  In16  1  0.34477217  0.17097036  0.15847869  1
  In  In17  1  0.17264709  0.17125139  0.01701156  1
  In  In18  1  -0.02605475  0.82777348  0.51730659  1
  In  In19  1  0.67468731  0.50687523  0.51334402  1
  In  In20  1  0.82997379  -0.02621452  0.17084172  1
  In  In21  1  0.50108084  0.50674562  0.32371738  1
  In  In22  1  0.36020668  0.81422368  0.84692287  1
  In  In23  1  0.18324469  -0.02660626  0.16521072  1
  In  In24  1  0.35258943  -0.02757381  -0.02414386  1
  In  In25  1  0.81841441  0.14493965  -0.05848702  1
  In  In26  1  0.19637265  0.37512303  0.18375815  1
  In  In27  1  0.01354624  0.33881801  0.02360153  1
  In  In28  1  0.64848817  0.82056770  0.50638982  1
  In  In29  1  0.34299205  0.52636720  0.49551138  1
  In  In30  1  0.50601652  0.15783539  0.67462344  1
  In  In31  1  0.83845757  0.35591222  0.50652856  1
  In  In32  1  0.82543196  0.15587021  0.32014831  1
  In  In33  1  0.62456245  0.38709607  -0.00094477  1
  In  In34  1  -0.03427953  0.14668526  0.84833457  1
  In  In35  1  0.18227964  0.65655034  0.14803064  1
  In  In36  1  0.17920902  0.82739231  0.32922344  1
  In  In37  1  0.48626581  0.68540647  0.51950893  1
  In  In38  1  0.65477133  0.16971458  0.16682326  1
  In  In39  1  -0.01463462  -0.01960102  0.65918217  1
  In  In40  1  0.80727676  0.36662816  0.82288708  1
  In  In41  1  0.18346123  0.65986829  0.50414015  1
  In  In42  1  0.82169523  0.80334106  0.00106811  1
  In  In43  1  0.81042708  0.67358020  0.14984998  1
  In  In44  1  0.00560319  0.50888366  0.51806725  1
  In  In45  1  -0.00424772  0.52427993  0.84299965  1
  In  In46  1  0.35362629  0.37620528  0.68581294  1
  In  In47  1  0.36566464  0.67012213  0.33171720  1
  In  In48  1  0.50223587  0.17447818  0.31660560  1
  In  In49  1  0.16270834  0.79629451  0.69049954  1
  In  In50  1  0.35805839  0.67888539  -0.00802416  1
  In  In51  1  0.50088245  0.34709845  0.50760900  1
  In  In52  1  0.49490490  -0.02449442  0.14981373  1
  In  In53  1  0.66099810  0.16670311  0.84507237  1
  In  In54  1  0.30893015  0.17807011  0.49741911  1
  In  In55  1  0.35550305  0.17227939  0.82554891  1
  In  In56  1  0.01272974  0.14238811  0.15314097  1
  In  In57  1  0.36392662  0.37258838  -0.02892637  1
  In  In58  1  0.84202712  0.33355464  0.16567574  1
  In  In59  1  0.82578345  0.66070860  0.53302193  1
  In  In60  1  0.02453228  0.13422184  0.48549966  1
  In  In61  1  0.00529702  0.35772912  0.66900567  1
  In  In62  1  0.18343333  0.82750568  -0.00441781  1
  In  In63  1  0.18373328  0.15621374  0.66602699  1
  In  In64  1  0.80880591  0.16143254  0.70348137  1
  In  In65  1  0.80617611  0.52572226  -0.02937781  1
  In  In66  1  0.67402753  0.35902101  0.68849753  1
  In  In67  1  0.63635257  0.68646620  0.30331852  1
  In  In68  1  0.14116663  0.16667058  0.35078295  1
  In  In69  1  0.00070678  0.67978088  -0.00585778  1
  In  In70  1  0.80886505  0.80929509  0.68924904  1
  In  In71  1  -0.01316515  0.65938576  0.33049831  1
  Te  Te72  1  0.09347202  0.04859388  0.06297080  1
  Te  Te73  1  0.09654187  0.03562623  0.40405076  1
  Te  Te74  1  0.07436450  0.08337961  0.74479667  1
  Te  Te75  1  0.12351339  0.43710644  0.06283111  1
  Te  Te76  1  0.08654350  0.42445288  0.41719143  1
  Te  Te77  1  0.09677971  0.43996962  0.75637687  1
  Te  Te78  1  0.08412690  0.76023653  0.09428789  1
  Te  Te79  1  0.07280200  0.74266700  0.42755430  1
  Te  Te80  1  0.06402790  0.69860560  0.74386189  1
  Te  Te81  1  0.42224558  0.08193263  0.06561086  1
  Te  Te82  1  0.41504635  0.09697283  0.41770017  1
  Te  Te83  1  0.43943926  0.05652925  0.76896694  1
  Te  Te84  1  0.41038000  0.45852910  0.08687002  1
  Te  Te85  1  0.40792785  0.41670887  0.40881721  1
  Te  Te86  1  0.43659341  0.42926086  0.79649771  1
  Te  Te87  1  0.46439433  0.73048331  0.08611662  1
  Te  Te88  1  0.41900565  0.77504428  0.42205398  1
  Te  Te89  1  0.44337422  0.76860823  0.73057340  1
  Te  Te90  1  0.76324226  0.09544959  0.08765617  1
  Te  Te91  1  0.73494552  0.06502636  0.40401023  1
  Te  Te92  1  0.69926676  0.05466959  0.73285925  1
  Te  Te93  1  0.75182496  0.42864196  0.08515708  1
  Te  Te94  1  0.74187218  0.41808822  0.41583261  1
  Te  Te95  1  0.73731927  0.47799804  0.75558212  1
  Te  Te96  1  0.70541988  0.75006410  0.07826826  1
  Te  Te97  1  0.74847732  0.73373667  0.42144281  1
  Te  Te98  1  0.71677434  0.73795940  0.78128427  1
  Te  Te99  1  0.08628702  0.25970342  0.22531123  1
  Te  Te100  1  0.07786196  0.25194776  0.58069234  1
  Te  Te101  1  0.08068004  0.24141706  0.91222936  1
  Te  Te102  1  0.08801076  0.58135437  0.24636205  1
  Te  Te103  1  0.10102038  0.58402803  0.60324130  1
  Te  Te104  1  0.09645266  0.58599474  0.93223016  1
  Te  Te105  1  0.08244378  0.90354405  0.24672854  1
  Te  Te106  1  0.09011202  0.89631094  0.58991453  1
  Te  Te107  1  0.07830365  0.87737924  0.90276982  1
  Te  Te108  1  0.41533592  0.27596055  0.24344499  1
  Te  Te109  1  0.40820063  0.25027847  0.59123425  1
  Te  Te110  1  0.43557490  0.25327033  0.91983464  1
  Te  Te111  1  0.41838979  0.58009711  0.22427168  1
  Te  Te112  1  0.43051099  0.57443878  0.60884191  1
  Te  Te113  1  0.43586739  0.58800478  0.89116446  1
  Te  Te114  1  0.43135730  0.88843385  0.25552153  1
  Te  Te115  1  0.43342570  0.89889933  0.60491655  1
  Te  Te116  1  0.46287347  0.88824771  0.92615012  1
  Te  Te117  1  0.73880150  0.26313105  0.25539157  1
  Te  Te118  1  0.74105282  0.25392682  0.58961222  1
  Te  Te119  1  0.73833779  0.27831766  0.92637651  1
  Te  Te120  1  0.74172053  0.58665296  0.25407163  1
  Te  Te121  1  0.72193218  0.60006976  0.62053762  1
  Te  Te122  1  0.72921215  0.63360389  0.90450029  1
  Te  Te123  1  0.72354526  0.90155628  0.24295642  1
  Te  Te124  1  0.74458161  0.90837497  0.59129834  1
  Te  Te125  1  0.72428269  0.89346583  0.90232927  1
  Te  Te126  1  0.26799941  0.27581527  0.07355748  1
  Te  Te127  1  0.25371439  0.26565632  0.38618073  1
  Te  Te128  1  0.25011032  0.26642184  0.74995655  1
  Te  Te129  1  0.28722051  0.57518083  0.07918776  1
  Te  Te130  1  0.24420664  0.57786054  0.38794355  1
  Te  Te131  1  0.24457063  0.55931575  0.76469542  1
  Te  Te132  1  0.28785295  0.89209802  0.08815014  1
  Te  Te133  1  0.27013577  0.90192828  0.42074035  1
  Te  Te134  1  0.25986403  0.91369011  0.75071569  1
  Te  Te135  1  0.57827772  0.24996114  0.06364612  1
  Te  Te136  1  0.58556373  0.26310956  0.41136509  1
  Te  Te137  1  0.57631056  0.26332764  0.75900072  1
  Te  Te138  1  0.55280704  0.60936340  0.04565750  1
  Te  Te139  1  0.57751778  0.59754240  0.42290623  1
  Te  Te140  1  0.53928853  0.60378696  0.78617389  1
  Te  Te141  1  0.59134347  0.89249509  0.07019216  1
  Te  Te142  1  0.59152933  0.90521707  0.39936342  1
  Te  Te143  1  0.63528318  0.92374861  0.78445587  1
  Te  Te144  1  0.91489138  0.23209823  0.07348943  1
  Te  Te145  1  0.91130458  0.23866518  0.41999510  1
  Te  Te146  1  0.91376957  0.26477541  0.75309022  1
  Te  Te147  1  0.91380708  0.57522699  0.08109707  1
  Te  Te148  1  0.90223022  0.57733905  0.42782452  1
  Te  Te149  1  0.92026477  0.62902711  0.76833852  1
  Te  Te150  1  0.91155300  0.89536236  0.07568440  1
  Te  Te151  1  0.92073742  0.91499507  0.40512844  1
  Te  Te152  1  0.91670610  0.89322356  0.76129799  1
  Te  Te153  1  0.24580669  0.09354622  0.24519185  1
  Te  Te154  1  0.23544516  0.06012211  0.56075936  1
  Te  Te155  1  0.25207082  0.08639905  0.91220643  1
  Te  Te156  1  0.26612423  0.44882081  0.28718443  1
  Te  Te157  1  0.25335149  0.43899733  0.58788007  1
  Te  Te158  1  0.27393389  0.47112103  0.88746348  1
  Te  Te159  1  0.26895117  0.74649744  0.23631179  1
  Te  Te160  1  0.26949819  0.74489468  0.59460424  1
  Te  Te161  1  0.24424540  0.72710036  0.89891140  1
  Te  Te162  1  0.58042761  0.06456058  0.24784043  1
  Te  Te163  1  0.57155957  0.06321198  0.57495854  1
  Te  Te164  1  0.57050828  0.08199117  0.92392504  1
  Te  Te165  1  0.59929342  0.42489290  0.23996456  1
  Te  Te166  1  0.56948354  0.43812495  0.60602468  1
  Te  Te167  1  0.56666367  0.45551759  0.88177747  1
  Te  Te168  1  0.53071659  0.75662608  0.22813925  1
  Te  Te169  1  0.58500231  0.74313101  0.61632675  1
  Te  Te170  1  0.59012207  0.71026370  0.88419321  1
  Te  Te171  1  0.93086806  0.06723051  0.25584279  1
  Te  Te172  1  0.90461055  0.09364126  0.59239733  1
  Te  Te173  1  0.92198341  0.03131015  0.93483725  1
  Te  Te174  1  0.91156127  0.42958409  0.26272767  1
  Te  Te175  1  0.89619678  0.44865195  0.61296847  1
  Te  Te176  1  0.92091456  0.41055563  0.92481622  1
  Te  Te177  1  0.91595343  0.75158153  0.23227477  1
  Te  Te178  1  0.93785836  0.72115569  0.61736770  1
  Te  Te179  1  0.89607517  0.72467291  0.89374450  1
