# generated using pymatgen
data_In2Te3
_symmetry_space_group_name_H-M   'P 1'
_cell_length_a   18.78191569
_cell_length_b   18.78619903
_cell_length_c   18.79101480
_cell_angle_alpha   90.12207000
_cell_angle_beta   90.01144632
_cell_angle_gamma   89.89156180
_symmetry_Int_Tables_number   1
_chemical_formula_structural   In2Te3
_chemical_formula_sum   'In72 Te108'
_cell_volume   6630.20976204
_cell_formula_units_Z   36
loop_
 _symmetry_equiv_pos_site_id
 _symmetry_equiv_pos_as_xyz
  1  'x, y, z'
loop_
 _atom_site_type_symbol
 _atom_site_label
 _atom_site_symmetry_multiplicity
 _atom_site_fract_x
 _atom_site_fract_y
 _atom_site_fract_z
 _atom_site_occupancy
  In  In0  1  0.30193086  0.50359598  0.80837129  1
  In  In1  1  0.50100193  0.17302029  0.33415515  1
  In  In2  1  0.30773187  0.68752067  -0.01698425  1
  In  In3  1  -0.00136559  0.82218539  0.81400089  1
  In  In4  1  0.32523357  0.31283834  0.01131203  1
  In  In5  1  -0.00233340  0.00493686  -0.01649615  1
  In  In6  1  0.49787791  -0.00677346  0.15997926  1
  In  In7  1  0.46861101  0.70006454  0.79481635  1
  In  In8  1  0.67856277  0.85111900  0.84234124  1
  In  In9  1  0.33174649  -0.00478782  0.33399851  1
  In  In10  1  0.12062825  0.31389170  0.85500011  1
  In  In11  1  0.16947094  0.15926706  0.34952322  1
  In  In12  1  0.15676668  0.84223197  -0.00605925  1
  In  In13  1  0.32598512  0.84076854  0.16366256  1
  In  In14  1  -0.01191682  0.66091102  -0.01948958  1
  In  In15  1  0.67308295  0.47419728  0.17669912  1
  In  In16  1  0.32195126  0.81971191  0.51706897  1
  In  In17  1  0.13927611  -0.00004198  0.50795158  1
  In  In18  1  0.67256121  0.69175416  0.35317180  1
  In  In19  1  0.68808017  -0.01030481  0.66197239  1
  In  In20  1  0.18505742  0.49545715  0.32657627  1
  In  In21  1  0.81266742  0.67174867  0.82835211  1
  In  In22  1  0.13324617  0.45973373  0.01399778  1
  In  In23  1  0.66691084  0.33278561  0.00381255  1
  In  In24  1  0.66196049  0.15133540  0.81833565  1
  In  In25  1  0.52151934  0.16386904  -0.00765803  1
  In  In26  1  0.32010259  0.33168406  0.66388868  1
  In  In27  1  0.66663304  0.50431871  0.50359286  1
  In  In28  1  0.68404425  0.32249990  0.31975203  1
  In  In29  1  0.66418702  -0.00696160  0.35344547  1
  In  In30  1  0.66283596  0.68887967  0.67237684  1
  In  In31  1  0.84931457  0.29922212  0.15931670  1
  In  In32  1  0.67954481  0.53833726  0.82496588  1
  In  In33  1  -0.00877161  0.17055056  0.50414085  1
  In  In34  1  0.83205532  0.49952388  0.34308911  1
  In  In35  1  0.50452765  0.16049829  0.66856282  1
  In  In36  1  0.85079568  0.51020931  0.67663241  1
  In  In37  1  0.50488236  0.52163125  -0.01200209  1
  In  In38  1  0.69138988  0.67435889  -0.01211443  1
  In  In39  1  0.34425316  0.52268116  0.49209396  1
  In  In40  1  0.16526011  0.65957890  0.16866532  1
  In  In41  1  0.15946365  0.15549263  0.66037645  1
  In  In42  1  0.51272998  0.67592219  0.19256866  1
  In  In43  1  0.83677062  0.67764252  0.14766590  1
  In  In44  1  0.14911383  0.67873868  0.80057217  1
  In  In45  1  0.31586483  0.68079683  0.32541853  1
  In  In46  1  0.71322252  0.18705427  0.53041930  1
  In  In47  1  0.83725516  0.00973894  0.16447121  1
  In  In48  1  0.03517374  0.68633497  0.35342996  1
  In  In49  1  -0.02855682  0.53320995  0.52396148  1
  In  In50  1  -0.00818685  0.50382447  0.82688288  1
  In  In51  1  0.01179130  -0.00983057  0.67952950  1
  In  In52  1  0.50589032  0.31835000  0.80838262  1
  In  In53  1  0.83317411  0.83095629  0.34561940  1
  In  In54  1  0.00869584  0.87790888  0.19983172  1
  In  In55  1  0.14590602  0.52718707  0.66862071  1
  In  In56  1  0.85086822  -0.01476713  0.49128471  1
  In  In57  1  -0.00371777  0.14696152  0.16250600  1
  In  In58  1  0.50915875  0.33317266  0.16860121  1
  In  In59  1  0.50243990  0.68108071  0.51336454  1
  In  In60  1  0.29250251  0.12984001  0.86134197  1
  In  In61  1  0.15437659  0.32636944  0.48979346  1
  In  In62  1  0.85137182  0.15812935  0.00884949  1
  In  In63  1  -0.00678417  0.32187664  0.34265811  1
  In  In64  1  0.49042979  0.00368298  0.82570385  1
  In  In65  1  0.50086974  -0.01997815  0.49495989  1
  In  In66  1  0.49617605  0.83936487  -0.01088937  1
  In  In67  1  0.31931438  0.49654538  0.18764910  1
  In  In68  1  0.31376237  0.16087470  0.14988340  1
  In  In69  1  0.28602542  0.15535414  0.52157409  1
  In  In70  1  0.86250025  0.32331669  0.82477681  1
  In  In71  1  0.50344445  0.36115809  0.49604529  1
  Te  Te72  1  0.09570159  0.07218703  0.07650248  1
  Te  Te73  1  0.05592335  0.07321831  0.40327388  1
  Te  Te74  1  0.09102149  0.08096133  0.76801770  1
  Te  Te75  1  0.05555830  0.38300731  0.10925755  1
  Te  Te76  1  0.07068927  0.43413689  0.42177576  1
  Te  Te77  1  0.07708436  0.41113764  0.74158659  1
  Te  Te78  1  0.07567254  0.74627648  0.07874066  1
  Te  Te79  1  0.08749861  0.77905529  0.45471285  1
  Te  Te80  1  0.11042163  0.79438078  0.71154691  1
  Te  Te81  1  0.41583842  0.08164278  0.06674918  1
  Te  Te82  1  0.40748324  0.09128848  0.42626040  1
  Te  Te83  1  0.39447147  0.09296241  0.74718883  1
  Te  Te84  1  0.42474157  0.42198248  0.07380320  1
  Te  Te85  1  0.39965690  0.41550699  0.40687684  1
  Te  Te86  1  0.41651646  0.42236037  0.74080712  1
  Te  Te87  1  0.41632988  0.73422125  0.08627830  1
  Te  Te88  1  0.41506512  0.75804674  0.41078402  1
  Te  Te89  1  0.39288367  0.80373061  0.71681263  1
  Te  Te90  1  0.74470137  0.08051124  0.07237399  1
  Te  Te91  1  0.76079976  0.09061428  0.42244687  1
  Te  Te92  1  0.76680789  0.06341933  0.76287910  1
  Te  Te93  1  0.77244288  0.41023842  0.08155933  1
  Te  Te94  1  0.75560793  0.40227828  0.43005814  1
  Te  Te95  1  0.75704932  0.42564232  0.76234718  1
  Te  Te96  1  0.74832205  0.77830217  0.07896398  1
  Te  Te97  1  0.75964241  0.75866376  0.45425402  1
  Te  Te98  1  0.76815065  0.78323513  0.73384776  1
  Te  Te99  1  0.08403458  0.24015546  0.25183799  1
  Te  Te100  1  0.07012597  0.26261075  0.59894260  1
  Te  Te101  1  0.04222272  0.20701432  0.92028027  1
  Te  Te102  1  0.07318263  0.57389880  0.25357232  1
  Te  Te103  1  0.08346491  0.62683204  0.57137246  1
  Te  Te104  1  0.10721123  0.58080967  0.91262206  1
  Te  Te105  1  0.13403298  0.92641291  0.25345848  1
  Te  Te106  1  0.05806684  0.88588466  0.56762579  1
  Te  Te107  1  0.08723678  0.92509845  0.88712783  1
  Te  Te108  1  0.40550926  0.24772911  0.24050526  1
  Te  Te109  1  0.41233000  0.24455972  0.57743012  1
  Te  Te110  1  0.41870147  0.24024092  0.90594268  1
  Te  Te111  1  0.41748362  0.58122981  0.26689704  1
  Te  Te112  1  0.42779384  0.58328243  0.59641387  1
  Te  Te113  1  0.40292733  0.59041734  0.89717361  1
  Te  Te114  1  0.42753123  0.90168930  0.26071997  1
  Te  Te115  1  0.40786590  0.91970988  0.59353512  1
  Te  Te116  1  0.39578465  0.91986530  0.91255182  1
  Te  Te117  1  0.75734242  0.22077557  0.24232380  1
  Te  Te118  1  0.80797729  0.26557400  0.61386990  1
  Te  Te119  1  0.75057753  0.24351024  0.91270412  1
  Te  Te120  1  0.74603595  0.58968599  0.24959943  1
  Te  Te121  1  0.75257360  0.59399648  0.59070046  1
  Te  Te122  1  0.78197976  0.56425953  0.93528486  1
  Te  Te123  1  0.75056633  0.91634634  0.25176700  1
  Te  Te124  1  0.75155922  0.89798845  0.56116021  1
  Te  Te125  1  0.77421670  0.88358536  0.94808675  1
  Te  Te126  1  0.21455611  0.23599644  0.06824813  1
  Te  Te127  1  0.26641743  0.26105284  0.40996696  1
  Te  Te128  1  0.24064094  0.24770897  0.76342663  1
  Te  Te129  1  0.24967774  0.57148772  0.07395245  1
  Te  Te130  1  0.23290387  0.60341205  0.42616935  1
  Te  Te131  1  0.26912682  0.61924061  0.71015466  1
  Te  Te132  1  0.25925033  0.92888816  0.06286778  1
  Te  Te133  1  0.24180178  0.91624742  0.42664306  1
  Te  Te134  1  0.30045749  0.90368085  0.78758796  1
  Te  Te135  1  0.60347994  0.23431211  0.10127980  1
  Te  Te136  1  0.59550115  0.24682146  0.42986379  1
  Te  Te137  1  0.61280745  0.25740877  0.71832092  1
  Te  Te138  1  0.59995780  0.58544338  0.08897086  1
  Te  Te139  1  0.57761832  0.58886918  0.41400575  1
  Te  Te140  1  0.56661478  0.58992935  0.73982729  1
  Te  Te141  1  0.58902494  0.90860906  0.07856902  1
  Te  Te142  1  0.58841624  0.88581808  0.42230238  1
  Te  Te143  1  0.57999089  0.91307200  0.74234193  1
  Te  Te144  1  0.96830451  0.26730149  0.04957455  1
  Te  Te145  1  0.89446530  0.24733789  0.42229295  1
  Te  Te146  1  0.91351770  0.23279832  0.72130984  1
  Te  Te147  1  0.92956770  0.57899496  0.08793159  1
  Te  Te148  1  0.90736148  0.61259383  0.40811861  1
  Te  Te149  1  0.94240446  0.62754881  0.74902460  1
  Te  Te150  1  0.92338982  0.91304393  0.08025572  1
  Te  Te151  1  0.94758400  0.89472877  0.41813147  1
  Te  Te152  1  0.90214834  0.90897809  0.74061707  1
  Te  Te153  1  0.23246132  0.06539399  0.24062263  1
  Te  Te154  1  0.24642639  0.03748281  0.61063320  1
  Te  Te155  1  0.21861707  0.06090557  0.96845558  1
  Te  Te156  1  0.22701884  0.39123795  0.22952157  1
  Te  Te157  1  0.23536435  0.42757563  0.57949942  1
  Te  Te158  1  0.24660561  0.40643912  0.91158173  1
  Te  Te159  1  0.21791699  0.77723289  0.25560326  1
  Te  Te160  1  0.23818080  0.74160680  0.61138958  1
  Te  Te161  1  0.24643066  0.77555872  0.87671461  1
  Te  Te162  1  0.58711168  0.07958766  0.25122197  1
  Te  Te163  1  0.59391630  0.08081780  0.57273401  1
  Te  Te164  1  0.60047825  0.05477210  0.92103518  1
  Te  Te165  1  0.57193440  0.42032009  0.27686592  1
  Te  Te166  1  0.59153609  0.41808449  0.59805164  1
  Te  Te167  1  0.58321657  0.41741377  0.90575185  1
  Te  Te168  1  0.60361249  0.77458198  0.25068556  1
  Te  Te169  1  0.58277016  0.78038107  0.58796407  1
  Te  Te170  1  0.58011391  0.73534821  0.90010714  1
  Te  Te171  1  0.92363660  0.07301355  0.26718522  1
  Te  Te172  1  0.91569806  0.07621114  0.59646519  1
  Te  Te173  1  0.92327154  0.09812599  0.89062122  1
  Te  Te174  1  0.91127254  0.41149986  0.24763309  1
  Te  Te175  1  0.90855466  0.41035467  0.58323684  1
  Te  Te176  1  0.92375154  0.41568140  0.92258120  1
  Te  Te177  1  0.93367260  0.75281636  0.24542668  1
  Te  Te178  1  0.93598148  0.66763356  0.59788601  1
  Te  Te179  1  0.89736521  0.76873642  0.92155506  1
