# generated using pymatgen
data_In2Te3
_symmetry_space_group_name_H-M   'P 1'
_cell_length_a   19.00948255
_cell_length_b   19.04628195
_cell_length_c   19.05347187
_cell_angle_alpha   90.04870863
_cell_angle_beta   89.93649816
_cell_angle_gamma   89.94944663
_symmetry_Int_Tables_number   1
_chemical_formula_structural   In2Te3
_chemical_formula_sum   'In72 Te108'
_cell_volume   6898.48992551
_cell_formula_units_Z   36
loop_
 _symmetry_equiv_pos_site_id
 _symmetry_equiv_pos_as_xyz
  1  'x, y, z'
loop_
 _atom_site_type_symbol
 _atom_site_label
 _atom_site_symmetry_multiplicity
 _atom_site_fract_x
 _atom_site_fract_y
 _atom_site_fract_z
 _atom_site_occupancy
  In  In0  1  0.13731517  0.49208725  0.27126482  1
  In  In1  1  0.33747119  0.16272285  0.14092825  1
  In  In2  1  0.64997909  0.68395967  0.65868978  1
  In  In3  1  0.66380607  0.16735245  0.48376658  1
  In  In4  1  0.00656339  0.02237718  0.32500264  1
  In  In5  1  0.83280442  0.32546252  0.49586235  1
  In  In6  1  0.00150270  0.17915156  0.52022244  1
  In  In7  1  0.83636694  0.65804114  0.83802198  1
  In  In8  1  0.67041390  0.68325102  0.00693849  1
  In  In9  1  0.31981671  0.47698191  0.83419277  1
  In  In10  1  0.84928932  0.50238520  0.02023359  1
  In  In11  1  0.01967888  0.02200354  -0.02097043  1
  In  In12  1  0.69119193  0.65914565  0.31679226  1
  In  In13  1  0.64819201  0.31403339  -0.01417202  1
  In  In14  1  0.84186654  0.50978846  0.67914599  1
  In  In15  1  0.51096613  0.00324985  0.15861010  1
  In  In16  1  0.16374960  0.48900197  0.66922328  1
  In  In17  1  0.15930091  0.68312097  0.51470640  1
  In  In18  1  0.78048409  -0.00046108  0.48734215  1
  In  In19  1  0.00188102  0.17607196  0.14597065  1
  In  In20  1  0.49030728  0.82731006  -0.00617928  1
  In  In21  1  0.66515327  0.50782757  0.80037570  1
  In  In22  1  0.33332223  0.26238545  0.76322901  1
  In  In23  1  -0.01689968  0.36053455  0.30561283  1
  In  In24  1  0.49136626  0.33456049  0.15894927  1
  In  In25  1  0.52571808  -0.00766774  0.48269472  1
  In  In26  1  0.17641576  0.85042978  0.00396623  1
  In  In27  1  0.84603464  0.33844677  0.84784037  1
  In  In28  1  0.85426180  0.17772430  0.01970929  1
  In  In29  1  0.63605969  0.46873849  0.53922385  1
  In  In30  1  0.67559174  0.31837918  0.33497315  1
  In  In31  1  0.00333774  0.64283196  0.02643996  1
  In  In32  1  0.17937235  0.33101034  0.50440083  1
  In  In33  1  0.50133274  0.17694421  0.32986738  1
  In  In34  1  0.82160949  0.82701623  -0.00581274  1
  In  In35  1  0.67968938  -0.01565046  0.67014099  1
  In  In36  1  0.32168196  0.67503372  0.33535104  1
  In  In37  1  0.50509746  0.18516103  0.68057329  1
  In  In38  1  0.67443879  0.50103669  0.13905009  1
  In  In39  1  0.16247892  -0.00763825  0.83060084  1
  In  In40  1  0.66949825  0.83441218  0.84056032  1
  In  In41  1  0.33904814  0.51965186  0.48244047  1
  In  In42  1  0.49258226  0.52275014  0.00739335  1
  In  In43  1  0.82418345  -0.01515187  0.16692364  1
  In  In44  1  0.16765614  0.83918190  0.67265143  1
  In  In45  1  0.16356153  0.19112975  0.34732419  1
  In  In46  1  -0.01585026  0.81707839  0.15624207  1
  In  In47  1  0.02601218  0.32715741  0.65948185  1
  In  In48  1  0.33461109  0.64209718  0.67590108  1
  In  In49  1  0.33202614  0.88248590  0.50717020  1
  In  In50  1  -0.01546583  -0.07398186  0.71205694  1
  In  In51  1  0.82834487  0.15856189  0.65276665  1
  In  In52  1  0.50073166  0.49785110  0.34323168  1
  In  In53  1  0.33613923  0.49380080  0.16767745  1
  In  In54  1  0.16019480  0.47426391  0.01515458  1
  In  In55  1  -0.01956895  0.83420758  0.50962492  1
  In  In56  1  0.84662526  0.66392901  0.50007023  1
  In  In57  1  0.36217130  0.01264863  0.31532657  1
  In  In58  1  0.50039779  0.68282520  0.47778638  1
  In  In59  1  0.49885648  0.83881155  0.66513991  1
  In  In60  1  0.66902872  0.81898054  0.17336082  1
  In  In61  1  0.33877620  0.83524962  0.84396227  1
  In  In62  1  0.32210131  0.66682543  -0.00384213  1
  In  In63  1  0.01127006  0.51227358  0.49141652  1
  In  In64  1  0.62368423  0.03007678  -0.02897535  1
  In  In65  1  0.15965787  0.19115235  -0.00129748  1
  In  In66  1  0.16233562  0.81581717  0.34795831  1
  In  In67  1  0.67442880  0.18598258  0.16214442  1
  In  In68  1  0.84036878  0.82173573  0.31418590  1
  In  In69  1  0.04684690  0.17400687  0.81966462  1
  In  In70  1  0.19647208  -0.03055428  0.17512736  1
  In  In71  1  0.49747456  0.33673099  0.82824789  1
  Te  Te72  1  0.10370375  0.07063011  0.09413404  1
  Te  Te73  1  0.08876827  0.08928421  0.42988648  1
  Te  Te74  1  0.06634007  0.04968421  0.72888249  1
  Te  Te75  1  0.05880326  0.40657444  0.10099307  1
  Te  Te76  1  0.09002136  0.41194803  0.40987152  1
  Te  Te77  1  0.09373816  0.40276617  0.76225986  1
  Te  Te78  1  0.09800354  0.74981643  0.08524159  1
  Te  Te79  1  0.05557675  0.73684652  0.41884217  1
  Te  Te80  1  0.03968646  0.78951294  0.72680296  1
  Te  Te81  1  0.41628998  0.06548271  0.06469188  1
  Te  Te82  1  0.42492122  0.09112952  0.42818132  1
  Te  Te83  1  0.43275058  0.11156183  0.79218520  1
  Te  Te84  1  0.40727340  0.41082908  0.06041016  1
  Te  Te85  1  0.41796472  0.41080730  0.42412729  1
  Te  Te86  1  0.42208792  0.42663660  0.73217994  1
  Te  Te87  1  0.41277201  0.74195921  0.08211626  1
  Te  Te88  1  0.40089733  0.77521033  0.41638258  1
  Te  Te89  1  0.41843275  0.74523345  0.75079289  1
  Te  Te90  1  0.74614825  0.07961077  0.07697281  1
  Te  Te91  1  0.76996727  0.11640252  0.39872589  1
  Te  Te92  1  0.76244616  0.07443114  0.75588871  1
  Te  Te93  1  0.75060892  0.39484741  0.06540420  1
  Te  Te94  1  0.73426623  0.41926682  0.43106252  1
  Te  Te95  1  0.75509052  0.40301732  0.74252791  1
  Te  Te96  1  0.77478697  0.73418501  0.10346946  1
  Te  Te97  1  0.75562605  0.75199960  0.41822999  1
  Te  Te98  1  0.75376605  0.74822255  0.74976241  1
  Te  Te99  1  0.08223898  0.26202114  0.24211440  1
  Te  Te100  1  0.12141773  0.22691288  0.59911752  1
  Te  Te101  1  0.05053383  0.26570749  0.93457689  1
  Te  Te102  1  0.04723858  0.59906661  0.23963831  1
  Te  Te103  1  0.07519162  0.59265100  0.60147752  1
  Te  Te104  1  0.08875613  0.57318746  0.93250269  1
  Te  Te105  1  0.07078239  0.90953502  0.24559061  1
  Te  Te106  1  0.10441961  0.91092803  0.55432784  1
  Te  Te107  1  0.07058657  0.90027965  0.90708392  1
  Te  Te108  1  0.40171079  0.25418892  0.24836667  1
  Te  Te109  1  0.37698429  0.23219429  0.62685515  1
  Te  Te110  1  0.40490669  0.23881926  0.89187663  1
  Te  Te111  1  0.41759604  0.58695879  0.25536207  1
  Te  Te112  1  0.43582945  0.58873216  0.57605885  1
  Te  Te113  1  0.40692647  0.58384094  0.90144718  1
  Te  Te114  1  0.44248720  0.91161886  0.24880595  1
  Te  Te115  1  0.43309253  0.95540994  0.59722913  1
  Te  Te116  1  0.42672670  0.93017409  0.91156724  1
  Te  Te117  1  0.77119106  0.26327869  0.23936532  1
  Te  Te118  1  0.73387626  0.25597781  0.58597129  1
  Te  Te119  1  0.75743208  0.23610454  0.91636834  1
  Te  Te120  1  0.76961630  0.55621615  0.23973264  1
  Te  Te121  1  0.73991749  0.57701596  0.58909198  1
  Te  Te122  1  0.74149528  0.57582029  0.92520631  1
  Te  Te123  1  0.73082672  0.92303904  0.26560392  1
  Te  Te124  1  0.76228398  0.89648730  0.58838250  1
  Te  Te125  1  0.75567748  0.93390513  0.91370122  1
  Te  Te126  1  0.25520401  0.26641854  0.07834398  1
  Te  Te127  1  0.27010092  0.24183489  0.43186763  1
  Te  Te128  1  0.20044628  0.20462981  0.80007773  1
  Te  Te129  1  0.24126786  0.58119547  0.09071147  1
  Te  Te130  1  0.22324174  0.58912784  0.41352795  1
  Te  Te131  1  0.23078348  0.58494368  0.76583863  1
  Te  Te132  1  0.28323932  0.93058272  0.06513624  1
  Te  Te133  1  0.24897412  0.93355134  0.38679587  1
  Te  Te134  1  0.26806875  0.92659979  0.74540606  1
  Te  Te135  1  0.55876101  0.23004451  0.07325744  1
  Te  Te136  1  0.56656495  0.26972884  0.42974962  1
  Te  Te137  1  0.60426022  0.24755152  0.77334384  1
  Te  Te138  1  0.57571526  0.60837370  0.09936207  1
  Te  Te139  1  0.59955600  0.58030363  0.42361691  1
  Te  Te140  1  0.56717237  0.59495358  0.73928998  1
  Te  Te141  1  0.60480525  0.90733640  0.06929482  1
  Te  Te142  1  0.65062122  0.95409211  0.41716207  1
  Te  Te143  1  0.57617291  0.92422588  0.76343681  1
  Te  Te144  1  0.94144458  0.28952593  0.06966972  1
  Te  Te145  1  0.93316416  0.25539483  0.40938171  1
  Te  Te146  1  0.92045985  0.25000847  0.73834958  1
  Te  Te147  1  0.96469757  0.52321832  0.12728134  1
  Te  Te148  1  0.90297259  0.56460287  0.41021794  1
  Te  Te149  1  0.93610915  0.57339324  0.77017766  1
  Te  Te150  1  0.92299925  0.92905238  0.06685565  1
  Te  Te151  1  0.91907194  0.92046158  0.39799871  1
  Te  Te152  1  0.85891008  0.94328840  0.78135506  1
  Te  Te153  1  0.24349463  0.09315999  0.24990279  1
  Te  Te154  1  0.23620967  -0.01181474  0.55013717  1
  Te  Te155  1  0.23683558  0.09785946  0.90703608  1
  Te  Te156  1  0.25761881  0.41302564  0.26056590  1
  Te  Te157  1  0.26735041  0.42633350  0.58198222  1
  Te  Te158  1  0.24969074  0.39211156  0.92959527  1
  Te  Te159  1  0.24036952  0.75334627  0.24243699  1
  Te  Te160  1  0.27094473  0.75146828  0.58970036  1
  Te  Te161  1  0.23208985  0.74931190  0.90548080  1
  Te  Te162  1  0.59429815  0.09153342  0.24953887  1
  Te  Te163  1  0.59130353  0.08741598  0.59131055  1
  Te  Te164  1  0.56461328  0.12380741  0.87152557  1
  Te  Te165  1  0.59074665  0.41488381  0.24008242  1
  Te  Te166  1  0.54354754  0.41360097  0.63561451  1
  Te  Te167  1  0.58421410  0.43633542  0.91937671  1
  Te  Te168  1  0.58464562  0.74468815  0.26624084  1
  Te  Te169  1  0.58629206  0.77797495  0.55802946  1
  Te  Te170  1  0.57485290  0.73585651  0.90452806  1
  Te  Te171  1  0.90939630  0.09163712  0.23318057  1
  Te  Te172  1  0.90985494  0.07108278  0.56550862  1
  Te  Te173  1  0.92665675  0.10888659  0.90570915  1
  Te  Te174  1  0.87185519  0.43768895  0.25125803  1
  Te  Te175  1  0.92386595  0.41398444  0.58212010  1
  Te  Te176  1  0.92297073  0.45128055  0.90323209  1
  Te  Te177  1  0.92554267  0.71853277  0.24938747  1
  Te  Te178  1  0.91779317  0.73951193  0.60404639  1
  Te  Te179  1  0.92447092  0.73795867  0.93119619  1
