# generated using pymatgen
data_In2Te3
_symmetry_space_group_name_H-M   'P 1'
_cell_length_a   18.93344927
_cell_length_b   18.93825346
_cell_length_c   18.95732749
_cell_angle_alpha   90.20470397
_cell_angle_beta   89.98939276
_cell_angle_gamma   89.92887596
_symmetry_Int_Tables_number   1
_chemical_formula_structural   In2Te3
_chemical_formula_sum   'In72 Te108'
_cell_volume   6797.41308881
_cell_formula_units_Z   36
loop_
 _symmetry_equiv_pos_site_id
 _symmetry_equiv_pos_as_xyz
  1  'x, y, z'
loop_
 _atom_site_type_symbol
 _atom_site_label
 _atom_site_symmetry_multiplicity
 _atom_site_fract_x
 _atom_site_fract_y
 _atom_site_fract_z
 _atom_site_occupancy
  In  In0  1  0.61927082  -0.02424708  0.71063577  1
  In  In1  1  0.01984524  0.66898571  0.36971976  1
  In  In2  1  0.32801164  0.17318138  0.82054065  1
  In  In3  1  0.16638892  0.47489657  0.34363428  1
  In  In4  1  0.51063615  0.32831856  0.15023042  1
  In  In5  1  0.84857708  0.33318913  0.17455925  1
  In  In6  1  0.16217894  0.83499589  0.01888185  1
  In  In7  1  0.84760361  0.51922168  0.30926814  1
  In  In8  1  0.80979063  0.51286062  -0.01370294  1
  In  In9  1  0.33955618  0.83290025  0.13949830  1
  In  In10  1  0.51326098  0.85329466  0.31321434  1
  In  In11  1  0.03867018  0.20727156  0.19140199  1
  In  In12  1  -0.02902791  0.68463363  -0.00902713  1
  In  In13  1  0.18134008  -0.01664118  0.80786600  1
  In  In14  1  0.30976417  0.67169625  0.36201582  1
  In  In15  1  0.31979670  0.15175790  0.17432349  1
  In  In16  1  0.84207281  -0.00886438  0.16469734  1
  In  In17  1  0.17702758  0.17773090  0.00452428  1
  In  In18  1  0.47653061  0.67027748  0.15824508  1
  In  In19  1  0.85298748  0.14984192  -0.01400377  1
  In  In20  1  0.84762570  0.13944941  0.35254423  1
  In  In21  1  0.80109534  0.14576986  0.66660578  1
  In  In22  1  0.81580989  -0.00769970  0.50665856  1
  In  In23  1  0.64147841  0.79958620  0.54526635  1
  In  In24  1  0.01725214  0.31871565  0.68422642  1
  In  In25  1  0.82704115  0.32304374  0.85314784  1
  In  In26  1  0.67655846  0.17232456  0.16234147  1
  In  In27  1  0.67477430  0.32567576  0.00618603  1
  In  In28  1  0.03163576  0.16229280  0.51080868  1
  In  In29  1  0.03031366  0.66901311  0.64404508  1
  In  In30  1  0.31846829  0.17471787  0.49429739  1
  In  In31  1  0.86336980  0.70097518  0.14849587  1
  In  In32  1  0.66614187  0.49066451  0.52718958  1
  In  In33  1  0.34963151  0.49104619  0.17861411  1
  In  In34  1  0.02042232  0.14259685  0.81661256  1
  In  In35  1  0.48849927  0.16104472  0.66066693  1
  In  In36  1  0.01414883  -0.00051781  0.35141912  1
  In  In37  1  0.66423625  0.53360707  0.18446242  1
  In  In38  1  0.17632412  0.49801051  0.00421731  1
  In  In39  1  0.34245132  0.82154251  0.51194738  1
  In  In40  1  0.47987724  0.69187204  0.78964128  1
  In  In41  1  0.37119550  -0.01867019  -0.02683409  1
  In  In42  1  0.51475456  0.19438604  0.33123499  1
  In  In43  1  0.31521838  -0.01158010  0.31052611  1
  In  In44  1  0.68949361  -0.00201253  0.32613283  1
  In  In45  1  0.80647715  0.84559249  0.72172306  1
  In  In46  1  0.47368643  0.45810275  0.35353863  1
  In  In47  1  0.17420637  0.31764756  0.84025609  1
  In  In48  1  0.32123854  0.50733059  0.84019285  1
  In  In49  1  0.03018175  0.49851049  0.17739045  1
  In  In50  1  0.84361666  0.68687068  0.50562378  1
  In  In51  1  0.49082411  0.01631576  0.49704515  1
  In  In52  1  0.15617542  0.82744041  0.33552925  1
  In  In53  1  0.66123594  0.65003551  -0.02408089  1
  In  In54  1  0.64490345  0.34755941  0.68891658  1
  In  In55  1  0.65948660  0.88166892  0.09514097  1
  In  In56  1  0.84857892  0.51554833  0.65828246  1
  In  In57  1  0.19920858  0.49412782  0.63148328  1
  In  In58  1  -0.00315282  0.83215182  0.15866664  1
  In  In59  1  0.63274722  0.67876420  0.35598838  1
  In  In60  1  0.33825603  -0.01271002  0.66714054  1
  In  In61  1  -0.01904575  0.49618684  0.83878613  1
  In  In62  1  0.84349747  0.33239189  0.51812139  1
  In  In63  1  0.34363174  0.65529226  -0.01224988  1
  In  In64  1  0.01306334  0.01550575  -0.00747724  1
  In  In65  1  0.66479338  0.33245421  0.36388112  1
  In  In66  1  0.48834967  0.32727876  0.83450941  1
  In  In67  1  0.01089321  0.87892492  0.52925669  1
  In  In68  1  0.80222232  0.84355069  -0.06284270  1
  In  In69  1  0.14984782  0.69605116  0.82771256  1
  In  In70  1  0.44320463  0.51134771  0.66672676  1
  In  In71  1  0.66240173  0.52388603  0.83558444  1
  Te  Te72  1  0.08808163  0.09364169  0.09630030  1
  Te  Te73  1  0.11138296  0.09747467  0.40199361  1
  Te  Te74  1  0.08326879  0.05230759  0.71500449  1
  Te  Te75  1  0.09629066  0.40537865  0.08628527  1
  Te  Te76  1  0.11557912  0.36310555  0.43215455  1
  Te  Te77  1  0.09283076  0.42545782  0.76432993  1
  Te  Te78  1  0.08114794  0.72667763  0.08836989  1
  Te  Te79  1  0.09413271  0.76510499  0.45869743  1
  Te  Te80  1  0.09821843  0.77685840  0.71753504  1
  Te  Te81  1  0.40995407  0.08675630  0.07134138  1
  Te  Te82  1  0.41026169  0.08973523  0.39242888  1
  Te  Te83  1  0.42489003  0.06857845  0.76423751  1
  Te  Te84  1  0.43055582  0.42444410  0.07553565  1
  Te  Te85  1  0.35820922  0.39066105  0.41859388  1
  Te  Te86  1  0.38384983  0.39993202  0.75203650  1
  Te  Te87  1  0.43717657  0.76427227  0.04575322  1
  Te  Te88  1  0.42862167  0.76146371  0.39969628  1
  Te  Te89  1  0.35234198  0.73655686  0.72587898  1
  Te  Te90  1  0.75341885  0.07467355  0.07452995  1
  Te  Te91  1  0.72930150  0.09987407  0.43437276  1
  Te  Te92  1  0.73023408  0.06070006  0.76653432  1
  Te  Te93  1  0.74908472  0.42550736  0.10251460  1
  Te  Te94  1  0.76845945  0.43131482  0.41721442  1
  Te  Te95  1  0.76670730  0.42594678  0.75276458  1
  Te  Te96  1  0.75126240  0.74985438  0.05842141  1
  Te  Te97  1  0.73524457  0.76514651  0.43050603  1
  Te  Te98  1  0.70836781  0.75919303  0.78706590  1
  Te  Te99  1  0.11001005  0.28465499  0.29577447  1
  Te  Te100  1  0.11621023  0.25250243  0.59553885  1
  Te  Te101  1  0.06606015  0.24371711  0.91749886  1
  Te  Te102  1  0.10258646  0.59690375  0.26581346  1
  Te  Te103  1  0.08738882  0.55982333  0.56286838  1
  Te  Te104  1  0.07737477  0.58597018  0.92420595  1
  Te  Te105  1  0.08751864  0.92276340  0.23995704  1
  Te  Te106  1  0.11419590  0.96827010  0.58502066  1
  Te  Te107  1  0.09069575  0.91414253  0.91164151  1
  Te  Te108  1  0.41328260  0.25896772  0.24229761  1
  Te  Te109  1  0.39175574  0.25131284  0.59763694  1
  Te  Te110  1  0.40936852  0.24025228  0.92198792  1
  Te  Te111  1  0.42264177  0.58770643  0.27499603  1
  Te  Te112  1  0.40767078  0.62197252  0.57363398  1
  Te  Te113  1  0.43901969  0.58286268  0.89624849  1
  Te  Te114  1  0.42394634  0.93198981  0.22136888  1
  Te  Te115  1  0.44244499  0.90602385  0.58758764  1
  Te  Te116  1  0.44882645  0.92059904  0.85724120  1
  Te  Te117  1  0.76036862  0.24922197  0.26747520  1
  Te  Te118  1  0.73356704  0.26302921  0.59336354  1
  Te  Te119  1  0.73628317  0.21965664  0.91501157  1
  Te  Te120  1  0.75309671  0.62825321  0.26444111  1
  Te  Te121  1  0.74540084  0.60410389  0.59157856  1
  Te  Te122  1  0.77967755  0.61234787  0.87967458  1
  Te  Te123  1  0.74706894  0.89615778  0.23013426  1
  Te  Te124  1  0.73067151  0.91006100  0.60328234  1
  Te  Te125  1  0.71622901  0.95704174  0.89890356  1
  Te  Te126  1  0.24833835  0.25963444  0.10278209  1
  Te  Te127  1  0.24579850  0.27750937  0.41037267  1
  Te  Te128  1  0.22588049  0.23215568  0.73073904  1
  Te  Te129  1  0.26073035  0.58827802  0.09240860  1
  Te  Te130  1  0.25278945  0.55686408  0.43397344  1
  Te  Te131  1  0.22491559  0.58271451  0.75368861  1
  Te  Te132  1  0.25478719  0.93928769  0.07567214  1
  Te  Te133  1  0.25318042  0.90770999  0.42086838  1
  Te  Te134  1  0.27107967  0.87930328  0.74673206  1
  Te  Te135  1  0.57652219  0.22318527  0.06058501  1
  Te  Te136  1  0.56031106  0.27358535  0.44608622  1
  Te  Te137  1  0.58246755  0.23187004  0.76177553  1
  Te  Te138  1  0.57077387  0.57759099  0.07549407  1
  Te  Te139  1  0.57882826  0.55351756  0.41905586  1
  Te  Te140  1  0.56974729  0.57867573  0.73164564  1
  Te  Te141  1  0.54227352  0.97151591  0.06556091  1
  Te  Te142  1  0.59165727  0.92538250  0.42044746  1
  Te  Te143  1  0.54752345  0.85029530  0.75568755  1
  Te  Te144  1  0.92652361  0.23792379  0.08835575  1
  Te  Te145  1  0.92693391  0.24330056  0.42751198  1
  Te  Te146  1  0.90136214  0.24021787  0.74806064  1
  Te  Te147  1  0.91237859  0.56875469  0.09239050  1
  Te  Te148  1  0.91886879  0.57540510  0.43206587  1
  Te  Te149  1  0.93345168  0.60553987  0.74585761  1
  Te  Te150  1  0.91423750  0.91271241  0.05654825  1
  Te  Te151  1  0.90831746  0.91335578  0.41567131  1
  Te  Te152  1  0.90938323  0.93139121  0.77609000  1
  Te  Te153  1  0.22091101  0.09482064  0.27110666  1
  Te  Te154  1  0.25369433  0.05962522  0.56718045  1
  Te  Te155  1  0.24568243  0.07431333  0.91263965  1
  Te  Te156  1  0.23705995  0.41018098  0.22915618  1
  Te  Te157  1  0.30468102  0.41572151  0.56359655  1
  Te  Te158  1  0.26567195  0.39872649  0.93074100  1
  Te  Te159  1  0.25933937  0.75801721  0.24551425  1
  Te  Te160  1  0.27846500  0.71265827  0.59058151  1
  Te  Te161  1  0.25239691  0.75768063  0.92254122  1
  Te  Te162  1  0.59004772  0.08590331  0.25155390  1
  Te  Te163  1  0.59302649  0.07371891  0.59360416  1
  Te  Te164  1  0.57038691  0.00647426  0.92311348  1
  Te  Te165  1  0.59698602  0.41176009  0.24782066  1
  Te  Te166  1  0.55105945  0.42081694  0.59577073  1
  Te  Te167  1  0.59310745  0.41203903  0.91276168  1
  Te  Te168  1  0.58601704  0.75087023  0.22724980  1
  Te  Te169  1  0.54366445  0.69732492  0.57995716  1
  Te  Te170  1  0.58927625  0.75178939  0.89091526  1
  Te  Te171  1  0.93305655  0.08723512  0.23939856  1
  Te  Te172  1  0.90944042  0.08761070  0.57693150  1
  Te  Te173  1  0.91034889  0.05254035  0.87763144  1
  Te  Te174  1  0.94138092  0.40812426  0.26796115  1
  Te  Te175  1  0.94369384  0.41747624  0.59231817  1
  Te  Te176  1  0.91400490  0.40818209  0.94349407  1
  Te  Te177  1  0.93365461  0.75295236  0.27295464  1
  Te  Te178  1  0.91607243  0.77882651  0.60017527  1
  Te  Te179  1  0.92961392  0.78369224  0.89010128  1
