# generated using pymatgen
data_In2Te3
_symmetry_space_group_name_H-M   'P 1'
_cell_length_a   18.90506310
_cell_length_b   18.93763798
_cell_length_c   18.94148031
_cell_angle_alpha   90.00677614
_cell_angle_beta   90.16629520
_cell_angle_gamma   89.96063863
_symmetry_Int_Tables_number   1
_chemical_formula_structural   In2Te3
_chemical_formula_sum   'In72 Te108'
_cell_volume   6781.34631288
_cell_formula_units_Z   36
loop_
 _symmetry_equiv_pos_site_id
 _symmetry_equiv_pos_as_xyz
  1  'x, y, z'
loop_
 _atom_site_type_symbol
 _atom_site_label
 _atom_site_symmetry_multiplicity
 _atom_site_fract_x
 _atom_site_fract_y
 _atom_site_fract_z
 _atom_site_occupancy
  In  In0  1  0.81601736  0.82111728  0.67049514  1
  In  In1  1  0.66473207  0.33463293  0.66750171  1
  In  In2  1  0.82244864  0.63009677  0.48875099  1
  In  In3  1  0.33846305  0.83755424  0.50012432  1
  In  In4  1  0.86568725  0.17601323  0.66853840  1
  In  In5  1  0.68708619  0.47086646  0.16749870  1
  In  In6  1  0.32546342  0.49837367  0.82760511  1
  In  In7  1  0.88262242  0.49436246  -0.03489017  1
  In  In8  1  0.32415322  0.00554472  0.66407927  1
  In  In9  1  0.21511989  0.66529442  0.49426807  1
  In  In10  1  0.33302695  0.34781174  0.35993223  1
  In  In11  1  0.00182936  0.33372901  0.32835953  1
  In  In12  1  0.34827182  0.15992976  0.15429104  1
  In  In13  1  0.48419567  0.00076704  0.49711803  1
  In  In14  1  0.25360912  0.55074870  0.19226040  1
  In  In15  1  0.69173736  0.64988491  -0.00353612  1
  In  In16  1  0.65375745  0.29568703  0.34142232  1
  In  In17  1  0.64841321  0.31438198  -0.01753219  1
  In  In18  1  0.17476631  0.18164145  0.32927845  1
  In  In19  1  0.16017167  0.34838079  0.13620272  1
  In  In20  1  0.31351701  0.15579455  0.84215036  1
  In  In21  1  0.66854548  0.83379289  0.84828451  1
  In  In22  1  0.50288570  0.32661036  0.14631982  1
  In  In23  1  0.85277473  0.32648504  0.14584290  1
  In  In24  1  0.63114219  0.52987278  0.58054340  1
  In  In25  1  0.50791132  0.13504555  -0.00181491  1
  In  In26  1  0.16657875  0.83968503  0.33304819  1
  In  In27  1  0.00011840  0.49981057  0.50771090  1
  In  In28  1  0.02232197  0.83720705  0.85655297  1
  In  In29  1  0.14575396  0.65569177  0.84687650  1
  In  In30  1  0.01468459  0.66582028  0.66272295  1
  In  In31  1  0.48479023  0.00046590  0.83506836  1
  In  In32  1  0.15730009  -0.00886556  0.18395578  1
  In  In33  1  0.82892376  -0.00611894  0.83048646  1
  In  In34  1  0.32834532  0.33575797  -0.01028669  1
  In  In35  1  0.00776888  0.01768408  0.67543771  1
  In  In36  1  0.83315752  0.49791724  0.35488100  1
  In  In37  1  0.05280051  0.56514727  0.15578169  1
  In  In38  1  0.32704254  0.82858619  0.17360576  1
  In  In39  1  0.14783572  0.35386793  0.82554941  1
  In  In40  1  -0.00709962  0.84292083  0.49240779  1
  In  In41  1  0.65950866  0.00047825  0.66082942  1
  In  In42  1  0.50214276  0.33191005  0.80978463  1
  In  In43  1  0.68085819  -0.00695777  0.00239707  1
  In  In44  1  0.82471565  0.15805983  0.34593591  1
  In  In45  1  0.64051446  0.67536901  0.33753098  1
  In  In46  1  0.02060720  -0.01830361  0.00065062  1
  In  In47  1  0.48797068  0.14303710  0.33842901  1
  In  In48  1  0.01870943  0.17195065  0.50614690  1
  In  In49  1  0.84407680  0.83366960  0.32795860  1
  In  In50  1  0.02301425  0.17765425  0.82311305  1
  In  In51  1  0.47877528  0.50278897  -0.01667684  1
  In  In52  1  0.85069617  -0.02421385  0.16059037  1
  In  In53  1  0.85333548  0.67716239  0.19033010  1
  In  In54  1  0.63862008  0.84415129  0.51280648  1
  In  In55  1  0.34014715  0.66563763  0.67530570  1
  In  In56  1  0.48456060  0.67979985  0.51497738  1
  In  In57  1  0.34134955  0.33680879  0.64638458  1
  In  In58  1  0.82846474  0.17639563  -0.02309249  1
  In  In59  1  0.48845119  -0.00280376  0.18285221  1
  In  In60  1  0.16439500  0.79032063  0.00936455  1
  In  In61  1  0.64129559  0.17182701  0.48831629  1
  In  In62  1  0.15777311  0.33977252  0.52788895  1
  In  In63  1  0.65573699  0.81368141  0.16480603  1
  In  In64  1  0.83012228  0.36253648  0.52569469  1
  In  In65  1  0.46762199  0.83792919  -0.02188491  1
  In  In66  1  0.49972209  0.66169322  0.16531826  1
  In  In67  1  0.51903170  0.63591813  0.81476288  1
  In  In68  1  0.16991628  0.01717833  0.51431746  1
  In  In69  1  0.47819212  0.50181939  0.34791045  1
  In  In70  1  0.86090382  0.67689154  0.83423485  1
  In  In71  1  -0.02628147  0.15313357  0.14284965  1
  Te  Te72  1  0.09423768  0.08644211  0.08146507  1
  Te  Te73  1  0.08447374  0.08387278  0.40216191  1
  Te  Te74  1  0.11559792  0.10539049  0.72952294  1
  Te  Te75  1  0.06791226  0.44277354  0.06878640  1
  Te  Te76  1  0.09069059  0.41863391  0.41335698  1
  Te  Te77  1  0.05582927  0.45741315  0.77121820  1
  Te  Te78  1  0.08786154  0.70705124  0.10521062  1
  Te  Te79  1  0.09841828  0.75100916  0.43629354  1
  Te  Te80  1  0.09482108  0.76373388  0.74553823  1
  Te  Te81  1  0.40394021  0.04956360  0.06648364  1
  Te  Te82  1  0.38851139  0.09300937  0.43203532  1
  Te  Te83  1  0.41600989  0.10223630  0.74567937  1
  Te  Te84  1  0.40225212  0.42577264  0.08908916  1
  Te  Te85  1  0.37324523  0.46203607  0.44874234  1
  Te  Te86  1  0.42517197  0.43623454  0.73379609  1
  Te  Te87  1  0.40472042  0.73967545  0.07529576  1
  Te  Te88  1  0.39771583  0.73595866  0.41200560  1
  Te  Te89  1  0.44183714  0.74178279  0.75135527  1
  Te  Te90  1  0.77028790  0.08454098  0.08302811  1
  Te  Te91  1  0.72139035  0.07681413  0.41005837  1
  Te  Te92  1  0.75870146  0.08753394  0.73723173  1
  Te  Te93  1  0.75950917  0.40579134  0.05238081  1
  Te  Te94  1  0.73147409  0.40573128  0.41715666  1
  Te  Te95  1  0.74161995  0.44946649  0.72046314  1
  Te  Te96  1  0.76612316  0.74792585  0.08515963  1
  Te  Te97  1  0.74950710  0.74439710  0.41892447  1
  Te  Te98  1  0.73695086  0.73030742  0.76018403  1
  Te  Te99  1  0.07483895  0.24563401  0.22840694  1
  Te  Te100  1  0.06244485  0.26366594  0.61239930  1
  Te  Te101  1  0.10788394  0.24810549  0.91979290  1
  Te  Te102  1  0.13792602  0.58626433  0.28245606  1
  Te  Te103  1  0.10631585  0.58590443  0.57385868  1
  Te  Te104  1  0.10107772  0.56992983  0.96207638  1
  Te  Te105  1  0.05994072  0.90024047  0.24763922  1
  Te  Te106  1  0.08394123  0.91722704  0.58963522  1
  Te  Te107  1  0.11844951  0.95922442  0.88250085  1
  Te  Te108  1  0.40975278  0.26111586  0.24983493  1
  Te  Te109  1  0.45425129  0.28378006  0.56851051  1
  Te  Te110  1  0.43240613  0.24713227  0.92395131  1
  Te  Te111  1  0.40056189  0.57901063  0.24247755  1
  Te  Te112  1  0.40773327  0.57268535  0.58105967  1
  Te  Te113  1  0.39633131  0.60387358  0.91089104  1
  Te  Te114  1  0.39750748  0.92024875  0.26545611  1
  Te  Te115  1  0.42422341  0.90911073  0.60284718  1
  Te  Te116  1  0.37678313  0.91776367  0.89341807  1
  Te  Te117  1  0.76106868  0.25135756  0.24105316  1
  Te  Te118  1  0.75651888  0.23756769  0.57342339  1
  Te  Te119  1  0.74472076  0.25769635  0.88744960  1
  Te  Te120  1  0.73815964  0.58728676  0.25338881  1
  Te  Te121  1  0.78030243  0.55411678  0.60931852  1
  Te  Te122  1  0.76627999  0.56683083  0.89700354  1
  Te  Te123  1  0.74065140  0.91094155  0.24444025  1
  Te  Te124  1  0.75577135  0.92108391  0.57455646  1
  Te  Te125  1  0.77699053  0.89635125  0.93418312  1
  Te  Te126  1  0.24731483  0.23806878  0.07203471  1
  Te  Te127  1  0.24938603  0.25175688  0.44139910  1
  Te  Te128  1  0.26244423  0.27275083  0.76274074  1
  Te  Te129  1  0.21224365  0.61313123  0.05863314  1
  Te  Te130  1  0.24745101  0.55987461  0.39634609  1
  Te  Te131  1  0.23134865  0.58151612  0.74367629  1
  Te  Te132  1  0.23192891  0.90526527  0.08179118  1
  Te  Te133  1  0.25243575  0.93210966  0.41868199  1
  Te  Te134  1  0.20971000  0.97205648  0.75503267  1
  Te  Te135  1  0.59603804  0.22117079  0.08967081  1
  Te  Te136  1  0.53077597  0.26927061  0.42651638  1
  Te  Te137  1  0.59729178  0.23660529  0.75350880  1
  Te  Te138  1  0.59025172  0.56707757  0.08423895  1
  Te  Te139  1  0.59034330  0.56745317  0.42951934  1
  Te  Te140  1  0.60546462  0.54993110  0.72996155  1
  Te  Te141  1  0.57648233  0.90619770  0.07058762  1
  Te  Te142  1  0.57168154  0.92038594  0.41018615  1
  Te  Te143  1  0.57938756  0.91026777  0.75318393  1
  Te  Te144  1  0.93918550  0.26071003  0.04080618  1
  Te  Te145  1  0.91199820  0.26154177  0.42545753  1
  Te  Te146  1  0.91166958  0.26713238  0.77654111  1
  Te  Te147  1  0.90985258  0.57617475  0.09131083  1
  Te  Te148  1  0.94093295  0.59398821  0.40095148  1
  Te  Te149  1  0.94625884  0.57635679  0.76132078  1
  Te  Te150  1  0.94571252  0.89127198  0.08762277  1
  Te  Te151  1  0.90690024  0.93278994  0.41656812  1
  Te  Te152  1  0.92078157  0.90387319  0.74636880  1
  Te  Te153  1  0.26024018  0.08324077  0.25140733  1
  Te  Te154  1  0.26224788  0.11134362  0.58054732  1
  Te  Te155  1  0.24749176  0.04623180  0.91256729  1
  Te  Te156  1  0.24535762  0.40485784  0.24612105  1
  Te  Te157  1  0.23682136  0.43265996  0.60934620  1
  Te  Te158  1  0.23409504  0.43555376  0.93026799  1
  Te  Te159  1  0.23961509  0.73822827  0.25251989  1
  Te  Te160  1  0.25157073  0.76724043  0.60222184  1
  Te  Te161  1  0.24205451  0.76013595  0.88982754  1
  Te  Te162  1  0.58568464  0.08737639  0.24530507  1
  Te  Te163  1  0.56256755  0.09303452  0.59155800  1
  Te  Te164  1  0.60579952  0.07471738  0.89970988  1
  Te  Te165  1  0.57577328  0.41353558  0.25452787  1
  Te  Te166  1  0.56409350  0.39485297  0.57227554  1
  Te  Te167  1  0.58158363  0.42726883  0.90430235  1
  Te  Te168  1  0.54795018  0.76905205  0.26165729  1
  Te  Te169  1  0.59963530  0.72943604  0.59307216  1
  Te  Te170  1  0.58291106  0.73778040  0.93212840  1
  Te  Te171  1  0.91866422  0.07452528  0.25796875  1
  Te  Te172  1  0.91705723  0.07509843  0.56715526  1
  Te  Te173  1  0.92973801  0.07458665  0.90982890  1
  Te  Te174  1  0.91296102  0.42485392  0.24608085  1
  Te  Te175  1  0.94292259  0.40771391  0.60834737  1
  Te  Te176  1  0.94915497  0.40247791  0.87124183  1
  Te  Te177  1  0.95310518  0.75541347  0.26484114  1
  Te  Te178  1  0.90609523  0.73663832  0.58011338  1
  Te  Te179  1  0.94094034  0.74554261  0.93569130  1
