# generated using pymatgen
data_In2Te3
_symmetry_space_group_name_H-M   'P 1'
_cell_length_a   18.96268624
_cell_length_b   18.93535822
_cell_length_c   18.96959407
_cell_angle_alpha   89.96933143
_cell_angle_beta   90.05383967
_cell_angle_gamma   90.01467336
_symmetry_Int_Tables_number   1
_chemical_formula_structural   In2Te3
_chemical_formula_sum   'In72 Te108'
_cell_volume   6811.31795804
_cell_formula_units_Z   36
loop_
 _symmetry_equiv_pos_site_id
 _symmetry_equiv_pos_as_xyz
  1  'x, y, z'
loop_
 _atom_site_type_symbol
 _atom_site_label
 _atom_site_symmetry_multiplicity
 _atom_site_fract_x
 _atom_site_fract_y
 _atom_site_fract_z
 _atom_site_occupancy
  In  In0  1  0.84733990  0.31700535  0.50555337  1
  In  In1  1  0.15733141  -0.02674065  0.57853155  1
  In  In2  1  -0.02868113  -0.00262739  -0.00165083  1
  In  In3  1  0.31677458  0.82677495  0.17071840  1
  In  In4  1  0.85583152  0.35653754  0.84805026  1
  In  In5  1  0.00702688  0.68618338  0.69198391  1
  In  In6  1  0.50382147  0.32526253  0.85710639  1
  In  In7  1  0.70679547  0.34449879  0.00407461  1
  In  In8  1  0.13138094  0.66928473  0.87646443  1
  In  In9  1  0.84035045  0.15712145  0.68548070  1
  In  In10  1  0.00548117  0.51419984  0.17390007  1
  In  In11  1  0.17678017  0.48219611  0.32677508  1
  In  In12  1  0.03590969  0.31896384  0.33089820  1
  In  In13  1  0.66975832  0.14375498  0.16122896  1
  In  In14  1  0.13689490  0.49861393  0.00424700  1
  In  In15  1  0.50883389  0.02524809  0.82349925  1
  In  In16  1  0.31793603  0.00752535  0.68048019  1
  In  In17  1  0.84434066  0.83433380  0.68298222  1
  In  In18  1  0.65681622  0.83226165  0.16790664  1
  In  In19  1  0.83758888  0.69038208  0.51688414  1
  In  In20  1  0.49635384  0.61071362  0.47150084  1
  In  In21  1  0.79632516  0.48947288  0.66123634  1
  In  In22  1  0.51002552  0.34677157  0.19310195  1
  In  In23  1  0.36302328  0.00200523  0.34302403  1
  In  In24  1  -0.02108091  0.51534504  0.50055004  1
  In  In25  1  0.13780639  0.81720024  0.02602231  1
  In  In26  1  0.16761287  0.82987871  0.31851953  1
  In  In27  1  0.85210443  -0.00082899  0.49746177  1
  In  In28  1  0.17344971  0.15977287  0.34634438  1
  In  In29  1  0.31063741  0.67849539  0.66105848  1
  In  In30  1  0.18852142  0.32351784  0.51521137  1
  In  In31  1  0.47362821  0.84495571  -0.02273152  1
  In  In32  1  0.33933481  0.81301708  0.50163061  1
  In  In33  1  0.83753678  0.51890280  0.32015790  1
  In  In34  1  0.87664641  0.31823978  0.14082413  1
  In  In35  1  0.67972376  0.48661440  0.18524487  1
  In  In36  1  0.66231690  0.65149238  -0.01909253  1
  In  In37  1  -0.00683159  0.84807934  0.83701407  1
  In  In38  1  0.51719369  0.47404495  0.63388837  1
  In  In39  1  0.29333986  0.03640396  -0.04455118  1
  In  In40  1  0.49317956  0.19458793  0.62901724  1
  In  In41  1  0.32770430  0.64862438  0.00623186  1
  In  In42  1  0.47670025  0.64342712  0.20067480  1
  In  In43  1  0.50323357  0.47858034  0.00874858  1
  In  In44  1  0.82512591  0.66991045  0.83427805  1
  In  In45  1  0.30889243  0.48631065  0.15070582  1
  In  In46  1  0.51128514  0.00772888  0.49368963  1
  In  In47  1  -0.00891542  0.00471739  0.31525174  1
  In  In48  1  0.52248251  0.01061612  0.16788523  1
  In  In49  1  0.16570153  0.49052500  0.65713771  1
  In  In50  1  0.83503233  0.81725247  0.28653782  1
  In  In51  1  0.15714923  0.01737180  0.13957498  1
  In  In52  1  0.67299361  0.17151617  0.50507144  1
  In  In53  1  0.65194907  0.66215438  0.64264499  1
  In  In54  1  0.68395378  0.19237156  0.83101069  1
  In  In55  1  0.49795303  0.82219162  0.35975249  1
  In  In56  1  0.33674534  0.51351020  0.80980608  1
  In  In57  1  0.70760570  0.00135385  -0.01117486  1
  In  In58  1  0.50345921  0.84838772  0.68301248  1
  In  In59  1  0.17869933  0.16792284  0.68515798  1
  In  In60  1  0.00375345  0.16950592  0.84817440  1
  In  In61  1  0.04655186  0.15522864  0.51419254  1
  In  In62  1  0.50228131  0.67022488  0.79764565  1
  In  In63  1  0.29468421  0.30958023  -0.01128110  1
  In  In64  1  0.16642802  0.65365788  0.45274318  1
  In  In65  1  0.84299906  0.82432211  0.00836519  1
  In  In66  1  0.83273210  0.17720720  0.32002627  1
  In  In67  1  0.33616713  0.18107315  0.16512663  1
  In  In68  1  0.67174300  0.83556936  0.50275411  1
  In  In69  1  0.15098632  0.34078800  0.82780815  1
  In  In70  1  0.49852248  0.17225387  0.02606818  1
  In  In71  1  0.67470881  0.33202258  0.34628683  1
  Te  Te72  1  0.06585112  0.09825870  0.05588440  1
  Te  Te73  1  0.09512244  0.04767874  0.41856849  1
  Te  Te74  1  0.09099856  0.07699808  0.76637923  1
  Te  Te75  1  0.08617777  0.40639810  0.10891961  1
  Te  Te76  1  0.07729028  0.41197016  0.44440072  1
  Te  Te77  1  0.07076938  0.43911185  0.75505902  1
  Te  Te78  1  0.05607213  0.71661614  0.09690127  1
  Te  Te79  1  0.07526301  0.75774065  0.40730608  1
  Te  Te80  1  0.10354883  0.77737644  0.76024441  1
  Te  Te81  1  0.40819698  0.06493812  0.08198671  1
  Te  Te82  1  0.41668783  0.10199488  0.43431569  1
  Te  Te83  1  0.41829746  0.10623173  0.73266463  1
  Te  Te84  1  0.40545311  0.38566276  0.07609930  1
  Te  Te85  1  0.46213035  0.41576893  0.49880635  1
  Te  Te86  1  0.43393187  0.41452029  0.75489511  1
  Te  Te87  1  0.42592094  0.74137035  0.08260920  1
  Te  Te88  1  0.40202804  0.71430846  0.40579865  1
  Te  Te89  1  0.39323340  0.76654091  0.75356906  1
  Te  Te90  1  0.77859561  0.08535795  0.08480641  1
  Te  Te91  1  0.75643961  0.08474510  0.41267393  1
  Te  Te92  1  0.73765634  0.07927595  0.75565845  1
  Te  Te93  1  0.78959042  0.43478104  0.09290184  1
  Te  Te94  1  0.77436683  0.41838854  0.41983726  1
  Te  Te95  1  0.74316573  0.39806371  0.76177530  1
  Te  Te96  1  0.73741968  0.73858419  0.07972150  1
  Te  Te97  1  0.75463502  0.75554827  0.40705420  1
  Te  Te98  1  0.73330461  0.74694139  0.73914168  1
  Te  Te99  1  0.07120781  0.20287066  0.24778098  1
  Te  Te100  1  0.08542460  0.26404996  0.61007066  1
  Te  Te101  1  0.06117472  0.28257292  0.93277098  1
  Te  Te102  1  0.07474892  0.57891012  0.28583725  1
  Te  Te103  1  0.07620104  0.59559897  0.58635217  1
  Te  Te104  1  0.03464401  0.55650182  0.90912501  1
  Te  Te105  1  0.08312233  0.91982791  0.22769284  1
  Te  Te106  1  0.02252388  0.91893367  0.58480644  1
  Te  Te107  1  0.08809211  0.92151082  0.92975166  1
  Te  Te108  1  0.41411675  0.26015876  0.26155805  1
  Te  Te109  1  0.39825172  0.29390605  0.57601640  1
  Te  Te110  1  0.40561253  0.22887353  0.92054933  1
  Te  Te111  1  0.39432580  0.53822893  0.25854816  1
  Te  Te112  1  0.41700993  0.59106109  0.60188349  1
  Te  Te113  1  0.43559547  0.58123186  0.91512044  1
  Te  Te114  1  0.43199891  0.90145276  0.24001312  1
  Te  Te115  1  0.41138089  0.92171736  0.58229242  1
  Te  Te116  1  0.39823413  0.94278220  0.88947211  1
  Te  Te117  1  0.75034213  0.26880972  0.23025432  1
  Te  Te118  1  0.75286236  0.25323508  0.60421092  1
  Te  Te119  1  0.78617203  0.24126195  0.93124975  1
  Te  Te120  1  0.74860446  0.60359785  0.24088869  1
  Te  Te121  1  0.73852321  0.57988143  0.55148830  1
  Te  Te122  1  0.77078654  0.56640825  0.92640459  1
  Te  Te123  1  0.74725630  0.92386594  0.23617084  1
  Te  Te124  1  0.75864623  0.92268165  0.58972898  1
  Te  Te125  1  0.75422205  0.88940303  0.90965071  1
  Te  Te126  1  0.22524305  0.21361750  0.07409414  1
  Te  Te127  1  0.25809751  0.26689543  0.39962973  1
  Te  Te128  1  0.25983143  0.25761899  0.77226790  1
  Te  Te129  1  0.21846468  0.59396880  0.09350245  1
  Te  Te130  1  0.25688768  0.54124062  0.43476515  1
  Te  Te131  1  0.22312509  0.60414747  0.76501312  1
  Te  Te132  1  0.25385715  0.91934890  0.06909768  1
  Te  Te133  1  0.26510285  0.90765598  0.40964003  1
  Te  Te134  1  0.20631929  0.91578297  0.70753507  1
  Te  Te135  1  0.59401947  0.27383148  0.08738082  1
  Te  Te136  1  0.57737485  0.26168841  0.43393459  1
  Te  Te137  1  0.57729929  0.25599329  0.74427618  1
  Te  Te138  1  0.57877459  0.57359181  0.09903162  1
  Te  Te139  1  0.60165693  0.57346618  0.38064639  1
  Te  Te140  1  0.59407252  0.56587913  0.74250918  1
  Te  Te141  1  0.58118045  0.92059392  0.05776169  1
  Te  Te142  1  0.60013285  0.92585768  0.40245676  1
  Te  Te143  1  0.59632248  0.92117469  0.76812099  1
  Te  Te144  1  0.95704752  0.24484199  0.04312187  1
  Te  Te145  1  0.93956028  0.22690785  0.42350742  1
  Te  Te146  1  0.92876075  0.25973811  0.75228257  1
  Te  Te147  1  0.92982305  0.62284426  0.10541372  1
  Te  Te148  1  0.91682190  0.61687117  0.40745186  1
  Te  Te149  1  0.89552247  0.59205709  0.72498988  1
  Te  Te150  1  0.92680678  0.90128046  0.10292818  1
  Te  Te151  1  0.90748424  0.90554547  0.39267079  1
  Te  Te152  1  0.89897618  0.94155825  0.77048704  1
  Te  Te153  1  0.26030884  0.06587613  0.24904191  1
  Te  Te154  1  0.25124448  0.09305949  0.57320021  1
  Te  Te155  1  0.21727760  0.11276019  0.85351384  1
  Te  Te156  1  0.21525407  0.39042616  0.21590817  1
  Te  Te157  1  0.27541065  0.40491513  0.60698956  1
  Te  Te158  1  0.25608560  0.44256774  0.91788421  1
  Te  Te159  1  0.24954555  0.72685063  0.25120040  1
  Te  Te160  1  0.21889186  0.75006387  0.56618649  1
  Te  Te161  1  0.24627641  0.75215023  0.93207950  1
  Te  Te162  1  0.57560121  0.10528894  0.26488940  1
  Te  Te163  1  0.59343307  0.08023385  0.59714086  1
  Te  Te164  1  0.59442799  0.10273585  0.93181669  1
  Te  Te165  1  0.57452837  0.44532036  0.29682750  1
  Te  Te166  1  0.60145534  0.38837049  0.54517873  1
  Te  Te167  1  0.60728705  0.42048699  0.91631732  1
  Te  Te168  1  0.57833944  0.73921849  0.26146859  1
  Te  Te169  1  0.55977887  0.75744187  0.56989138  1
  Te  Te170  1  0.57279782  0.74980368  0.90647332  1
  Te  Te171  1  0.92253675  0.10380184  0.22897194  1
  Te  Te172  1  0.93751073  0.08197313  0.59284306  1
  Te  Te173  1  0.90246648  0.06535854  0.88438818  1
  Te  Te174  1  0.92530568  0.40079468  0.26701042  1
  Te  Te175  1  0.91528482  0.41731451  0.59707050  1
  Te  Te176  1  0.91222102  0.46161107  0.93400008  1
  Te  Te177  1  0.93761073  0.74984689  0.19924071  1
  Te  Te178  1  0.94783202  0.78069170  0.57850589  1
  Te  Te179  1  0.93102646  0.73716408  0.91865555  1
