# generated using pymatgen
data_In2Te3
_symmetry_space_group_name_H-M   'P 1'
_cell_length_a   18.76738088
_cell_length_b   18.77633956
_cell_length_c   18.77112620
_cell_angle_alpha   89.99375537
_cell_angle_beta   89.96750256
_cell_angle_gamma   90.01675096
_symmetry_Int_Tables_number   1
_chemical_formula_structural   In2Te3
_chemical_formula_sum   'In72 Te108'
_cell_volume   6614.61904512
_cell_formula_units_Z   36
loop_
 _symmetry_equiv_pos_site_id
 _symmetry_equiv_pos_as_xyz
  1  'x, y, z'
loop_
 _atom_site_type_symbol
 _atom_site_label
 _atom_site_symmetry_multiplicity
 _atom_site_fract_x
 _atom_site_fract_y
 _atom_site_fract_z
 _atom_site_occupancy
  In  In0  1  -0.00175460  0.15763510  0.51644099  1
  In  In1  1  0.14117706  0.15723451  0.67474669  1
  In  In2  1  0.83252175  0.15328692  0.33835758  1
  In  In3  1  0.33640031  0.51536274  0.16401897  1
  In  In4  1  0.81743593  0.66495159  0.14181070  1
  In  In5  1  0.66946587  0.32935944  0.33297057  1
  In  In6  1  0.83185867  0.51966557  -0.02620583  1
  In  In7  1  0.48768456  0.84336614  0.32245187  1
  In  In8  1  0.50862601  0.47239123  0.00672801  1
  In  In9  1  0.65905059  0.03143096  0.32361411  1
  In  In10  1  0.83562941  0.31688913  0.17238415  1
  In  In11  1  0.32264883  0.02360198  -0.00195901  1
  In  In12  1  0.51627696  0.15795300  -0.01128105  1
  In  In13  1  0.33202851  0.16821044  0.16683289  1
  In  In14  1  -0.00194525  0.86104943  0.15865777  1
  In  In15  1  0.47902567  0.32694282  0.16850194  1
  In  In16  1  0.32384909  0.64219235  0.66609088  1
  In  In17  1  0.50921959  0.17693751  0.65264232  1
  In  In18  1  0.01468150  0.00685507  0.34940980  1
  In  In19  1  0.31902068  0.48025670  0.82683927  1
  In  In20  1  0.32738042  0.30934540  0.33706618  1
  In  In21  1  0.66913054  0.65844464  -0.02226893  1
  In  In22  1  0.50932199  0.33153678  0.82877317  1
  In  In23  1  0.00191641  0.67469525  0.67185214  1
  In  In24  1  0.47596746  0.66567558  0.17296755  1
  In  In25  1  0.33450760  0.00111644  0.34900515  1
  In  In26  1  -0.00029724  0.32098431  -0.02422044  1
  In  In27  1  0.14412185  0.16921109  -0.02246417  1
  In  In28  1  0.86689254  0.86649476  0.33731127  1
  In  In29  1  0.33005009  0.00036681  0.65370371  1
  In  In30  1  0.71972713  0.86192190  0.83799431  1
  In  In31  1  0.84077861  0.15729676  -0.01857049  1
  In  In32  1  0.15849125  0.49002404  0.35425046  1
  In  In33  1  -0.02913537  0.84332941  0.83555323  1
  In  In34  1  0.31662626  0.84678426  0.82619723  1
  In  In35  1  0.11963460  0.85636440  0.65604561  1
  In  In36  1  0.31780146  0.16384791  0.48932171  1
  In  In37  1  0.32718646  0.83644058  0.49375894  1
  In  In38  1  0.67096447  0.83119990  0.13230796  1
  In  In39  1  0.15467535  0.31912315  0.16327168  1
  In  In40  1  0.49367981  0.83431236  0.65189753  1
  In  In41  1  0.51700858  0.83134128  0.03138526  1
  In  In42  1  0.16496259  -0.00098720  0.18636700  1
  In  In43  1  0.29991625  0.68107230  0.31339327  1
  In  In44  1  0.48157722  0.64527606  0.52948685  1
  In  In45  1  0.51590321  -0.00056668  0.84149566  1
  In  In46  1  0.67269107  0.67045582  0.70967467  1
  In  In47  1  0.17060913  0.50369041  -0.01520317  1
  In  In48  1  0.01579870  0.49838055  0.81858078  1
  In  In49  1  0.17694205  0.46899936  0.66319683  1
  In  In50  1  0.00333904  0.02048659  -0.02050289  1
  In  In51  1  0.82251546  0.00614772  0.16026502  1
  In  In52  1  0.16174488  0.66878034  0.50895625  1
  In  In53  1  0.34067373  0.67228614  0.00620690  1
  In  In54  1  0.69122678  0.30712474  0.67794834  1
  In  In55  1  0.66688122  0.48685832  0.51804695  1
  In  In56  1  -0.01034368  0.51871428  0.17609099  1
  In  In57  1  0.52226942  0.65218768  0.82507406  1
  In  In58  1  -0.00058155  0.68077533  0.34567306  1
  In  In59  1  0.65429172  0.46591040  0.16720438  1
  In  In60  1  0.70101846  0.01985675  0.67708788  1
  In  In61  1  0.02017227  0.33304633  0.35012301  1
  In  In62  1  0.81202124  0.50030448  0.36367683  1
  In  In63  1  0.15502316  0.82800682  0.00580306  1
  In  In64  1  0.32185251  0.18322003  0.82843803  1
  In  In65  1  0.68307523  0.85656198  0.50565470  1
  In  In66  1  0.48676853  0.31969559  0.49411651  1
  In  In67  1  0.85676277  0.66960997  0.51109598  1
  In  In68  1  0.66046669  0.66540672  0.35664061  1
  In  In69  1  0.69538645  0.16636965  0.51653797  1
  In  In70  1  0.86341644  0.46932497  0.64882859  1
  In  In71  1  0.66356301  0.31936664  -0.01977905  1
  Te  Te72  1  0.08198962  0.08709655  0.09271317  1
  Te  Te73  1  0.09755301  0.11232836  0.41411692  1
  Te  Te74  1  0.04341524  0.06185404  0.74448639  1
  Te  Te75  1  0.06512841  0.41879525  0.08514380  1
  Te  Te76  1  0.08636120  0.41037853  0.46091277  1
  Te  Te77  1  0.07702899  0.38560771  0.74037249  1
  Te  Te78  1  0.08029296  0.74752449  0.10670931  1
  Te  Te79  1  0.08613944  0.76703746  0.42862332  1
  Te  Te80  1  0.08605269  0.75725652  0.76709162  1
  Te  Te81  1  0.43048945  0.07908798  0.08891058  1
  Te  Te82  1  0.42718440  0.08637731  0.42715003  1
  Te  Te83  1  0.42013408  0.08115772  0.75084732  1
  Te  Te84  1  0.38869390  0.40542454  0.07131397  1
  Te  Te85  1  0.39499461  0.41179108  0.42129487  1
  Te  Te86  1  0.41719049  0.40875890  0.74273780  1
  Te  Te87  1  0.39463021  0.77513277  0.10617566  1
  Te  Te88  1  0.42328901  0.74195036  0.41991565  1
  Te  Te89  1  0.41556644  0.74684504  0.75088018  1
  Te  Te90  1  0.74021184  0.08552905  0.06540237  1
  Te  Te91  1  0.76421176  0.05650967  0.43398209  1
  Te  Te92  1  0.77741017  0.11340590  0.76399201  1
  Te  Te93  1  0.76645945  0.41407117  0.07385209  1
  Te  Te94  1  0.75822979  0.38544514  0.44715481  1
  Te  Te95  1  0.75744392  0.42345887  0.74084994  1
  Te  Te96  1  0.77440155  0.76446888  0.03095292  1
  Te  Te97  1  0.76896417  0.75776874  0.41145163  1
  Te  Te98  1  0.78032646  0.76583137  0.74330656  1
  Te  Te99  1  0.07193356  0.23587539  0.25215725  1
  Te  Te100  1  0.04927107  0.26583803  0.61225243  1
  Te  Te101  1  0.08807316  0.26000041  0.87235708  1
  Te  Te102  1  0.09261995  0.59247971  0.26063835  1
  Te  Te103  1  0.08279683  0.57203839  0.59352735  1
  Te  Te104  1  0.07638699  0.59270102  0.91576104  1
  Te  Te105  1  0.09278092  0.89593675  0.27359527  1
  Te  Te106  1  0.04445636  0.95464906  0.57310573  1
  Te  Te107  1  0.08768764  0.91897631  0.90423144  1
  Te  Te108  1  0.44047977  0.21569270  0.27060281  1
  Te  Te109  1  0.39047527  0.25081614  0.59537564  1
  Te  Te110  1  0.41744975  0.25486128  0.92473128  1
  Te  Te111  1  0.41678789  0.57532396  0.27703716  1
  Te  Te112  1  0.40138932  0.53299444  0.59507852  1
  Te  Te113  1  0.42293808  0.57492823  0.92106597  1
  Te  Te114  1  0.40957132  0.93421228  0.23861350  1
  Te  Te115  1  0.42871804  0.93397350  0.55719305  1
  Te  Te116  1  0.41411370  0.91521036  0.92309690  1
  Te  Te117  1  0.73613060  0.22478576  0.24074487  1
  Te  Te118  1  0.79948785  0.22357862  0.61107218  1
  Te  Te119  1  0.77191306  0.26442894  0.89408760  1
  Te  Te120  1  0.74411848  0.57453601  0.24614482  1
  Te  Te121  1  0.75424768  0.58925961  0.59087061  1
  Te  Te122  1  0.74446322  0.58646238  0.87297324  1
  Te  Te123  1  0.74491216  0.90798718  0.25200587  1
  Te  Te124  1  0.77302328  0.90725246  0.61007661  1
  Te  Te125  1  0.79584867  0.93927193  0.93624828  1
  Te  Te126  1  0.24601622  0.24437438  0.06615007  1
  Te  Te127  1  0.21929401  0.25476222  0.42299209  1
  Te  Te128  1  0.24311910  0.25538180  0.72743404  1
  Te  Te129  1  0.23444220  0.59886733  0.08954974  1
  Te  Te130  1  0.25694813  0.58481573  0.42488657  1
  Te  Te131  1  0.22509862  0.58213398  0.76366628  1
  Te  Te132  1  0.24850915  0.92215867  0.08431219  1
  Te  Te133  1  0.23155931  0.91901811  0.41930792  1
  Te  Te134  1  0.22472270  0.93304307  0.74163218  1
  Te  Te135  1  0.58847053  0.24995654  0.09134417  1
  Te  Te136  1  0.59288383  0.23311668  0.42420677  1
  Te  Te137  1  0.59758008  0.22245271  0.76727364  1
  Te  Te138  1  0.58177426  0.58894494  0.08575277  1
  Te  Te139  1  0.57186356  0.56558818  0.42749867  1
  Te  Te140  1  0.56860879  0.56563771  0.71509761  1
  Te  Te141  1  0.59170175  0.94660123  0.08594172  1
  Te  Te142  1  0.58579228  0.92438124  0.40801424  1
  Te  Te143  1  0.59237428  0.90973104  0.74192842  1
  Te  Te144  1  0.92802917  0.23679793  0.08389001  1
  Te  Te145  1  0.91313987  0.24872611  0.42351562  1
  Te  Te146  1  0.86421243  0.23996215  0.76017389  1
  Te  Te147  1  0.93070572  0.59945156  0.06014613  1
  Te  Te148  1  0.93314925  0.56689350  0.42732232  1
  Te  Te149  1  0.90872091  0.58188048  0.74631114  1
  Te  Te150  1  0.90324412  0.92470959  0.05240413  1
  Te  Te151  1  0.93438220  0.93059220  0.45374844  1
  Te  Te152  1  0.93066581  0.94908760  0.73751560  1
  Te  Te153  1  0.24111079  0.10185157  0.26776116  1
  Te  Te154  1  0.22495270  0.07383768  0.57389310  1
  Te  Te155  1  0.23048422  0.07628045  0.89016813  1
  Te  Te156  1  0.24393312  0.41664364  0.24588502  1
  Te  Te157  1  0.28131206  0.43577800  0.56353828  1
  Te  Te158  1  0.23740488  0.39344033  0.91395932  1
  Te  Te159  1  0.22778434  0.75917458  0.21657845  1
  Te  Te160  1  0.24904922  0.76388250  0.60594067  1
  Te  Te161  1  0.24397620  0.74290354  0.91121893  1
  Te  Te162  1  0.57168798  0.12265169  0.25085614  1
  Te  Te163  1  0.59164057  0.07180531  0.58145019  1
  Te  Te164  1  0.61713018  0.07990427  0.91281255  1
  Te  Te165  1  0.55638953  0.41428744  0.27044984  1
  Te  Te166  1  0.58321927  0.38508719  0.59361851  1
  Te  Te167  1  0.60509406  0.43331562  0.89667839  1
  Te  Te168  1  0.59189061  0.74536899  0.24469631  1
  Te  Te169  1  0.59187973  0.74507384  0.57423794  1
  Te  Te170  1  0.58472055  0.76950900  0.90779732  1
  Te  Te171  1  0.92674594  0.07907949  0.24406244  1
  Te  Te172  1  0.93789670  0.06453241  0.62258700  1
  Te  Te173  1  0.94200713  0.11291298  0.87775676  1
  Te  Te174  1  0.90837857  0.41854867  0.26190913  1
  Te  Te175  1  0.96004215  0.39487809  0.56514420  1
  Te  Te176  1  0.91022621  0.41424512  0.89584523  1
  Te  Te177  1  0.90358544  0.74820799  0.23928610  1
  Te  Te178  1  0.93724195  0.77181806  0.57977440  1
  Te  Te179  1  0.88806429  0.75582561  0.92005558  1
