# generated using pymatgen
data_In2Te3
_symmetry_space_group_name_H-M   'P 1'
_cell_length_a   18.78281992
_cell_length_b   18.78750330
_cell_length_c   18.80868163
_cell_angle_alpha   89.93280671
_cell_angle_beta   90.06877845
_cell_angle_gamma   90.02454955
_symmetry_Int_Tables_number   1
_chemical_formula_structural   In2Te3
_chemical_formula_sum   'In72 Te108'
_cell_volume   6637.24071536
_cell_formula_units_Z   36
loop_
 _symmetry_equiv_pos_site_id
 _symmetry_equiv_pos_as_xyz
  1  'x, y, z'
loop_
 _atom_site_type_symbol
 _atom_site_label
 _atom_site_symmetry_multiplicity
 _atom_site_fract_x
 _atom_site_fract_y
 _atom_site_fract_z
 _atom_site_occupancy
  In  In0  1  -0.01584505  -0.02514237  0.34926122  1
  In  In1  1  0.49809965  0.33402487  0.17395415  1
  In  In2  1  -0.01724036  0.83776731  0.16158524  1
  In  In3  1  0.66068518  0.33072083  0.66055287  1
  In  In4  1  0.49936921  0.82328350  0.32507072  1
  In  In5  1  0.33845328  0.15167947  0.15028420  1
  In  In6  1  0.64998453  0.34314929  0.33436386  1
  In  In7  1  0.65603398  -0.01532685  0.01057720  1
  In  In8  1  0.33080885  -0.00923479  0.00483274  1
  In  In9  1  0.33202991  0.32124864  -0.00697529  1
  In  In10  1  0.00787811  0.14975595  0.52505698  1
  In  In11  1  0.33254130  0.16915835  0.51294497  1
  In  In12  1  0.51862856  -0.01172916  0.82596293  1
  In  In13  1  0.65880212  0.69818970  0.65000182  1
  In  In14  1  0.68254838  0.14647876  0.83179717  1
  In  In15  1  0.68290452  -0.04233901  0.30498395  1
  In  In16  1  0.14604097  0.83946152  0.66980897  1
  In  In17  1  0.49419921  0.50049910  0.65090893  1
  In  In18  1  -0.00069354  0.67559207  0.31821038  1
  In  In19  1  0.67756992  0.14012978  0.17302100  1
  In  In20  1  0.81093917  0.66571383  0.81392927  1
  In  In21  1  0.52197449  0.53335450  0.34897799  1
  In  In22  1  0.13908918  -0.01946604  0.51008343  1
  In  In23  1  0.34698887  0.50707474  0.83232987  1
  In  In24  1  0.85440668  0.49649234  0.01643031  1
  In  In25  1  0.00105970  0.35548989  0.33588602  1
  In  In26  1  -0.00113337  0.83443055  0.82538639  1
  In  In27  1  0.17565569  0.66640197  0.47919918  1
  In  In28  1  0.34380523  0.16105047  0.83893969  1
  In  In29  1  0.85029450  0.01326755  0.84641221  1
  In  In30  1  0.35239339  0.35843301  0.34819858  1
  In  In31  1  0.31993178  0.35379633  0.66354740  1
  In  In32  1  0.17754913  0.50038530  0.01911157  1
  In  In33  1  0.00193764  0.14201074  0.15136833  1
  In  In34  1  0.51417858  0.52284082  0.00144480  1
  In  In35  1  0.50455718  0.00179685  0.49114625  1
  In  In36  1  0.34279221  0.67090867  0.65892083  1
  In  In37  1  0.17553275  0.80647029  0.30759682  1
  In  In38  1  0.66665763  0.81147908  0.80085896  1
  In  In39  1  0.12917536  0.30385933  0.86280681  1
  In  In40  1  0.65812108  0.48201529  0.83588712  1
  In  In41  1  0.81687456  0.52883875  0.31117593  1
  In  In42  1  0.19833243  0.16909004  0.32389802  1
  In  In43  1  0.82511701  0.53185404  0.66073951  1
  In  In44  1  -0.00594759  0.31545344  0.68198544  1
  In  In45  1  0.32537798  0.82144115  0.82394056  1
  In  In46  1  0.81083401  -0.03052895  0.51045976  1
  In  In47  1  0.68453765  0.18614826  0.49670087  1
  In  In48  1  0.16369367  0.53618080  0.32911857  1
  In  In49  1  0.33787898  0.52079189  0.18640527  1
  In  In50  1  0.82454642  0.72430728  0.49357792  1
  In  In51  1  0.14548355  0.33679403  0.15401435  1
  In  In52  1  0.17815294  0.83666621  -0.01028487  1
  In  In53  1  0.68010505  0.67880054  0.02510675  1
  In  In54  1  0.47974217  0.66034923  0.83440775  1
  In  In55  1  0.36122208  0.84276347  0.48604918  1
  In  In56  1  0.67355909  0.33004457  0.00680076  1
  In  In57  1  0.00351403  0.50938171  0.50166464  1
  In  In58  1  0.83451905  0.33902589  0.16690194  1
  In  In59  1  0.33612545  -0.00933958  0.31128242  1
  In  In60  1  0.48647865  0.80643843  0.03325259  1
  In  In61  1  0.83470714  0.84107000  0.00312682  1
  In  In62  1  -0.02222338  0.50847905  0.83694797  1
  In  In63  1  0.50733459  0.16297630  0.67618625  1
  In  In64  1  0.14083451  -0.00113893  0.83817054  1
  In  In65  1  0.53893245  0.16204778  0.32727821  1
  In  In66  1  0.00080911  0.65232004  0.01466615  1
  In  In67  1  0.80518449  0.33080587  0.51057496  1
  In  In68  1  0.84325885  0.30055457  0.83386334  1
  In  In69  1  0.15955438  0.15540321  0.67430161  1
  In  In70  1  0.16898200  0.50643247  0.65664267  1
  In  In71  1  0.85661344  0.15317699  0.34162806  1
  Te  Te72  1  0.09208542  0.08669787  0.04964014  1
  Te  Te73  1  0.08519309  0.08994251  0.40573409  1
  Te  Te74  1  0.05542511  0.07312215  0.74005278  1
  Te  Te75  1  0.06156506  0.42249056  0.06889339  1
  Te  Te76  1  0.10321855  0.42631790  0.42308755  1
  Te  Te77  1  0.08150946  0.42096213  0.75273091  1
  Te  Te78  1  0.08604456  0.75406014  0.08724232  1
  Te  Te79  1  0.07669530  0.76359169  0.41553575  1
  Te  Te80  1  0.10094222  0.74276324  0.77120575  1
  Te  Te81  1  0.43441195  0.07213667  0.07361958  1
  Te  Te82  1  0.41011520  0.09200126  0.40229806  1
  Te  Te83  1  0.41202086  0.06433078  0.74329403  1
  Te  Te84  1  0.40707790  0.42134404  0.08437335  1
  Te  Te85  1  0.44282499  0.43729847  0.43253879  1
  Te  Te86  1  0.43190077  0.40785788  0.75544176  1
  Te  Te87  1  0.39686790  0.74133813  0.13332551  1
  Te  Te88  1  0.41335262  0.73083576  0.40704402  1
  Te  Te89  1  0.43672804  0.76688574  0.73422469  1
  Te  Te90  1  0.76040282  0.06433583  0.07928856  1
  Te  Te91  1  0.73956020  0.07548426  0.40293162  1
  Te  Te92  1  0.75262327  0.05564005  0.74088685  1
  Te  Te93  1  0.73743574  0.43521196  0.09623776  1
  Te  Te94  1  0.74818665  0.43116172  0.41149919  1
  Te  Te95  1  0.77177767  0.41968064  0.75519070  1
  Te  Te96  1  0.73936881  0.79018589  0.11063927  1
  Te  Te97  1  0.72086604  0.72552125  0.38071990  1
  Te  Te98  1  0.78648051  0.77475624  0.71119042  1
  Te  Te99  1  0.07199117  0.24285041  0.25971954  1
  Te  Te100  1  0.09662138  0.26169535  0.58173623  1
  Te  Te101  1  0.06151691  0.20305286  0.94926686  1
  Te  Te102  1  0.07366723  0.58812632  0.22540387  1
  Te  Te103  1  0.08040588  0.60989927  0.58614375  1
  Te  Te104  1  0.08845727  0.57843785  0.91473833  1
  Te  Te105  1  0.08393436  0.91559257  0.24911879  1
  Te  Te106  1  0.03614197  0.89867365  0.58161127  1
  Te  Te107  1  0.05807154  0.91865220  0.93882690  1
  Te  Te108  1  0.40973912  0.24026782  0.25677368  1
  Te  Te109  1  0.42296912  0.26098630  0.59352903  1
  Te  Te110  1  0.43333767  0.23896018  0.92572445  1
  Te  Te111  1  0.43545226  0.61280932  0.25192553  1
  Te  Te112  1  0.43961066  0.60883589  0.56738771  1
  Te  Te113  1  0.39337228  0.59889012  0.94634908  1
  Te  Te114  1  0.41503271  0.89962220  0.22586190  1
  Te  Te115  1  0.41512421  0.93405338  0.58735818  1
  Te  Te116  1  0.42915592  0.89899029  0.91686884  1
  Te  Te117  1  0.75295767  0.24956438  0.26738127  1
  Te  Te118  1  0.76837908  0.23036238  0.61866322  1
  Te  Te119  1  0.76102458  0.22619012  0.93870770  1
  Te  Te120  1  0.71601002  0.62112470  0.25181062  1
  Te  Te121  1  0.73613912  0.60000757  0.56179679  1
  Te  Te122  1  0.74822083  0.57354896  0.92237871  1
  Te  Te123  1  0.78721914  0.88757539  0.22721313  1
  Te  Te124  1  0.70980647  0.88012076  0.58068372  1
  Te  Te125  1  0.73745157  0.90655707  0.90152408  1
  Te  Te126  1  0.23499029  0.23990386  0.07723046  1
  Te  Te127  1  0.25107846  0.26639282  0.42807070  1
  Te  Te128  1  0.24782950  0.25205515  0.75616918  1
  Te  Te129  1  0.23477861  0.60300089  0.11266606  1
  Te  Te130  1  0.27754815  0.59108453  0.40419206  1
  Te  Te131  1  0.25025138  0.59443645  0.75314136  1
  Te  Te132  1  0.25398598  0.90506236  0.09725217  1
  Te  Te133  1  0.24059971  0.91783043  0.40907096  1
  Te  Te134  1  0.24404684  0.92678099  0.74993269  1
  Te  Te135  1  0.58689613  0.23910473  0.09506096  1
  Te  Te136  1  0.56670601  0.26545800  0.43538877  1
  Te  Te137  1  0.58927869  0.25295760  0.76871501  1
  Te  Te138  1  0.57449607  0.60916579  0.10322158  1
  Te  Te139  1  0.61479277  0.62138942  0.42580547  1
  Te  Te140  1  0.59299074  0.59160645  0.75198443  1
  Te  Te141  1  0.59186503  0.88559585  0.10397068  1
  Te  Te142  1  0.59635865  0.90266561  0.41999963  1
  Te  Te143  1  0.59829348  0.91867684  0.72130022  1
  Te  Te144  1  0.91231787  0.24298907  0.08818236  1
  Te  Te145  1  0.92052063  0.26209129  0.42940770  1
  Te  Te146  1  0.93782716  0.20469933  0.76603782  1
  Te  Te147  1  0.89075097  0.60940374  0.10331191  1
  Te  Te148  1  0.90820257  0.59634770  0.42204635  1
  Te  Te149  1  0.93225986  0.61168007  0.73297236  1
  Te  Te150  1  0.92598072  0.93843064  0.06686982  1
  Te  Te151  1  0.88585871  0.88206858  0.41391888  1
  Te  Te152  1  0.91174870  0.92215589  0.74470693  1
  Te  Te153  1  0.23368973  0.06352370  0.22162454  1
  Te  Te154  1  0.24488122  0.06668965  0.58424143  1
  Te  Te155  1  0.24136109  0.08218410  0.91993360  1
  Te  Te156  1  0.24408052  0.40816092  0.24687739  1
  Te  Te157  1  0.26743105  0.44835232  0.56409780  1
  Te  Te158  1  0.24626668  0.41330818  0.90380868  1
  Te  Te159  1  0.26930775  0.72713243  0.22487024  1
  Te  Te160  1  0.24865343  0.76725280  0.57771481  1
  Te  Te161  1  0.25945892  0.73277887  0.92087430  1
  Te  Te162  1  0.57340081  0.04704340  0.23736907  1
  Te  Te163  1  0.59635416  0.08831648  0.57799923  1
  Te  Te164  1  0.57726192  0.08665117  0.92565232  1
  Te  Te165  1  0.58528417  0.43940118  0.23735159  1
  Te  Te166  1  0.59861097  0.42958748  0.57251317  1
  Te  Te167  1  0.56443663  0.40166819  0.92458444  1
  Te  Te168  1  0.60895986  0.73531014  0.26739986  1
  Te  Te169  1  0.58511295  0.79292566  0.56370688  1
  Te  Te170  1  0.58527851  0.74336488  0.91851650  1
  Te  Te171  1  0.90808750  0.05529004  0.24074185  1
  Te  Te172  1  0.89644302  0.07145655  0.57924442  1
  Te  Te173  1  0.94124859  0.10664273  0.91645926  1
  Te  Te174  1  0.92340818  0.44152629  0.23932803  1
  Te  Te175  1  0.91503378  0.41777671  0.58923678  1
  Te  Te176  1  0.92420167  0.39475169  0.92421004  1
  Te  Te177  1  0.89332181  0.76795741  0.26181950  1
  Te  Te178  1  0.93120917  0.78074516  0.57716379  1
  Te  Te179  1  0.90563106  0.73396472  0.91608095  1
