# generated using pymatgen
data_In2Te3
_symmetry_space_group_name_H-M   'P 1'
_cell_length_a   18.92631596
_cell_length_b   18.93094773
_cell_length_c   18.94433777
_cell_angle_alpha   90.18491516
_cell_angle_beta   90.08104546
_cell_angle_gamma   90.08773657
_symmetry_Int_Tables_number   1
_chemical_formula_structural   In2Te3
_chemical_formula_sum   'In72 Te108'
_cell_volume   6787.57532760
_cell_formula_units_Z   36
loop_
 _symmetry_equiv_pos_site_id
 _symmetry_equiv_pos_as_xyz
  1  'x, y, z'
loop_
 _atom_site_type_symbol
 _atom_site_label
 _atom_site_symmetry_multiplicity
 _atom_site_fract_x
 _atom_site_fract_y
 _atom_site_fract_z
 _atom_site_occupancy
  In  In0  1  0.17876380  0.46904217  0.32989981  1
  In  In1  1  -0.01711459  0.50220347  0.52944748  1
  In  In2  1  0.33749760  0.18794631  0.17530203  1
  In  In3  1  0.65456479  0.66083158  0.34895143  1
  In  In4  1  0.87795230  0.15964272  -0.01471184  1
  In  In5  1  0.84103498  0.32165745  0.16253328  1
  In  In6  1  0.50335167  0.84943227  0.35081234  1
  In  In7  1  -0.02019337  0.84655976  0.47647011  1
  In  In8  1  0.49774247  0.79833366  0.67142358  1
  In  In9  1  0.34197168  0.80922896  0.83517840  1
  In  In10  1  0.17199266  0.85683624  0.31646554  1
  In  In11  1  0.84749141  0.66401044  0.84170342  1
  In  In12  1  0.48541254  0.17708473  0.01321360  1
  In  In13  1  0.49856786  0.34175064  0.48111169  1
  In  In14  1  0.65158192  0.50081221  0.48831955  1
  In  In15  1  0.31668905  0.82787587  0.14380155  1
  In  In16  1  0.65071120  0.63971848  0.68772629  1
  In  In17  1  0.14551000  0.00488192  0.82101550  1
  In  In18  1  0.67248921  0.00365109  0.02426735  1
  In  In19  1  0.17594106  0.18086422  0.33367072  1
  In  In20  1  0.85218135  0.48637493  -0.00828513  1
  In  In21  1  0.01685115  0.49635053  0.13936972  1
  In  In22  1  0.63953884  0.35776905  0.32458073  1
  In  In23  1  0.88032457  0.01247844  0.85948503  1
  In  In24  1  0.34824285  0.02142586  0.31951262  1
  In  In25  1  0.86851153  0.31596017  0.80823407  1
  In  In26  1  0.83607368  0.85975979  0.66431825  1
  In  In27  1  0.82052806  0.67342049  0.49591051  1
  In  In28  1  0.69114835  0.80583377  0.86345714  1
  In  In29  1  0.00724288  0.01766914  0.67149204  1
  In  In30  1  0.00872594  -0.00569733  0.00982953  1
  In  In31  1  -0.01153037  0.84199970  0.17208233  1
  In  In32  1  0.48300697  0.18475000  0.65118713  1
  In  In33  1  0.32679063  0.01625419  0.64251408  1
  In  In34  1  0.47911281  0.34646431  0.84848846  1
  In  In35  1  0.00496774  0.15573843  0.18216370  1
  In  In36  1  0.50415650  0.82263726  0.00401046  1
  In  In37  1  0.68001973  0.14360443  0.47964767  1
  In  In38  1  0.32163844  0.48643882  0.85096531  1
  In  In39  1  0.65728038  0.67205913  0.01277673  1
  In  In40  1  0.69109863  0.16458618  0.82692524  1
  In  In41  1  0.01563935  0.67613145  0.31393298  1
  In  In42  1  0.33072707  0.48794979  0.50497304  1
  In  In43  1  0.65872618  0.32445448  0.02187230  1
  In  In44  1  0.84026807  0.82202620  0.01899916  1
  In  In45  1  0.17813223  0.63667265  0.84621521  1
  In  In46  1  0.66434724  0.84301444  0.52640962  1
  In  In47  1  0.81782794  0.87744421  0.30540724  1
  In  In48  1  0.13939194  0.65140442  0.52896549  1
  In  In49  1  0.85610011  0.47194461  0.66372752  1
  In  In50  1  0.31558824  0.83039459  0.50008558  1
  In  In51  1  0.81578595  0.49536306  0.34358785  1
  In  In52  1  0.02244024  0.66902227  0.01307428  1
  In  In53  1  0.32424969  0.18696486  0.82405794  1
  In  In54  1  0.14152017  0.30611927  0.49907998  1
  In  In55  1  0.15442404  0.04261356  0.50977049  1
  In  In56  1  0.31975357  0.02383737  0.01420107  1
  In  In57  1  0.33918808  0.66086277  0.34003818  1
  In  In58  1  0.16354400  0.83238215  0.67730873  1
  In  In59  1  0.85552682  0.16947532  0.66259291  1
  In  In60  1  0.68288070  0.33643155  0.69085895  1
  In  In61  1  0.68513196  0.12604811  0.20968257  1
  In  In62  1  -0.03151286  0.31780808  0.35018602  1
  In  In63  1  0.47520795  0.50065686  0.67069376  1
  In  In64  1  0.51636675  -0.01426142  0.83555108  1
  In  In65  1  0.15716734  0.35389664  0.83279969  1
  In  In66  1  0.47920120  0.47204533  0.02361455  1
  In  In67  1  0.19124645  0.33278778  0.15889034  1
  In  In68  1  0.68144486  -0.02250442  0.65002880  1
  In  In69  1  0.01414925  0.64759143  0.66756105  1
  In  In70  1  0.49673630  0.65613979  0.18430679  1
  In  In71  1  0.47784613  0.02262538  0.48556493  1
  Te  Te72  1  0.08824719  0.10173222  0.07158614  1
  Te  Te73  1  0.07168951  0.10526840  0.40710772  1
  Te  Te74  1  0.11975845  0.10626071  0.71330255  1
  Te  Te75  1  0.11025669  0.41301711  0.06098652  1
  Te  Te76  1  0.06076992  0.42617002  0.41899995  1
  Te  Te77  1  0.07311354  0.45071030  0.75530167  1
  Te  Te78  1  0.09156261  0.75787513  0.11192142  1
  Te  Te79  1  0.09172602  0.75944566  0.42116880  1
  Te  Te80  1  0.08562358  0.73876148  0.76418367  1
  Te  Te81  1  0.42537649  0.07716783  0.10885820  1
  Te  Te82  1  0.41134182  0.12345758  0.40421363  1
  Te  Te83  1  0.42321700  0.07932606  0.75669611  1
  Te  Te84  1  0.43424295  0.36215817  0.11493705  1
  Te  Te85  1  0.42981660  0.44546055  0.40092168  1
  Te  Te86  1  0.38983363  0.39652648  0.73978280  1
  Te  Te87  1  0.41207473  0.72947860  0.07816608  1
  Te  Te88  1  0.42424288  0.74912390  0.43196158  1
  Te  Te89  1  0.40933320  0.70897834  0.74904317  1
  Te  Te90  1  0.76872697  0.10730097  0.07693276  1
  Te  Te91  1  0.78160352  0.09553643  0.38023546  1
  Te  Te92  1  0.77076678  0.06223605  0.74904108  1
  Te  Te93  1  0.75290790  0.42225925  0.09094606  1
  Te  Te94  1  0.74683566  0.39731566  0.43323352  1
  Te  Te95  1  0.76418382  0.42693372  0.77845136  1
  Te  Te96  1  0.73023280  0.76841203  0.09684478  1
  Te  Te97  1  0.75048149  0.77573326  0.40876271  1
  Te  Te98  1  0.76062984  0.74523606  0.73489547  1
  Te  Te99  1  0.07668883  0.27662959  0.25206198  1
  Te  Te100  1  0.07171975  0.22005748  0.59826649  1
  Te  Te101  1  0.05155362  0.26588844  0.89433154  1
  Te  Te102  1  0.09992815  0.57281681  0.24286636  1
  Te  Te103  1  0.10805019  0.52575895  0.62516296  1
  Te  Te104  1  0.06172371  0.56120938  0.90979809  1
  Te  Te105  1  0.07178975  0.93912526  0.24958643  1
  Te  Te106  1  0.08632792  0.91256120  0.57398563  1
  Te  Te107  1  0.08863000  0.91209823  0.91854939  1
  Te  Te108  1  0.44166079  0.27075376  0.24067401  1
  Te  Te109  1  0.40186747  0.26989009  0.56694796  1
  Te  Te110  1  0.38794026  0.26506607  0.93820691  1
  Te  Te111  1  0.37814507  0.57501207  0.22408688  1
  Te  Te112  1  0.41993635  0.58691020  0.56740139  1
  Te  Te113  1  0.39609598  0.56620127  0.95065043  1
  Te  Te114  1  0.40532023  0.90123109  0.24896572  1
  Te  Te115  1  0.42914780  0.90929323  0.58520173  1
  Te  Te116  1  0.40939104  0.92471062  0.92537531  1
  Te  Te117  1  0.74027616  0.26440677  0.25823395  1
  Te  Te118  1  0.73887692  0.23542599  0.59240945  1
  Te  Te119  1  0.76568273  0.25654156  0.92034234  1
  Te  Te120  1  0.73473361  0.57960522  0.25724732  1
  Te  Te121  1  0.75822899  0.57022033  0.58864629  1
  Te  Te122  1  0.75192758  0.58665568  0.92662952  1
  Te  Te123  1  0.71180721  0.96815388  0.24127530  1
  Te  Te124  1  0.78614329  0.93894573  0.54459275  1
  Te  Te125  1  0.75814759  0.93377069  0.91502246  1
  Te  Te126  1  0.23080918  0.21664981  0.07656487  1
  Te  Te127  1  0.24426537  0.29845902  0.39092191  1
  Te  Te128  1  0.23945547  0.27033991  0.73978350  1
  Te  Te129  1  0.16974136  0.61833187  0.00368421  1
  Te  Te130  1  0.22819894  0.58714657  0.42253050  1
  Te  Te131  1  0.27963461  0.58616627  0.74939629  1
  Te  Te132  1  0.23182349  0.92081725  0.06941952  1
  Te  Te133  1  0.25139827  0.94053309  0.41995316  1
  Te  Te134  1  0.26832681  0.91955932  0.74576990  1
  Te  Te135  1  0.60001889  0.21476677  0.10329568  1
  Te  Te136  1  0.58525788  0.23777717  0.40976866  1
  Te  Te137  1  0.57377076  0.24859735  0.76575968  1
  Te  Te138  1  0.58128924  0.57020729  0.09326008  1
  Te  Te139  1  0.55401551  0.56037319  0.39466978  1
  Te  Te140  1  0.57099919  0.55199102  0.77115758  1
  Te  Te141  1  0.56880750  0.92384757  0.08884134  1
  Te  Te142  1  0.59579223  0.94062417  0.42976725  1
  Te  Te143  1  0.59827224  0.89042885  0.75030105  1
  Te  Te144  1  0.94843845  0.25623851  0.08079571  1
  Te  Te145  1  0.90776867  0.19520745  0.40630866  1
  Te  Te146  1  0.96195627  0.27318752  0.69408327  1
  Te  Te147  1  0.90975715  0.59055684  0.08657367  1
  Te  Te148  1  0.92421082  0.59704469  0.41671829  1
  Te  Te149  1  0.93144148  0.56313138  0.76483176  1
  Te  Te150  1  0.89707916  0.94006330  0.09549385  1
  Te  Te151  1  0.93593811  0.93897671  0.37117603  1
  Te  Te152  1  0.94036422  0.91222957  0.76078885  1
  Te  Te153  1  0.23959468  0.08473344  0.23637580  1
  Te  Te154  1  0.27554211  0.11656490  0.54976995  1
  Te  Te155  1  0.23706438  0.09304175  0.90546135  1
  Te  Te156  1  0.27575600  0.43859837  0.22192663  1
  Te  Te157  1  0.23324546  0.39897834  0.57175506  1
  Te  Te158  1  0.23390258  0.41414187  0.94794214  1
  Te  Te159  1  0.24594049  0.74351883  0.24984317  1
  Te  Te160  1  0.24962132  0.73532467  0.59764467  1
  Te  Te161  1  0.24406084  0.74923292  0.92682495  1
  Te  Te162  1  0.58364298  0.04160194  0.27547352  1
  Te  Te163  1  0.58106288  0.08377514  0.59488754  1
  Te  Te164  1  0.58508615  0.09267574  0.91802446  1
  Te  Te165  1  0.54270817  0.40087579  0.22165838  1
  Te  Te166  1  0.58864965  0.40919718  0.59507390  1
  Te  Te167  1  0.58868006  0.41655680  0.92554518  1
  Te  Te168  1  0.58218785  0.75873304  0.25801466  1
  Te  Te169  1  0.58799227  0.72113369  0.57478753  1
  Te  Te170  1  0.56706122  0.72981706  0.90068112  1
  Te  Te171  1  0.88973606  0.11670789  0.26846610  1
  Te  Te172  1  0.90965583  0.06571748  0.57222111  1
  Te  Te173  1  0.97153594  0.13373002  0.86867189  1
  Te  Te174  1  0.91817285  0.42932080  0.24910182  1
  Te  Te175  1  0.90742688  0.37829755  0.56070839  1
  Te  Te176  1  0.93869790  0.38587411  0.92202290  1
  Te  Te177  1  0.89873520  0.75176361  0.25507885  1
  Te  Te178  1  0.92330685  0.74781660  0.58774554  1
  Te  Te179  1  0.93151627  0.76261241  0.91837227  1
