# generated using pymatgen
data_In2Te3
_symmetry_space_group_name_H-M   'P 1'
_cell_length_a   18.80670195
_cell_length_b   18.80515487
_cell_length_c   18.81081600
_cell_angle_alpha   90.02040575
_cell_angle_beta   89.98232520
_cell_angle_gamma   89.94129540
_symmetry_Int_Tables_number   1
_chemical_formula_structural   In2Te3
_chemical_formula_sum   'In72 Te108'
_cell_volume   6652.68431360
_cell_formula_units_Z   36
loop_
 _symmetry_equiv_pos_site_id
 _symmetry_equiv_pos_as_xyz
  1  'x, y, z'
loop_
 _atom_site_type_symbol
 _atom_site_label
 _atom_site_symmetry_multiplicity
 _atom_site_fract_x
 _atom_site_fract_y
 _atom_site_fract_z
 _atom_site_occupancy
  In  In0  1  0.49908457  -0.01640764  0.82144989  1
  In  In1  1  0.31465229  0.33005290  0.33619147  1
  In  In2  1  0.31254328  0.02652695  0.62242407  1
  In  In3  1  0.47081460  0.16665046  0.00549936  1
  In  In4  1  0.83789102  0.85274503  0.02141353  1
  In  In5  1  0.67486925  -0.00651287  0.68457011  1
  In  In6  1  0.01643078  0.82640862  0.83127202  1
  In  In7  1  0.31727744  0.84867589  0.16880563  1
  In  In8  1  0.00276131  0.01690234  0.65167616  1
  In  In9  1  0.48638352  0.83673317  -0.02231440  1
  In  In10  1  0.69312302  0.83430221  0.15877458  1
  In  In11  1  0.83422314  0.50718287  0.00093153  1
  In  In12  1  0.15880410  0.82928505  0.67374856  1
  In  In13  1  0.84348063  0.49707034  0.32907503  1
  In  In14  1  0.66488189  0.66307048  0.65416995  1
  In  In15  1  0.50558249  0.33516818  0.16075880  1
  In  In16  1  0.02612851  0.01246842  0.35190199  1
  In  In17  1  0.68179744  0.65363414  -0.01885218  1
  In  In18  1  0.33461725  0.84688612  0.49551648  1
  In  In19  1  0.65822856  -0.01882595  0.31681903  1
  In  In20  1  0.17523477  0.84084074  0.35292951  1
  In  In21  1  0.50466324  0.65609235  0.81589778  1
  In  In22  1  0.51527165  0.33333497  0.52510761  1
  In  In23  1  0.82164272  0.66858440  0.50733750  1
  In  In24  1  0.65268638  0.32263025  0.34742502  1
  In  In25  1  0.33297043  0.82081266  0.83177963  1
  In  In26  1  0.00392539  0.82401606  0.50442981  1
  In  In27  1  0.15938822  0.68208427  0.16273728  1
  In  In28  1  0.70253733  0.67411722  0.32824576  1
  In  In29  1  0.00871528  0.48989857  0.82638610  1
  In  In30  1  0.49471602  0.82962029  0.33848350  1
  In  In31  1  0.15109864  0.31277111  0.50454538  1
  In  In32  1  0.50182468  0.17856201  0.66772174  1
  In  In33  1  0.67470554  0.14975980  0.17119637  1
  In  In34  1  -0.02286646  0.17085009  0.82135339  1
  In  In35  1  0.00266509  0.67065038  0.01539987  1
  In  In36  1  0.82347481  0.01451767  0.83980183  1
  In  In37  1  0.83993128  0.17046617  0.34048445  1
  In  In38  1  0.35781884  0.34563062  0.67863252  1
  In  In39  1  0.31311103  0.16843158  0.18331729  1
  In  In40  1  0.85393782  0.31980058  0.51483878  1
  In  In41  1  0.67556169  0.35456742  -0.01693708  1
  In  In42  1  0.31423980  0.17270805  0.83501782  1
  In  In43  1  0.47084769  0.02401312  0.48132687  1
  In  In44  1  0.49748571  0.63837041  0.17155108  1
  In  In45  1  0.50511591  0.50291679  0.32721602  1
  In  In46  1  0.16657651  0.50979202  0.33016978  1
  In  In47  1  0.32656127  0.66065960  0.66460138  1
  In  In48  1  0.33051617  0.51502310  0.49561818  1
  In  In49  1  0.84315603  0.64465079  0.82500734  1
  In  In50  1  0.16172492  0.32435887  0.82797696  1
  In  In51  1  0.83227472  0.82955574  0.66300390  1
  In  In52  1  0.17677691  0.50486562  -0.00898517  1
  In  In53  1  0.65726664  0.50064911  0.51403948  1
  In  In54  1  0.49859358  0.50597183  -0.01466332  1
  In  In55  1  0.01415765  0.48096720  0.18662398  1
  In  In56  1  0.16621706  0.00186169  0.16518232  1
  In  In57  1  0.68310751  0.17981573  0.51266615  1
  In  In58  1  0.15924151  0.50801116  0.66839672  1
  In  In59  1  0.16575191  -0.00447376  0.84793174  1
  In  In60  1  0.49119501  0.67363882  0.52432284  1
  In  In61  1  0.83864152  0.16184612  0.01311604  1
  In  In62  1  0.67269888  0.17151685  0.80665467  1
  In  In63  1  0.50215130  0.00098036  0.17136663  1
  In  In64  1  -0.01359549  0.31908867  -0.02134917  1
  In  In65  1  0.31448141  0.68627395  -0.00034180  1
  In  In66  1  -0.00416759  0.50697784  0.49816340  1
  In  In67  1  0.68150595  0.01908229  -0.00742580  1
  In  In68  1  0.01114011  0.16708791  0.17375995  1
  In  In69  1  0.33505033  0.33295545  -0.00198810  1
  In  In70  1  0.15304342  0.32013761  0.18532226  1
  In  In71  1  0.86715485  0.01073106  0.50214559  1
  Te  Te72  1  0.08395561  0.08659083  0.07483555  1
  Te  Te73  1  0.07708612  0.09490044  0.46770724  1
  Te  Te74  1  0.08880539  0.09082902  0.75318317  1
  Te  Te75  1  0.08124604  0.40955916  0.06225651  1
  Te  Te76  1  0.08213888  0.41289885  0.41124071  1
  Te  Te77  1  0.07359800  0.39232748  0.72446342  1
  Te  Te78  1  0.08491708  0.77776334  0.07723842  1
  Te  Te79  1  0.08346666  0.74033826  0.41159873  1
  Te  Te80  1  0.08043700  0.72706474  0.74461873  1
  Te  Te81  1  0.39225436  0.07130720  0.09114753  1
  Te  Te82  1  0.35367360  0.07519839  0.40740326  1
  Te  Te83  1  0.40874839  0.08247107  0.74485211  1
  Te  Te84  1  0.41223931  0.43010205  0.08750098  1
  Te  Te85  1  0.42530724  0.40930148  0.42003073  1
  Te  Te86  1  0.43536468  0.39958357  0.79066308  1
  Te  Te87  1  0.42708815  0.75494267  0.09224743  1
  Te  Te88  1  0.40382434  0.73479358  0.41553937  1
  Te  Te89  1  0.42697890  0.75712990  0.73105998  1
  Te  Te90  1  0.77546242  0.05619085  0.10607498  1
  Te  Te91  1  0.74374349  0.07533051  0.41551283  1
  Te  Te92  1  0.77809270  0.10083183  0.72234943  1
  Te  Te93  1  0.76098164  0.41179378  0.08719431  1
  Te  Te94  1  0.74928212  0.41114888  0.42725747  1
  Te  Te95  1  0.77874844  0.35589508  0.73915265  1
  Te  Te96  1  0.76906994  0.72202494  0.08635958  1
  Te  Te97  1  0.75715671  0.77167873  0.42255294  1
  Te  Te98  1  0.74892359  0.74421974  0.75560405  1
  Te  Te99  1  0.08307213  0.23753406  0.28394941  1
  Te  Te100  1  0.06332301  0.21064593  0.57382428  1
  Te  Te101  1  0.08882068  0.22631222  0.91764563  1
  Te  Te102  1  0.06827418  0.60474941  0.25750433  1
  Te  Te103  1  0.10076614  0.59203499  0.56181817  1
  Te  Te104  1  0.08508590  0.59418378  0.90966000  1
  Te  Te105  1  0.08068828  0.90703559  0.25347428  1
  Te  Te106  1  0.09572844  0.92481452  0.57240900  1
  Te  Te107  1  0.06753374  0.92130330  0.93038490  1
  Te  Te108  1  0.42099326  0.25089347  0.25474879  1
  Te  Te109  1  0.40183207  0.24151463  0.57218393  1
  Te  Te110  1  0.42685931  0.26219870  0.89393376  1
  Te  Te111  1  0.39844942  0.58128806  0.26312177  1
  Te  Te112  1  0.42735641  0.56073551  0.60377298  1
  Te  Te113  1  0.40045732  0.59544823  0.90977866  1
  Te  Te114  1  0.40547926  0.92890022  0.26481463  1
  Te  Te115  1  0.42374444  0.92616470  0.59062473  1
  Te  Te116  1  0.39122559  0.93699902  0.91892559  1
  Te  Te117  1  0.75035180  0.25627469  0.24912663  1
  Te  Te118  1  0.73476198  0.28591247  0.60559403  1
  Te  Te119  1  0.75617361  0.24291288  0.91404178  1
  Te  Te120  1  0.75703591  0.57436686  0.23663699  1
  Te  Te121  1  0.76795509  0.56043512  0.59996847  1
  Te  Te122  1  0.73888770  0.55101708  0.88584716  1
  Te  Te123  1  0.77484849  0.90633514  0.26143283  1
  Te  Te124  1  0.75873827  0.92692377  0.57363731  1
  Te  Te125  1  0.74157652  0.90633531  0.90931846  1
  Te  Te126  1  0.23651794  0.24855335  0.07763048  1
  Te  Te127  1  0.25147705  0.23164338  0.42586643  1
  Te  Te128  1  0.24510809  0.24945606  0.72383504  1
  Te  Te129  1  0.25535493  0.58261695  0.09495287  1
  Te  Te130  1  0.23143116  0.60048597  0.42844301  1
  Te  Te131  1  0.25385600  0.57520364  0.75973408  1
  Te  Te132  1  0.23831374  0.91512174  0.06613979  1
  Te  Te133  1  0.25589141  0.95168358  0.41965652  1
  Te  Te134  1  0.25923291  0.92733006  0.73643630  1
  Te  Te135  1  0.59055228  0.23761989  0.07451397  1
  Te  Te136  1  0.56495483  0.22694660  0.42547679  1
  Te  Te137  1  0.58674272  0.27357117  0.74225241  1
  Te  Te138  1  0.59949907  0.56998591  0.08087817  1
  Te  Te139  1  0.58780861  0.59727522  0.41704267  1
  Te  Te140  1  0.59451161  0.56512224  0.74209261  1
  Te  Te141  1  0.58632064  0.92043510  0.07239719  1
  Te  Te142  1  0.57471049  0.92102149  0.42947818  1
  Te  Te143  1  0.58995722  0.89310969  0.75046190  1
  Te  Te144  1  0.91277161  0.26221652  0.09893815  1
  Te  Te145  1  0.93788251  0.25758535  0.40848711  1
  Te  Te146  1  0.90960163  0.28364705  0.75137170  1
  Te  Te147  1  0.92466185  0.57590233  0.10388079  1
  Te  Te148  1  0.91726580  0.60440801  0.40666480  1
  Te  Te149  1  0.92542573  0.56676321  0.73063144  1
  Te  Te150  1  0.94326121  0.90080009  0.11384374  1
  Te  Te151  1  0.92433100  0.90794801  0.40532833  1
  Te  Te152  1  0.91820999  0.92518779  0.74995329  1
  Te  Te153  1  0.22970215  0.08543661  0.27304571  1
  Te  Te154  1  0.19852456  0.10563550  0.56993719  1
  Te  Te155  1  0.24746841  0.08665479  0.93285564  1
  Te  Te156  1  0.25208625  0.42460666  0.23485148  1
  Te  Te157  1  0.25208876  0.41114704  0.57621531  1
  Te  Te158  1  0.25945258  0.41953808  0.89578381  1
  Te  Te159  1  0.25750490  0.74552663  0.26125104  1
  Te  Te160  1  0.24444455  0.75111225  0.57397790  1
  Te  Te161  1  0.22472668  0.76362157  0.91308190  1
  Te  Te162  1  0.56957448  0.09709303  0.26802421  1
  Te  Te163  1  0.58673864  0.07728838  0.58702016  1
  Te  Te164  1  0.57498958  0.09098600  0.90919143  1
  Te  Te165  1  0.60156738  0.42201649  0.24153956  1
  Te  Te166  1  0.58173004  0.42612427  0.61882302  1
  Te  Te167  1  0.57153144  0.41393616  0.89215326  1
  Te  Te168  1  0.58680291  0.75255259  0.24303472  1
  Te  Te169  1  0.59867915  0.76318228  0.56767203  1
  Te  Te170  1  0.58756631  0.74858222  0.90718300  1
  Te  Te171  1  0.92099096  0.07300853  0.25675818  1
  Te  Te172  1  0.91256951  0.12215306  0.59084696  1
  Te  Te173  1  0.92960916  0.07059267  0.93173078  1
  Te  Te174  1  0.92700221  0.39249878  0.26536993  1
  Te  Te175  1  0.93513434  0.41304173  0.59727247  1
  Te  Te176  1  0.89805498  0.41179982  0.89809270  1
  Te  Te177  1  0.88065348  0.79323170  0.19245590  1
  Te  Te178  1  0.92867553  0.73162957  0.59962423  1
  Te  Te179  1  0.90503526  0.74912053  0.91995593  1
