# generated using pymatgen
data_In2Te3
_symmetry_space_group_name_H-M   'P 1'
_cell_length_a   19.02313625
_cell_length_b   19.00563050
_cell_length_c   19.02829538
_cell_angle_alpha   89.86199862
_cell_angle_beta   90.06661758
_cell_angle_gamma   90.04191730
_symmetry_Int_Tables_number   1
_chemical_formula_structural   In2Te3
_chemical_formula_sum   'In72 Te108'
_cell_volume   6879.59094271
_cell_formula_units_Z   36
loop_
 _symmetry_equiv_pos_site_id
 _symmetry_equiv_pos_as_xyz
  1  'x, y, z'
loop_
 _atom_site_type_symbol
 _atom_site_label
 _atom_site_symmetry_multiplicity
 _atom_site_fract_x
 _atom_site_fract_y
 _atom_site_fract_z
 _atom_site_occupancy
  In  In0  1  0.01067343  0.32827072  0.69439244  1
  In  In1  1  0.67542891  0.84390749  0.86648571  1
  In  In2  1  0.67154787  0.15170517  0.48491771  1
  In  In3  1  0.00045104  0.16248077  0.50212450  1
  In  In4  1  0.69023601  -0.01248283  0.67248385  1
  In  In5  1  0.30071421  0.47943558  0.16394737  1
  In  In6  1  0.35481740  0.68123400  0.63349641  1
  In  In7  1  0.49915394  0.48652274  0.32234816  1
  In  In8  1  0.83023911  0.34431185  0.51328272  1
  In  In9  1  0.32567083  0.38247691  -0.04183325  1
  In  In10  1  0.67580162  0.50432073  0.14515705  1
  In  In11  1  0.68287595  0.65913447  0.00395463  1
  In  In12  1  0.00358643  0.00580041  0.34866913  1
  In  In13  1  0.50036618  0.00061618  0.49094727  1
  In  In14  1  0.35621439  0.63810887  -0.02968820  1
  In  In15  1  0.17489039  0.02050288  0.85681431  1
  In  In16  1  0.65603802  0.32708887  0.67186627  1
  In  In17  1  0.13913719  0.51136802  0.65302301  1
  In  In18  1  0.18119053  0.50048533  0.34299951  1
  In  In19  1  0.85315336  0.81917962  0.64658647  1
  In  In20  1  0.87480995  0.66562739  0.49508357  1
  In  In21  1  0.82545694  0.00768112  0.15954177  1
  In  In22  1  0.49741131  0.83602863  0.65212396  1
  In  In23  1  0.35036447  0.48769659  0.51015873  1
  In  In24  1  0.69872924  0.53599242  0.47596043  1
  In  In25  1  0.14763962  0.84769834  0.66816611  1
  In  In26  1  0.13443543  0.83001044  0.34396593  1
  In  In27  1  0.00993140  0.67202703  -0.01849976  1
  In  In28  1  0.35298370  0.85575056  0.16279681  1
  In  In29  1  0.50311586  0.64637541  0.17504579  1
  In  In30  1  0.33035700  0.02625489  0.32726027  1
  In  In31  1  0.18252828  0.85710784  0.02001503  1
  In  In32  1  0.33242327  0.81488707  0.81921435  1
  In  In33  1  0.82780257  0.30983231  0.84154123  1
  In  In34  1  -0.02954224  0.13560078  0.84928380  1
  In  In35  1  0.33618207  0.68558679  0.35757128  1
  In  In36  1  -0.00852059  0.00667908  0.64834535  1
  In  In37  1  0.01568929  0.33029422  0.00548306  1
  In  In38  1  0.67662399  -0.00197672  0.34060746  1
  In  In39  1  0.50803333  0.48258736  0.66625767  1
  In  In40  1  0.01876021  0.65251168  0.35191424  1
  In  In41  1  0.66138804  0.01042389  -0.00196894  1
  In  In42  1  0.50785081  0.83968959  0.00726810  1
  In  In43  1  0.18491384  0.63832080  0.83605238  1
  In  In44  1  0.14890618  0.32148198  0.16874975  1
  In  In45  1  0.83831337  0.66123501  0.83039759  1
  In  In46  1  0.47364642  0.04874717  0.17674781  1
  In  In47  1  0.47128366  -0.00330023  0.83051858  1
  In  In48  1  0.84476430  0.32194061  0.17171093  1
  In  In49  1  0.18407424  0.30428943  0.47510949  1
  In  In50  1  0.00223205  0.83720789  0.83143162  1
  In  In51  1  0.63514873  0.16739558  0.81605235  1
  In  In52  1  0.85865268  0.50836865  0.67858404  1
  In  In53  1  0.82428720  0.69082614  0.16085157  1
  In  In54  1  0.49586079  0.33610940  0.52776705  1
  In  In55  1  0.43670409  0.29984128  0.13732897  1
  In  In56  1  0.84625266  0.48817081  0.00449994  1
  In  In57  1  0.65879267  0.34123842  0.32802222  1
  In  In58  1  0.47072845  0.15233333  0.67028763  1
  In  In59  1  0.18421280  0.68441726  0.15029267  1
  In  In60  1  0.20128870  0.13738629  0.64673356  1
  In  In61  1  -0.01755790  0.86462374  0.18184211  1
  In  In62  1  -0.00477680  0.34289191  0.33312021  1
  In  In63  1  0.16294748  0.17048343  0.00765451  1
  In  In64  1  0.32294637  0.33250216  0.68841756  1
  In  In65  1  0.62453067  0.44214923  0.84882628  1
  In  In66  1  0.34268561  0.85806989  0.48658049  1
  In  In67  1  -0.00823977  0.16177118  0.15887298  1
  In  In68  1  0.64590477  0.68068937  0.67298581  1
  In  In69  1  0.84515693  0.85901973  0.34898868  1
  In  In70  1  0.64091505  0.18318044  0.17750861  1
  In  In71  1  0.68456659  0.67920210  0.31689150  1
  Te  Te72  1  0.08767395  0.07667717  0.09069488  1
  Te  Te73  1  0.10205413  0.09427464  0.41813909  1
  Te  Te74  1  0.08090581  0.07844947  0.74565309  1
  Te  Te75  1  0.06484546  0.42625969  0.10551917  1
  Te  Te76  1  0.09033586  0.41361796  0.42705945  1
  Te  Te77  1  0.11393742  0.41301752  0.76678293  1
  Te  Te78  1  0.07387952  0.76926146  0.09065586  1
  Te  Te79  1  0.10860582  0.72458737  0.44494186  1
  Te  Te80  1  0.09524325  0.74181976  0.76209000  1
  Te  Te81  1  0.36721480  0.07150925  0.07766473  1
  Te  Te82  1  0.40365862  0.09529322  0.43631671  1
  Te  Te83  1  0.38176189  0.09932150  0.77436487  1
  Te  Te84  1  0.41473915  0.43553389  0.07701664  1
  Te  Te85  1  0.41458126  0.39695424  0.40901587  1
  Te  Te86  1  0.39396529  0.44725922  0.75523736  1
  Te  Te87  1  0.41179016  0.74077428  0.08307995  1
  Te  Te88  1  0.43754012  0.76587232  0.42276889  1
  Te  Te89  1  0.43680689  0.73128631  0.75001605  1
  Te  Te90  1  0.73732848  0.10630334  0.08713056  1
  Te  Te91  1  0.77464491  0.06219226  0.43170251  1
  Te  Te92  1  0.74696311  0.09004884  0.75805580  1
  Te  Te93  1  0.74914545  0.39410776  0.07419225  1
  Te  Te94  1  0.76406435  0.42341149  0.39898998  1
  Te  Te95  1  0.75319500  0.41318875  0.74880169  1
  Te  Te96  1  0.73927027  0.77288191  0.07577480  1
  Te  Te97  1  0.77006360  0.74937144  0.42080245  1
  Te  Te98  1  0.74752416  0.76403326  0.75703891  1
  Te  Te99  1  0.07401950  0.23334797  0.26512417  1
  Te  Te100  1  0.09385040  0.24936517  0.59103692  1
  Te  Te101  1  0.07308547  0.23420774  0.90305632  1
  Te  Te102  1  0.10910721  0.59183512  0.24440939  1
  Te  Te103  1  0.07128245  0.61376646  0.57416785  1
  Te  Te104  1  0.09611748  0.56387109  0.92887497  1
  Te  Te105  1  0.09711092  0.93859454  0.24372751  1
  Te  Te106  1  0.06664035  0.91261282  0.56248365  1
  Te  Te107  1  0.08247130  0.92368944  0.92785766  1
  Te  Te108  1  0.41790631  0.21356144  0.25363260  1
  Te  Te109  1  0.39091947  0.24456280  0.58100502  1
  Te  Te110  1  0.42983401  0.30216644  0.89024677  1
  Te  Te111  1  0.38893063  0.57608812  0.25345592  1
  Te  Te112  1  0.45047046  0.58311751  0.56761720  1
  Te  Te113  1  0.40402421  0.53037194  0.88639338  1
  Te  Te114  1  0.43187003  0.92959843  0.26531841  1
  Te  Te115  1  0.39735305  0.94383963  0.60762841  1
  Te  Te116  1  0.39841672  0.90353228  0.92439188  1
  Te  Te117  1  0.75208948  0.24236038  0.26262324  1
  Te  Te118  1  0.74581850  0.24283083  0.58639837  1
  Te  Te119  1  0.72014140  0.24127246  0.91268738  1
  Te  Te120  1  0.76570338  0.57447820  0.24165158  1
  Te  Te121  1  0.76516656  0.60048982  0.59674253  1
  Te  Te122  1  0.75062351  0.56298889  0.90954266  1
  Te  Te123  1  0.74959753  0.90703648  0.24293263  1
  Te  Te124  1  0.75906636  0.90464213  0.57402557  1
  Te  Te125  1  0.76714878  0.95528869  0.90649675  1
  Te  Te126  1  0.24482306  0.28695044  0.05806808  1
  Te  Te127  1  0.24122959  0.18840066  0.40485238  1
  Te  Te128  1  0.24863158  0.22508554  0.75469327  1
  Te  Te129  1  0.24935984  0.58110463  0.06283690  1
  Te  Te130  1  0.25777190  0.58717361  0.44125450  1
  Te  Te131  1  0.25558283  0.59396839  0.71016625  1
  Te  Te132  1  0.26398299  0.95691147  0.09827677  1
  Te  Te133  1  0.23895052  0.92540043  0.40107145  1
  Te  Te134  1  0.24150005  0.92067053  0.76169500  1
  Te  Te135  1  0.55034064  0.23353849  0.07041720  1
  Te  Te136  1  0.58068211  0.25777310  0.42723061  1
  Te  Te137  1  0.53929737  0.26793381  0.74527196  1
  Te  Te138  1  0.57054816  0.57371002  0.06146479  1
  Te  Te139  1  0.58335188  0.58964030  0.39315067  1
  Te  Te140  1  0.59608876  0.56680809  0.75586942  1
  Te  Te141  1  0.56627319  0.94661758  0.09510924  1
  Te  Te142  1  0.58897588  0.91052882  0.42053778  1
  Te  Te143  1  0.57987059  0.91182827  0.76279336  1
  Te  Te144  1  0.90821964  0.23967868  0.06053778  1
  Te  Te145  1  0.90876050  0.25486232  0.42014553  1
  Te  Te146  1  0.90756946  0.22963638  0.74185503  1
  Te  Te147  1  0.91516318  0.60055624  0.07893651  1
  Te  Te148  1  0.92366022  0.55841192  0.41085194  1
  Te  Te149  1  0.94371125  0.58035510  0.77197387  1
  Te  Te150  1  0.91706216  0.93491999  0.06954194  1
  Te  Te151  1  0.95656456  0.89594827  0.43878726  1
  Te  Te152  1  0.91102851  0.91939868  0.74431658  1
  Te  Te153  1  0.28209452  0.14737339  0.25002278  1
  Te  Te154  1  0.26539743  0.02397754  0.58752601  1
  Te  Te155  1  0.27295295  0.09563386  0.93919695  1
  Te  Te156  1  0.24757543  0.38659397  0.26932854  1
  Te  Te157  1  0.24299098  0.40839352  0.58070531  1
  Te  Te158  1  0.21252686  0.44270433  0.88338337  1
  Te  Te159  1  0.25408488  0.76932977  0.25501229  1
  Te  Te160  1  0.25311598  0.77728714  0.58006105  1
  Te  Te161  1  0.24243253  0.75154872  0.92865323  1
  Te  Te162  1  0.57617819  0.09538673  0.28074209  1
  Te  Te163  1  0.58742363  0.08627009  0.59669519  1
  Te  Te164  1  0.55525018  0.08592124  0.91844703  1
  Te  Te165  1  0.57763626  0.40944702  0.21983911  1
  Te  Te166  1  0.61188837  0.43248938  0.55924675  1
  Te  Te167  1  0.55860811  0.35476153  0.94719754  1
  Te  Te168  1  0.59185643  0.74838014  0.22808511  1
  Te  Te169  1  0.59232165  0.76463052  0.56738585  1
  Te  Te170  1  0.57899004  0.74023117  0.91974289  1
  Te  Te171  1  0.90905452  0.08405901  0.26051351  1
  Te  Te172  1  0.89514845  0.07716728  0.56089686  1
  Te  Te173  1  0.89996753  0.03974089  0.93329145  1
  Te  Te174  1  0.93507701  0.42421429  0.22563396  1
  Te  Te175  1  0.93949039  0.41523853  0.59168521  1
  Te  Te176  1  0.92648465  0.40589977  0.90746823  1
  Te  Te177  1  0.92627750  0.75086952  0.26571468  1
  Te  Te178  1  0.95958377  0.71850303  0.60549679  1
  Te  Te179  1  0.90363784  0.76321654  0.92134890  1
