# generated using pymatgen
data_In2Te3
_symmetry_space_group_name_H-M   'P 1'
_cell_length_a   18.92637498
_cell_length_b   18.92928092
_cell_length_c   18.92274740
_cell_angle_alpha   90.02902233
_cell_angle_beta   90.08465078
_cell_angle_gamma   89.96484650
_symmetry_Int_Tables_number   1
_chemical_formula_structural   In2Te3
_chemical_formula_sum   'In72 Te108'
_cell_volume   6779.30444669
_cell_formula_units_Z   36
loop_
 _symmetry_equiv_pos_site_id
 _symmetry_equiv_pos_as_xyz
  1  'x, y, z'
loop_
 _atom_site_type_symbol
 _atom_site_label
 _atom_site_symmetry_multiplicity
 _atom_site_fract_x
 _atom_site_fract_y
 _atom_site_fract_z
 _atom_site_occupancy
  In  In0  1  0.31747712  0.84794840  0.15993195  1
  In  In1  1  0.15012041  0.11746598  0.31878088  1
  In  In2  1  0.70081490  0.48721488  0.80020004  1
  In  In3  1  0.30701924  0.51309352  0.12723157  1
  In  In4  1  0.31073990  0.15515238  0.79833226  1
  In  In5  1  0.14632287  0.34301375  0.16115095  1
  In  In6  1  0.67958977  0.34376891  -0.01466515  1
  In  In7  1  0.13996761  0.53304544  0.30749935  1
  In  In8  1  0.49988350  -0.00181237  0.52754525  1
  In  In9  1  0.65841411  0.51601296  0.18673698  1
  In  In10  1  0.15244066  0.65956789  0.50709297  1
  In  In11  1  0.49466285  0.34283804  0.84519090  1
  In  In12  1  -0.01310117  0.47775854  0.52939600  1
  In  In13  1  0.68175327  0.17651833  0.82946173  1
  In  In14  1  0.33903640  -0.02002489  -0.03506548  1
  In  In15  1  -0.00162910  0.16362475  0.82336257  1
  In  In16  1  0.16640740  0.17897130  -0.00640820  1
  In  In17  1  0.15342895  0.79947455  0.35741450  1
  In  In18  1  0.15010118  -0.01595317  0.15361684  1
  In  In19  1  0.50859848  0.15047897  0.68459100  1
  In  In20  1  0.11591737  -0.03831009  0.84858022  1
  In  In21  1  0.83450650  0.51462429  0.37601787  1
  In  In22  1  0.69789530  0.65238229  0.66304250  1
  In  In23  1  0.67645438  0.02472971  0.35538269  1
  In  In24  1  0.83937708  0.17589937  0.34425128  1
  In  In25  1  0.69379377  -0.00400231  0.00550175  1
  In  In26  1  0.15393158  0.49017789  0.69333900  1
  In  In27  1  0.50589452  0.17496579  -0.00019767  1
  In  In28  1  0.49762990  0.67589569  0.16618334  1
  In  In29  1  0.52378077  0.82435600  0.67701471  1
  In  In30  1  0.69166275  0.83213850  0.49687603  1
  In  In31  1  0.15116506  0.17198173  0.69088836  1
  In  In32  1  0.17301056  -0.01870812  0.51863411  1
  In  In33  1  0.14254620  0.81220677  0.65618159  1
  In  In34  1  0.48120910  0.34454144  0.16450517  1
  In  In35  1  0.52771554  0.35462588  0.52878592  1
  In  In36  1  0.65344255  0.69145707  -0.02411182  1
  In  In37  1  0.01124997  0.51742236  0.15217319  1
  In  In38  1  0.86296619  -0.00434513  0.53455973  1
  In  In39  1  0.86330817  -0.02467307  0.81939306  1
  In  In40  1  0.18494322  0.33123796  0.49979272  1
  In  In41  1  0.67466254  -0.00523665  0.65866014  1
  In  In42  1  -0.02930440  0.16016389  0.15118008  1
  In  In43  1  0.30755645  0.66565950  -0.01055019  1
  In  In44  1  0.33326137  0.66923444  0.32571676  1
  In  In45  1  -0.01319254  0.33284391  0.34508534  1
  In  In46  1  0.84652809  0.67537720  0.82128866  1
  In  In47  1  0.83448026  0.33073083  0.17024694  1
  In  In48  1  0.81382150  -0.01202303  0.16011690  1
  In  In49  1  0.33344690  0.51626778  0.83975795  1
  In  In50  1  0.82323979  0.17486721  -0.01054431  1
  In  In51  1  0.67922749  0.67153464  0.34729227  1
  In  In52  1  0.50958349  0.18481659  0.36028413  1
  In  In53  1  0.34228436  0.17407923  0.48255051  1
  In  In54  1  0.27436833  0.01347678  0.34452041  1
  In  In55  1  0.32115524  0.34001234  0.66352608  1
  In  In56  1  -0.03353889  0.34940775  0.65897800  1
  In  In57  1  0.47789890  0.82467604  0.33903902  1
  In  In58  1  0.52413703  0.01146588  0.15928686  1
  In  In59  1  0.68236183  0.85294672  0.14637480  1
  In  In60  1  0.83438315  0.33370492  0.51125452  1
  In  In61  1  0.32390580  0.81024589  0.80156177  1
  In  In62  1  0.35237435  0.33864909  0.31912822  1
  In  In63  1  0.49946346  0.50543847  0.35599945  1
  In  In64  1  0.14218248  0.65379507  0.85020910  1
  In  In65  1  0.86185686  0.80027581  0.31175552  1
  In  In66  1  0.01687927  -0.00704314  0.36013398  1
  In  In67  1  0.31716633  0.35142879  -0.01382037  1
  In  In68  1  0.34139734  -0.00351842  0.66681716  1
  In  In69  1  0.85643700  0.48820653  -0.02745184  1
  In  In70  1  0.36369508  0.64070574  0.63732541  1
  In  In71  1  0.85857033  0.81595760  -0.00088149  1
  Te  Te72  1  0.07273263  0.08411364  0.06869355  1
  Te  Te73  1  0.08483165  0.09037622  0.45404908  1
  Te  Te74  1  0.06712118  0.04684770  0.72575876  1
  Te  Te75  1  0.06741046  0.41482694  0.06016184  1
  Te  Te76  1  0.09147293  0.41868424  0.41474188  1
  Te  Te77  1  0.05840624  0.40364013  0.76752763  1
  Te  Te78  1  0.03028848  0.78132112  0.05870238  1
  Te  Te79  1  0.04489756  0.72732188  0.42839293  1
  Te  Te80  1  0.05802877  0.74891921  0.76597103  1
  Te  Te81  1  0.41718961  0.06900145  0.06268874  1
  Te  Te82  1  0.41352991  0.06115414  0.40916249  1
  Te  Te83  1  0.42845275  0.05952589  0.77520170  1
  Te  Te84  1  0.42039598  0.43549423  0.05883778  1
  Te  Te85  1  0.41330224  0.40754888  0.43709143  1
  Te  Te86  1  0.41496054  0.42622530  0.74615452  1
  Te  Te87  1  0.40290831  0.75253247  0.07897371  1
  Te  Te88  1  0.42542059  0.72186893  0.42765568  1
  Te  Te89  1  0.43487300  0.72055511  0.74522636  1
  Te  Te90  1  0.74253347  0.10737546  0.09920981  1
  Te  Te91  1  0.77042652  0.09136682  0.45133661  1
  Te  Te92  1  0.76362438  0.07387900  0.75399282  1
  Te  Te93  1  0.75122865  0.43515890  0.08645492  1
  Te  Te94  1  0.74360082  0.41664347  0.43173534  1
  Te  Te95  1  0.74543233  0.40156904  0.68432184  1
  Te  Te96  1  0.75237580  0.73767630  0.08398856  1
  Te  Te97  1  0.79067917  0.73393750  0.43385747  1
  Te  Te98  1  0.74247643  0.75686982  0.75789104  1
  Te  Te99  1  0.06700513  0.23946708  0.24798973  1
  Te  Te100  1  0.08492526  0.27130727  0.59499394  1
  Te  Te101  1  0.07205786  0.25584056  0.91107761  1
  Te  Te102  1  0.05108605  0.63313322  0.24058535  1
  Te  Te103  1  0.06891203  0.58175655  0.60797905  1
  Te  Te104  1  0.10737217  0.54804527  0.94742321  1
  Te  Te105  1  0.08531333  0.90053558  0.26170991  1
  Te  Te106  1  0.05933358  0.89124886  0.55821169  1
  Te  Te107  1  0.02979103  0.88857032  0.95181775  1
  Te  Te108  1  0.42102967  0.22777865  0.24205889  1
  Te  Te109  1  0.41931337  0.24317843  0.59580078  1
  Te  Te110  1  0.39878572  0.23926241  0.90808382  1
  Te  Te111  1  0.41432014  0.56828221  0.23696387  1
  Te  Te112  1  0.46612407  0.55833710  0.56941419  1
  Te  Te113  1  0.42008751  0.59988357  0.92242179  1
  Te  Te114  1  0.42307612  0.92410291  0.23810833  1
  Te  Te115  1  0.41290021  0.89098099  0.58627912  1
  Te  Te116  1  0.42076974  0.87464160  0.89821775  1
  Te  Te117  1  0.75017870  0.26233187  0.26755345  1
  Te  Te118  1  0.77097939  0.26023277  0.62225231  1
  Te  Te119  1  0.77713124  0.28043604  0.88812820  1
  Te  Te120  1  0.77096689  0.59006986  0.25711771  1
  Te  Te121  1  0.79199574  0.60722473  0.55845066  1
  Te  Te122  1  0.74808050  0.58631591  0.91193690  1
  Te  Te123  1  0.74502478  0.90974566  0.27697217  1
  Te  Te124  1  0.77546331  0.89371531  0.60714703  1
  Te  Te125  1  0.76433170  0.90228733  0.91166023  1
  Te  Te126  1  0.25380454  0.26066837  0.08974840  1
  Te  Te127  1  0.24596319  0.24295521  0.38641750  1
  Te  Te128  1  0.23023953  0.27954253  0.76807774  1
  Te  Te129  1  0.20153076  0.60406830  0.07680414  1
  Te  Te130  1  0.24211366  0.57910356  0.40785274  1
  Te  Te131  1  0.24893427  0.60424736  0.74429582  1
  Te  Te132  1  0.23298412  0.90958061  0.04998540  1
  Te  Te133  1  0.25559735  0.88942580  0.42814092  1
  Te  Te134  1  0.23183891  0.92014124  0.73916285  1
  Te  Te135  1  0.58939119  0.26929599  0.08274288  1
  Te  Te136  1  0.60200076  0.26200835  0.44243248  1
  Te  Te137  1  0.58462174  0.26424207  0.75058099  1
  Te  Te138  1  0.58529401  0.59076621  0.07779880  1
  Te  Te139  1  0.59263795  0.58904329  0.43426534  1
  Te  Te140  1  0.59600505  0.57592447  0.74193285  1
  Te  Te141  1  0.57175065  0.90651411  0.05765700  1
  Te  Te142  1  0.58353209  0.91700974  0.42194115  1
  Te  Te143  1  0.57853987  0.93722117  0.75308670  1
  Te  Te144  1  0.92000799  0.27056886  0.06021003  1
  Te  Te145  1  0.93325369  0.23724827  0.44920600  1
  Te  Te146  1  0.90676886  0.22380727  0.71995255  1
  Te  Te147  1  0.91382993  0.59203777  0.06345033  1
  Te  Te148  1  0.95505277  0.58297544  0.42567479  1
  Te  Te149  1  0.93162787  0.56915030  0.76303740  1
  Te  Te150  1  0.92308037  0.92704331  0.08153567  1
  Te  Te151  1  0.90506241  0.90815509  0.41417820  1
  Te  Te152  1  0.94211505  0.86178133  0.76075645  1
  Te  Te153  1  0.25312580  0.08125527  0.21029568  1
  Te  Te154  1  0.25503378  0.10084722  0.58682005  1
  Te  Te155  1  0.22736183  0.07397626  0.89532060  1
  Te  Te156  1  0.24897490  0.42595688  0.24582354  1
  Te  Te157  1  0.24928609  0.44362372  0.57966715  1
  Te  Te158  1  0.22471864  0.44575837  0.91729476  1
  Te  Te159  1  0.23692140  0.74651715  0.23807286  1
  Te  Te160  1  0.25560384  0.74000001  0.58266048  1
  Te  Te161  1  0.22550866  0.76618341  0.90908104  1
  Te  Te162  1  0.59548664  0.10464567  0.25593029  1
  Te  Te163  1  0.60041573  0.10050217  0.57502815  1
  Te  Te164  1  0.60017457  0.08661928  0.92105067  1
  Te  Te165  1  0.57719463  0.41219786  0.26230359  1
  Te  Te166  1  0.58370502  0.46545998  0.61077149  1
  Te  Te167  1  0.59265411  0.43864994  0.90666718  1
  Te  Te168  1  0.59182568  0.75929663  0.25229811  1
  Te  Te169  1  0.59939697  0.74313159  0.57468979  1
  Te  Te170  1  0.56508541  0.79552100  0.92729344  1
  Te  Te171  1  0.91839294  0.06868614  0.26162498  1
  Te  Te172  1  0.94163217  0.06946020  0.63342223  1
  Te  Te173  1  0.91660506  0.07913285  0.91938871  1
  Te  Te174  1  0.92060711  0.43011249  0.24969179  1
  Te  Te175  1  0.86431823  0.49305052  0.63188469  1
  Te  Te176  1  0.91575428  0.44202602  0.84425927  1
  Te  Te177  1  0.94664937  0.75157727  0.20224307  1
  Te  Te178  1  0.96829116  0.78494049  0.62883868  1
  Te  Te179  1  0.94133706  0.69829011  0.94548478  1
