# generated using pymatgen
data_In2Te3
_symmetry_space_group_name_H-M   'P 1'
_cell_length_a   18.75999043
_cell_length_b   18.76761660
_cell_length_c   18.75834267
_cell_angle_alpha   89.96903242
_cell_angle_beta   89.96700123
_cell_angle_gamma   90.01935034
_symmetry_Int_Tables_number   1
_chemical_formula_structural   In2Te3
_chemical_formula_sum   'In72 Te108'
_cell_volume   6604.44062308
_cell_formula_units_Z   36
loop_
 _symmetry_equiv_pos_site_id
 _symmetry_equiv_pos_as_xyz
  1  'x, y, z'
loop_
 _atom_site_type_symbol
 _atom_site_label
 _atom_site_symmetry_multiplicity
 _atom_site_fract_x
 _atom_site_fract_y
 _atom_site_fract_z
 _atom_site_occupancy
  In  In0  1  0.66667174  0.64865098  0.33005586  1
  In  In1  1  0.49612637  0.01409386  0.78742822  1
  In  In2  1  0.00947682  0.02341890  0.36432802  1
  In  In3  1  0.16039437  0.84759222  0.67169729  1
  In  In4  1  0.51010554  0.84133812  0.35314176  1
  In  In5  1  0.32832773  0.29305136  0.64366899  1
  In  In6  1  0.18681093  0.50552432  -0.00922993  1
  In  In7  1  0.51783600  0.01600311  0.52958347  1
  In  In8  1  0.49643562  0.49510580  0.66353379  1
  In  In9  1  0.00981136  0.47786672  0.83048706  1
  In  In10  1  0.31298577  0.32187611  0.37080326  1
  In  In11  1  0.85917469  0.49517999  -0.02474159  1
  In  In12  1  0.84990564  0.17706838  0.36302054  1
  In  In13  1  0.34142493  0.84872272  0.50165734  1
  In  In14  1  0.67459929  0.31737067  -0.02402582  1
  In  In15  1  0.16142659  0.00583452  0.83100718  1
  In  In16  1  0.49941474  0.14896710  -0.03572025  1
  In  In17  1  0.00214753  0.65240359  0.64561359  1
  In  In18  1  0.01047644  0.00335591  0.66561688  1
  In  In19  1  0.67939361  0.85020966  0.52684582  1
  In  In20  1  0.69322193  0.83726649  0.18167638  1
  In  In21  1  0.15983817  0.48891910  0.34149795  1
  In  In22  1  0.13487128  0.32587921  0.51554133  1
  In  In23  1  0.48643177  0.82935047  -0.02078735  1
  In  In24  1  0.14607160  0.83653751  0.35380725  1
  In  In25  1  0.35210155  0.30474685  -0.02256801  1
  In  In26  1  0.50694389  0.17193931  0.35908642  1
  In  In27  1  0.00547689  0.17935861  0.19378680  1
  In  In28  1  0.68494410  0.46587928  0.82034242  1
  In  In29  1  0.82204378  0.00138373  0.49572574  1
  In  In30  1  0.82749147  0.64891908  0.82828214  1
  In  In31  1  0.02129433  0.70538431  0.03041984  1
  In  In32  1  0.31242149  0.83929795  0.14805472  1
  In  In33  1  0.53611455  0.48687265  0.00117253  1
  In  In34  1  0.49555332  0.01612555  0.16533107  1
  In  In35  1  -0.01612683  0.85636936  0.81845837  1
  In  In36  1  0.83661992  0.83999600  0.00312137  1
  In  In37  1  0.17842595  -0.00483809  0.17673612  1
  In  In38  1  0.32336533  0.52191658  0.15813966  1
  In  In39  1  0.31868524  0.84697864  0.81313715  1
  In  In40  1  0.31406625  0.49876516  0.80288906  1
  In  In41  1  0.17240885  0.17231851  -0.01646886  1
  In  In42  1  0.82354588  0.66767604  0.18516780  1
  In  In43  1  0.49229910  0.67357673  0.83486639  1
  In  In44  1  0.67807776  0.32011843  0.36169466  1
  In  In45  1  0.67012725  0.30626971  0.67373555  1
  In  In46  1  0.01556325  0.34309234  -0.01820258  1
  In  In47  1  0.33494891  0.67322335  -0.00911631  1
  In  In48  1  0.67545639  0.52038556  0.16457747  1
  In  In49  1  0.49896410  0.35384621  0.17015418  1
  In  In50  1  0.15204556  0.31835963  0.78863726  1
  In  In51  1  0.84623212  0.18162918  0.67678372  1
  In  In52  1  0.85071290  0.34408195  0.16878181  1
  In  In53  1  0.66271335  0.84887953  0.81913111  1
  In  In54  1  0.66816462  0.15645776  0.14966169  1
  In  In55  1  0.83073343  0.16054161  -0.02975280  1
  In  In56  1  -0.01363209  0.50130812  0.19665513  1
  In  In57  1  0.31742008  0.66620777  0.68839619  1
  In  In58  1  0.31506432  0.01542736  0.33621798  1
  In  In59  1  0.32905236  0.65285506  0.32761096  1
  In  In60  1  0.18559350  0.65949912  0.83616065  1
  In  In61  1  0.13942237  0.31765102  0.18973880  1
  In  In62  1  0.48632407  0.49438898  0.35643484  1
  In  In63  1  0.84413735  0.84395105  0.33123672  1
  In  In64  1  0.67492937  0.48907984  0.49500771  1
  In  In65  1  0.33098969  0.49349691  0.48548935  1
  In  In66  1  -0.01621112  0.00729867  0.00283594  1
  In  In67  1  0.32861072  0.15579159  0.17233315  1
  In  In68  1  -0.00455475  0.67063649  0.35424563  1
  In  In69  1  0.83956595  0.66710972  0.50613689  1
  In  In70  1  0.66819876  -0.00309916  -0.00683915  1
  In  In71  1  0.66630466  0.67729296  0.65132797  1
  Te  Te72  1  0.08655999  0.09828997  0.09054450  1
  Te  Te73  1  0.09981354  0.09853096  0.46057426  1
  Te  Te74  1  0.10262938  0.10313297  0.73086763  1
  Te  Te75  1  0.08572362  0.42930712  0.08899394  1
  Te  Te76  1  0.06671288  0.44576986  0.45104783  1
  Te  Te77  1  0.05398355  0.40036090  0.70800326  1
  Te  Te78  1  0.13669630  0.76217118  0.09719724  1
  Te  Te79  1  0.07531787  0.75051362  0.45117112  1
  Te  Te80  1  0.08145851  0.74764649  0.76133384  1
  Te  Te81  1  0.40178628  0.07800614  0.06280635  1
  Te  Te82  1  0.41000127  0.08218674  0.43429340  1
  Te  Te83  1  0.41004748  0.11057845  0.71281242  1
  Te  Te84  1  0.40101196  0.42662426  0.06362924  1
  Te  Te85  1  0.43284517  0.38044957  0.44375800  1
  Te  Te86  1  0.40421871  0.39745966  0.73668327  1
  Te  Te87  1  0.42192559  0.74779986  0.09232269  1
  Te  Te88  1  0.41559600  0.74168447  0.41981265  1
  Te  Te89  1  0.42492546  0.76662534  0.73690460  1
  Te  Te90  1  0.77155550  0.06913281  0.08079366  1
  Te  Te91  1  0.73625850  0.10747007  0.43153014  1
  Te  Te92  1  0.74733124  0.11423213  0.76767643  1
  Te  Te93  1  0.74694324  0.41202551  0.07317274  1
  Te  Te94  1  0.77756740  0.40162388  0.43317303  1
  Te  Te95  1  0.77081943  0.41099069  0.71483842  1
  Te  Te96  1  0.74467526  0.73949952  0.07575857  1
  Te  Te97  1  0.74455705  0.75320612  0.41179995  1
  Te  Te98  1  0.76046057  0.75522352  0.74254894  1
  Te  Te99  1  0.06227692  0.26387691  0.30480410  1
  Te  Te100  1  0.03581784  0.23569408  0.59009383  1
  Te  Te101  1  0.06976199  0.23405442  0.88993705  1
  Te  Te102  1  0.08993161  0.59518822  0.25503411  1
  Te  Te103  1  0.11001956  0.57055482  0.58948329  1
  Te  Te104  1  0.07360839  0.58491918  0.92152906  1
  Te  Te105  1  0.06896634  0.92692424  0.25733891  1
  Te  Te106  1  0.07342198  0.90797555  0.56918611  1
  Te  Te107  1  0.07827663  0.91505335  0.92209216  1
  Te  Te108  1  0.41609701  0.25029801  0.25653564  1
  Te  Te109  1  0.44441792  0.20695870  0.59524844  1
  Te  Te110  1  0.41395099  0.22618960  0.86940021  1
  Te  Te111  1  0.43520559  0.58353860  0.24184979  1
  Te  Te112  1  0.40345616  0.58683938  0.58674882  1
  Te  Te113  1  0.40916342  0.56689826  0.90688220  1
  Te  Te114  1  0.41152600  0.92339393  0.25664226  1
  Te  Te115  1  0.41127009  0.93617736  0.59864351  1
  Te  Te116  1  0.41635040  0.93222430  0.89623662  1
  Te  Te117  1  0.75329222  0.24675063  0.24083393  1
  Te  Te118  1  0.75575805  0.23895999  0.56956385  1
  Te  Te119  1  0.74051712  0.23197965  0.86861872  1
  Te  Te120  1  0.77562564  0.55440453  0.27631319  1
  Te  Te121  1  0.75883742  0.57035523  0.59515590  1
  Te  Te122  1  0.73572707  0.57008479  0.92247562  1
  Te  Te123  1  0.75346013  0.94069000  0.26552065  1
  Te  Te124  1  0.75039784  0.94684124  0.61618087  1
  Te  Te125  1  0.76756046  0.92786149  0.89925548  1
  Te  Te126  1  0.24962501  0.26743835  0.08803899  1
  Te  Te127  1  0.24201520  0.21796851  0.45975852  1
  Te  Te128  1  0.22762094  0.20710072  0.71813987  1
  Te  Te129  1  0.22474360  0.61712084  0.09112877  1
  Te  Te130  1  0.23152972  0.59522147  0.42884328  1
  Te  Te131  1  0.19884916  0.55855104  0.71658216  1
  Te  Te132  1  0.25272624  0.94097681  0.06085261  1
  Te  Te133  1  0.23279244  0.93384573  0.43519354  1
  Te  Te134  1  0.25915494  0.95266384  0.72096262  1
  Te  Te135  1  0.56876945  0.24526540  0.07201983  1
  Te  Te136  1  0.60971676  0.22452760  0.45584686  1
  Te  Te137  1  0.54969235  0.22353119  0.71767977  1
  Te  Te138  1  0.57535632  0.59760721  0.08827060  1
  Te  Te139  1  0.57378860  0.59044338  0.43701240  1
  Te  Te140  1  0.58708386  0.58006625  0.75533849  1
  Te  Te141  1  0.57636744  0.91273475  0.08486717  1
  Te  Te142  1  0.60163277  0.93715488  0.42481624  1
  Te  Te143  1  0.59040785  0.92382567  0.71416253  1
  Te  Te144  1  0.92346810  0.24936554  0.07283453  1
  Te  Te145  1  0.92718664  0.25061001  0.46969938  1
  Te  Te146  1  0.92439976  0.28310430  0.75770604  1
  Te  Te147  1  0.91661010  0.58516057  0.08542439  1
  Te  Te148  1  0.92185474  0.56749362  0.43246002  1
  Te  Te149  1  0.91732820  0.56339245  0.74088122  1
  Te  Te150  1  0.92548882  0.90969540  0.09748058  1
  Te  Te151  1  0.93184707  0.91062171  0.43601540  1
  Te  Te152  1  0.89387215  0.93113688  0.72895142  1
  Te  Te153  1  0.21868517  0.11299144  0.26902151  1
  Te  Te154  1  0.21918779  0.09754308  0.55196290  1
  Te  Te155  1  0.26237180  0.08541920  0.90696621  1
  Te  Te156  1  0.26614844  0.41727647  0.25511515  1
  Te  Te157  1  0.24796171  0.40887552  0.58095084  1
  Te  Te158  1  0.23943271  0.39341750  0.89902038  1
  Te  Te159  1  0.24461655  0.76148212  0.26102998  1
  Te  Te160  1  0.24894527  0.75540825  0.58595085  1
  Te  Te161  1  0.24161800  0.77265316  0.92232553  1
  Te  Te162  1  0.59080238  0.08466409  0.26118944  1
  Te  Te163  1  0.59188004  0.11060751  0.61896233  1
  Te  Te164  1  0.60697467  0.08008687  0.88027667  1
  Te  Te165  1  0.59764159  0.42264915  0.26623006  1
  Te  Te166  1  0.58360623  0.40297495  0.58254697  1
  Te  Te167  1  0.56893015  0.38994281  0.88961129  1
  Te  Te168  1  0.58531414  0.75354746  0.25221582  1
  Te  Te169  1  0.57213914  0.76032512  0.57538724  1
  Te  Te170  1  0.59879743  0.74710161  0.91569491  1
  Te  Te171  1  0.90794838  0.08091815  0.25931230  1
  Te  Te172  1  0.92226107  0.09019937  0.57236637  1
  Te  Te173  1  0.92416739  0.07991091  0.88934017  1
  Te  Te174  1  0.94161745  0.38535879  0.28009879  1
  Te  Te175  1  0.95578186  0.36361794  0.57453108  1
  Te  Te176  1  0.89583555  0.37511205  0.88229169  1
  Te  Te177  1  0.93212836  0.75683936  0.24107474  1
  Te  Te178  1  0.91403420  0.75871976  0.59468958  1
  Te  Te179  1  0.91845066  0.74047109  0.91395519  1
