# generated using pymatgen
data_In2Te3
_symmetry_space_group_name_H-M   'P 1'
_cell_length_a   18.89998960
_cell_length_b   18.91490555
_cell_length_c   18.91768284
_cell_angle_alpha   90.00218399
_cell_angle_beta   89.86774781
_cell_angle_gamma   89.88735745
_symmetry_Int_Tables_number   1
_chemical_formula_structural   In2Te3
_chemical_formula_sum   'In72 Te108'
_cell_volume   6762.88006668
_cell_formula_units_Z   36
loop_
 _symmetry_equiv_pos_site_id
 _symmetry_equiv_pos_as_xyz
  1  'x, y, z'
loop_
 _atom_site_type_symbol
 _atom_site_label
 _atom_site_symmetry_multiplicity
 _atom_site_fract_x
 _atom_site_fract_y
 _atom_site_fract_z
 _atom_site_occupancy
  In  In0  1  0.62888892  0.51991592  0.80615700  1
  In  In1  1  0.00153312  0.50829106  0.83440856  1
  In  In2  1  0.50661822  0.17288429  0.33774293  1
  In  In3  1  0.86529803  0.67657172  0.16240298  1
  In  In4  1  -0.01353509  0.83747488  0.51718750  1
  In  In5  1  0.19691577  0.51390835  0.32919801  1
  In  In6  1  0.48280994  0.65232355  0.18101533  1
  In  In7  1  0.83848185  0.66548051  0.83667133  1
  In  In8  1  0.01779010  0.52588166  0.16194359  1
  In  In9  1  0.02061282  -0.01874183  0.32822732  1
  In  In10  1  0.00344899  0.15885116  0.83577312  1
  In  In11  1  0.68109479  0.15041869  0.18329362  1
  In  In12  1  0.48949551  -0.13498911  0.17375257  1
  In  In13  1  0.15006958  0.02702499  0.49997918  1
  In  In14  1  0.83672032  0.30857568  0.17725709  1
  In  In15  1  0.81065911  0.15868773  0.65861116  1
  In  In16  1  0.19292321  0.52270113  0.68009854  1
  In  In17  1  0.33787666  0.81260498  0.49994190  1
  In  In18  1  0.00166571  0.35950274  0.67049679  1
  In  In19  1  0.36136633  0.51001395  0.83985932  1
  In  In20  1  0.19800567  0.69036958  0.16599203  1
  In  In21  1  0.18047569  0.83544664  0.34154868  1
  In  In22  1  0.83659708  0.17423341  0.34047848  1
  In  In23  1  0.81921574  0.00185572  0.52552301  1
  In  In24  1  -0.00198412  -0.01157205  0.68039197  1
  In  In25  1  0.51141069  0.67155090  0.50130272  1
  In  In26  1  0.64861061  0.18458570  0.50827700  1
  In  In27  1  0.16663609  0.15687765  -0.01723024  1
  In  In28  1  0.81475567  0.83700273  0.66711975  1
  In  In29  1  0.33252394  0.13939661  0.16320308  1
  In  In30  1  0.17451861  0.81919435  -0.02396307  1
  In  In31  1  0.32845109  -0.01590858  0.67858472  1
  In  In32  1  0.35060805  0.52634514  0.51330457  1
  In  In33  1  0.36840108  0.19821733  0.52921698  1
  In  In34  1  0.83249398  0.15999532  0.02300801  1
  In  In35  1  0.15178821  0.80327931  0.70740462  1
  In  In36  1  -0.01121699  0.51069418  0.49464577  1
  In  In37  1  0.17951454  0.35965301  0.18962588  1
  In  In38  1  0.66031378  0.14462658  0.83454858  1
  In  In39  1  0.49952129  0.32395092  0.82204397  1
  In  In40  1  0.49487687  0.33864152  0.16081591  1
  In  In41  1  0.01916569  -0.01749878  0.00025050  1
  In  In42  1  0.66648622  0.83001958  0.84027888  1
  In  In43  1  0.33208116  0.67763148  -0.00621255  1
  In  In44  1  0.18248350  0.13991419  0.31222881  1
  In  In45  1  0.64493357  0.50489578  0.17676653  1
  In  In46  1  0.63340014  -0.01356241  0.35084866  1
  In  In47  1  0.63450040  0.48917926  0.51941091  1
  In  In48  1  -0.02080818  0.34564730  0.33837559  1
  In  In49  1  0.65786054  0.66303613  0.33452821  1
  In  In50  1  0.17478846  0.65151404  0.49065164  1
  In  In51  1  0.32955607  0.35019470  0.02391447  1
  In  In52  1  0.00658643  0.16076287  0.15414728  1
  In  In53  1  0.16711715  0.33852255  0.51449309  1
  In  In54  1  0.81492395  0.51532806  0.36858080  1
  In  In55  1  0.16630150  0.18140148  0.67863842  1
  In  In56  1  0.83123257  0.36374752  0.81975040  1
  In  In57  1  0.83440578  0.50512371  0.02209241  1
  In  In58  1  0.65491605  -0.01017194  0.67580997  1
  In  In59  1  0.48421278  -0.01470141  0.48503031  1
  In  In60  1  0.32839177  0.34745044  0.35480288  1
  In  In61  1  0.50828482  0.69281523  0.82616923  1
  In  In62  1  0.16681733  0.52135278  -0.01828580  1
  In  In63  1  0.33098962  0.15413983  0.81351321  1
  In  In64  1  0.81337864  0.81774169  0.33450022  1
  In  In65  1  0.78695078  0.50242874  0.66090340  1
  In  In66  1  0.83410695  0.82674848  -0.01731033  1
  In  In67  1  0.66607196  0.33180700  -0.02631689  1
  In  In68  1  0.51368452  0.15889903  -0.01546439  1
  In  In69  1  0.66444035  0.68734720  -0.02552930  1
  In  In70  1  0.81840200  -0.01090252  0.15360783  1
  In  In71  1  0.37019617  -0.04032791  -0.01016437  1
  Te  Te72  1  0.10743857  0.06772978  0.09189395  1
  Te  Te73  1  0.06411175  0.10603527  0.40284330  1
  Te  Te74  1  0.10068800  0.07099291  0.75911778  1
  Te  Te75  1  0.09410492  0.42245404  0.08085323  1
  Te  Te76  1  0.09772258  0.42751960  0.40741212  1
  Te  Te77  1  0.10454142  0.42328894  0.75880771  1
  Te  Te78  1  0.09567021  0.73865857  0.07288971  1
  Te  Te79  1  0.08244281  0.75591236  0.42912982  1
  Te  Te80  1  0.05029961  0.72594287  0.78039595  1
  Te  Te81  1  0.43735456  0.06852977  0.08167169  1
  Te  Te82  1  0.40315240  0.09665437  0.41917494  1
  Te  Te83  1  0.42906651  0.07206587  0.74195975  1
  Te  Te84  1  0.44080665  0.43544277  0.06511325  1
  Te  Te85  1  0.42184613  0.41221834  0.44768029  1
  Te  Te86  1  0.43275559  0.42829532  0.73619435  1
  Te  Te87  1  0.40165575  0.75641398  0.10198876  1
  Te  Te88  1  0.43147537  0.75193463  0.40183537  1
  Te  Te89  1  0.40143467  0.77852007  0.77031829  1
  Te  Te90  1  0.72152617  0.06420090  0.06287933  1
  Te  Te91  1  0.73565534  0.08181827  0.41599413  1
  Te  Te92  1  0.76400854  0.05700721  0.75829879  1
  Te  Te93  1  0.74196163  0.40026324  0.08873511  1
  Te  Te94  1  0.73284819  0.41538896  0.43280326  1
  Te  Te95  1  0.70675237  0.40244236  0.74341703  1
  Te  Te96  1  0.75428262  0.74673067  0.08282136  1
  Te  Te97  1  0.74421989  0.73281313  0.43415228  1
  Te  Te98  1  0.73609937  0.73185657  0.74685864  1
  Te  Te99  1  0.07608146  0.25845827  0.24895712  1
  Te  Te100  1  0.06734708  0.25037684  0.58527135  1
  Te  Te101  1  0.09201290  0.25348573  0.90336276  1
  Te  Te102  1  0.10117818  0.60708236  0.25810658  1
  Te  Te103  1  0.08301186  0.58167735  0.59095981  1
  Te  Te104  1  0.09221211  0.61386227  0.88943006  1
  Te  Te105  1  0.08890761  0.89013217  0.23822606  1
  Te  Te106  1  0.10082220  0.91502752  0.59219501  1
  Te  Te107  1  0.10374253  0.92329669  0.89488182  1
  Te  Te108  1  0.39830931  0.24825958  0.24973666  1
  Te  Te109  1  0.47640273  0.26894997  0.60221430  1
  Te  Te110  1  0.40933060  0.25406093  0.93049609  1
  Te  Te111  1  0.40139483  0.56467819  0.26487784  1
  Te  Te112  1  0.41711603  0.62138806  0.60456426  1
  Te  Te113  1  0.44643756  0.60089157  0.92769749  1
  Te  Te114  1  0.38095069  0.91215563  0.26226714  1
  Te  Te115  1  0.42249227  0.89742415  0.59367394  1
  Te  Te116  1  0.43625039  0.86989959  0.88310881  1
  Te  Te117  1  0.72923140  0.26177733  0.27489264  1
  Te  Te118  1  0.74692033  0.26471800  0.58200268  1
  Te  Te119  1  0.76733154  0.24092761  0.90509457  1
  Te  Te120  1  0.76184355  0.58520885  0.23582631  1
  Te  Te121  1  0.73348545  0.59290376  0.55910286  1
  Te  Te122  1  0.74329291  0.56328023  0.91368309  1
  Te  Te123  1  0.73039239  0.91551155  0.25360533  1
  Te  Te124  1  0.71318565  0.90020573  0.55836847  1
  Te  Te125  1  0.75792038  0.92435874  0.90451556  1
  Te  Te126  1  0.24164053  0.24725966  0.09955012  1
  Te  Te127  1  0.23644043  0.24150383  0.41459651  1
  Te  Te128  1  0.26906120  0.26458474  0.74004967  1
  Te  Te129  1  0.26240119  0.57697889  0.08415942  1
  Te  Te130  1  0.29078792  0.61235160  0.39576303  1
  Te  Te131  1  0.26655543  0.60814051  0.77643871  1
  Te  Te132  1  0.26179618  0.89869252  0.06601571  1
  Te  Te133  1  0.24871043  0.92701815  0.44204509  1
  Te  Te134  1  0.23504633  0.91071414  0.76877951  1
  Te  Te135  1  0.59708075  0.24253063  0.08517382  1
  Te  Te136  1  0.56144051  0.27375011  0.42843629  1
  Te  Te137  1  0.57979786  0.22771191  0.74144318  1
  Te  Te138  1  0.58755393  0.59819941  0.07506076  1
  Te  Te139  1  0.56566324  0.56684466  0.40433542  1
  Te  Te140  1  0.56602739  0.61569700  0.71327571  1
  Te  Te141  1  0.58266372  0.91003889  0.07072290  1
  Te  Te142  1  0.55336522  0.87066282  0.40781261  1
  Te  Te143  1  0.56974229  0.89316272  0.74761225  1
  Te  Te144  1  0.93428920  0.26270958  0.06800435  1
  Te  Te145  1  0.90946780  0.26008691  0.43351829  1
  Te  Te146  1  0.91322530  0.25546471  0.74838812  1
  Te  Te147  1  0.94411636  0.60520353  0.05302764  1
  Te  Te148  1  0.92916645  0.60062756  0.39621911  1
  Te  Te149  1  0.90308115  0.57017727  0.73771789  1
  Te  Te150  1  0.92131680  0.90196936  0.08585288  1
  Te  Te151  1  0.90620330  0.93118186  0.41716607  1
  Te  Te152  1  0.91418425  0.89725090  0.75895053  1
  Te  Te153  1  0.26650850  0.03560506  0.24888707  1
  Te  Te154  1  0.25881687  0.09597818  0.58346478  1
  Te  Te155  1  0.27734034  0.07104185  0.92792284  1
  Te  Te156  1  0.30109656  0.44672359  0.23428690  1
  Te  Te157  1  0.26527399  0.42061312  0.59116982  1
  Te  Te158  1  0.25800582  0.42101057  0.91061264  1
  Te  Te159  1  0.28727963  0.78605031  0.24532924  1
  Te  Te160  1  0.23850429  0.74315019  0.59346947  1
  Te  Te161  1  0.26138901  0.73959945  0.87766660  1
  Te  Te162  1  0.56604533  0.07009214  0.24248182  1
  Te  Te163  1  0.57387215  0.07056228  0.57529200  1
  Te  Te164  1  0.55431209  0.05641277  0.88659851  1
  Te  Te165  1  0.56097998  0.42175346  0.26234180  1
  Te  Te166  1  0.52932928  0.41632679  0.59902336  1
  Te  Te167  1  0.56837296  0.42834030  0.91592224  1
  Te  Te168  1  0.58959835  0.74784959  0.23045048  1
  Te  Te169  1  0.60192741  0.78669531  0.53359827  1
  Te  Te170  1  0.55749561  0.79979391  0.97020641  1
  Te  Te171  1  0.90906808  0.08149525  0.24048380  1
  Te  Te172  1  0.92789489  0.08646575  0.58733401  1
  Te  Te173  1  0.91933286  0.07481366  0.93017311  1
  Te  Te174  1  0.91479966  0.42955033  0.23010776  1
  Te  Te175  1  0.89921129  0.42638742  0.58227209  1
  Te  Te176  1  0.92086841  0.41836453  0.92871450  1
  Te  Te177  1  0.92850491  0.76690618  0.25830483  1
  Te  Te178  1  0.90258823  0.74521178  0.59153786  1
  Te  Te179  1  0.93712261  0.76526086  0.89000316  1
