# generated using pymatgen
data_In2Te3
_symmetry_space_group_name_H-M   'P 1'
_cell_length_a   18.79558022
_cell_length_b   18.78272486
_cell_length_c   18.79015281
_cell_angle_alpha   89.98110151
_cell_angle_beta   89.88105168
_cell_angle_gamma   90.04230757
_symmetry_Int_Tables_number   1
_chemical_formula_structural   In2Te3
_chemical_formula_sum   'In72 Te108'
_cell_volume   6633.51273869
_cell_formula_units_Z   36
loop_
 _symmetry_equiv_pos_site_id
 _symmetry_equiv_pos_as_xyz
  1  'x, y, z'
loop_
 _atom_site_type_symbol
 _atom_site_label
 _atom_site_symmetry_multiplicity
 _atom_site_fract_x
 _atom_site_fract_y
 _atom_site_fract_z
 _atom_site_occupancy
  In  In0  1  0.67269705  0.01928315  0.32120990  1
  In  In1  1  0.00989122  0.50298241  0.48032515  1
  In  In2  1  0.00363482  0.65692165  -0.00757373  1
  In  In3  1  0.35892471  0.15578493  0.17459093  1
  In  In4  1  0.02468543  0.14107470  0.53089211  1
  In  In5  1  0.81829362  0.83826042  0.00564720  1
  In  In6  1  0.49959885  0.50667861  0.64838689  1
  In  In7  1  0.32419192  0.68355633  0.34597588  1
  In  In8  1  -0.00074120  0.14827922  0.14658474  1
  In  In9  1  0.84735082  0.84882282  0.33739913  1
  In  In10  1  0.81109666  -0.01150934  0.84108165  1
  In  In11  1  0.66863389  0.66478978  0.67012741  1
  In  In12  1  0.82028574  0.17538495  0.03377586  1
  In  In13  1  0.63850682  0.15223802  0.15020290  1
  In  In14  1  0.17235363  0.50804319  0.67075347  1
  In  In15  1  0.02022858  0.31476574  0.66126322  1
  In  In16  1  0.81932679  0.66179575  0.85341139  1
  In  In17  1  0.01267174  -0.02170885  0.34202999  1
  In  In18  1  0.85490451  0.31664773  0.16701377  1
  In  In19  1  -0.01035152  0.49735520  0.17229691  1
  In  In20  1  0.65228806  0.33575287  0.34566571  1
  In  In21  1  0.17662491  0.15156858  -0.01973681  1
  In  In22  1  0.66839301  0.82947702  0.51119246  1
  In  In23  1  0.19028385  0.84376601  -0.01323751  1
  In  In24  1  0.33887933  0.50479444  0.83431526  1
  In  In25  1  0.18477852  0.47196372  0.31281572  1
  In  In26  1  0.33827552  0.47609267  0.16125499  1
  In  In27  1  0.18035585  0.83841771  0.32222766  1
  In  In28  1  0.50575539  0.30319017  0.52847987  1
  In  In29  1  0.19938230  0.11835729  0.66730260  1
  In  In30  1  0.21376495  0.17463927  0.35849742  1
  In  In31  1  0.51414601  0.69785896  0.85966389  1
  In  In32  1  0.33318774  -0.00157055  0.33318810  1
  In  In33  1  0.64760100  0.50458328  0.17148234  1
  In  In34  1  0.82448224  0.32672321  0.50938173  1
  In  In35  1  0.17525192  0.33447487  0.14844526  1
  In  In36  1  0.47567653  0.01093038  0.48898741  1
  In  In37  1  0.32164689  0.30753264  0.68358653  1
  In  In38  1  0.64413603  0.65383292  0.34011708  1
  In  In39  1  0.16467225  0.69259680  0.17251674  1
  In  In40  1  0.01505034  0.16335666  0.83664056  1
  In  In41  1  0.62451283  0.86075300  0.11443047  1
  In  In42  1  0.17673067  0.51285000  -0.02094129  1
  In  In43  1  -0.00169047  -0.01394323  -0.01387001  1
  In  In44  1  0.81744400  0.18352749  0.35916415  1
  In  In45  1  0.47491903  0.66019850  0.48023313  1
  In  In46  1  0.45612211  0.83807476  0.67059238  1
  In  In47  1  0.63909440  0.33723746  -0.00739814  1
  In  In48  1  0.83421674  0.50115159  0.68963703  1
  In  In49  1  0.00964746  0.68159624  0.35913856  1
  In  In50  1  0.03935099  0.83453370  0.81373521  1
  In  In51  1  0.01391028  0.33814406  0.32793679  1
  In  In52  1  0.65466396  -0.00765699  0.67530313  1
  In  In53  1  0.85139295  0.67719900  0.52281838  1
  In  In54  1  0.67650785  0.17357084  0.49951526  1
  In  In55  1  0.82217743  0.01671035  0.17304266  1
  In  In56  1  0.48491112  0.82823138  0.33255859  1
  In  In57  1  0.81546839  0.50448136  -0.00848664  1
  In  In58  1  0.32790073  0.00160848  -0.01392313  1
  In  In59  1  0.85291177  0.81928906  0.68070350  1
  In  In60  1  0.49036285  0.66829466  0.13451743  1
  In  In61  1  0.81139849  0.70359665  0.17877778  1
  In  In62  1  0.18660963  0.68631958  0.53126979  1
  In  In63  1  0.34829957  0.50295777  0.50330868  1
  In  In64  1  0.49956607  0.48596705  0.32813193  1
  In  In65  1  0.48426887  0.16621099  0.70269713  1
  In  In66  1  0.48843560  0.00415379  0.84687237  1
  In  In67  1  -0.00102849  0.50751094  0.80949606  1
  In  In68  1  0.33740977  0.68418373  -0.00620416  1
  In  In69  1  0.81451785  0.34254848  0.84033851  1
  In  In70  1  0.37479630  0.31738782  -0.02216244  1
  In  In71  1  0.82267801  0.15149850  0.66028912  1
  Te  Te72  1  0.10009856  0.06002091  0.07604293  1
  Te  Te73  1  0.09882207  0.08311491  0.41039904  1
  Te  Te74  1  0.06923852  0.06983176  0.73431679  1
  Te  Te75  1  0.08185807  0.43064566  0.07182532  1
  Te  Te76  1  0.10995825  0.39995766  0.42846458  1
  Te  Te77  1  0.09855679  0.40377463  0.75778143  1
  Te  Te78  1  0.08027132  0.76348791  0.06948560  1
  Te  Te79  1  0.10003259  0.77240036  0.43846176  1
  Te  Te80  1  0.11716730  0.76486686  0.70736445  1
  Te  Te81  1  0.43067744  0.08986343  0.05762197  1
  Te  Te82  1  0.40112125  0.10938254  0.40692163  1
  Te  Te83  1  0.38699779  0.05981159  0.75023936  1
  Te  Te84  1  0.43572084  0.42190497  0.06568787  1
  Te  Te85  1  0.42601005  0.39503604  0.42770584  1
  Te  Te86  1  0.41624725  0.41236311  0.73875395  1
  Te  Te87  1  0.43212026  0.78229149  0.05643076  1
  Te  Te88  1  0.39025243  0.78247478  0.44347733  1
  Te  Te89  1  0.40101295  0.75052903  0.77776528  1
  Te  Te90  1  0.72690350  0.05708005  0.06260670  1
  Te  Te91  1  0.76283842  0.06313155  0.43620276  1
  Te  Te92  1  0.72739186  0.09176939  0.76550473  1
  Te  Te93  1  0.75069074  0.40486202  0.08935947  1
  Te  Te94  1  0.75184798  0.41590940  0.41743399  1
  Te  Te95  1  0.72589719  0.43313586  0.76404318  1
  Te  Te96  1  0.72097628  0.73047299  0.06122483  1
  Te  Te97  1  0.74811976  0.74395308  0.41208430  1
  Te  Te98  1  0.73994749  0.75967116  0.76442988  1
  Te  Te99  1  0.08842757  0.24214831  0.23716505  1
  Te  Te100  1  0.12695518  0.23727178  0.58750221  1
  Te  Te101  1  0.09122072  0.25680132  0.92017586  1
  Te  Te102  1  0.08681851  0.58245228  0.25730189  1
  Te  Te103  1  0.07672993  0.59151079  0.58447327  1
  Te  Te104  1  0.09522672  0.60132218  0.88442282  1
  Te  Te105  1  0.08495155  0.90993103  0.23496080  1
  Te  Te106  1  0.13069354  0.97149162  0.61568812  1
  Te  Te107  1  0.11202911  0.94088391  0.89513567  1
  Te  Te108  1  0.41217189  0.27058432  0.24881035  1
  Te  Te109  1  0.39547182  0.21475603  0.58717821  1
  Te  Te110  1  0.46036395  0.23809415  0.88204120  1
  Te  Te111  1  0.41336953  0.58881282  0.25498306  1
  Te  Te112  1  0.39495651  0.61013286  0.60083913  1
  Te  Te113  1  0.42958049  0.58202170  0.92877526  1
  Te  Te114  1  0.43808152  0.93667480  0.24346468  1
  Te  Te115  1  0.39364466  0.96106842  0.60641590  1
  Te  Te116  1  0.41341648  0.89521991  0.92122090  1
  Te  Te117  1  0.74055918  0.23909667  0.23847473  1
  Te  Te118  1  0.72992323  0.26398072  0.61099031  1
  Te  Te119  1  0.73680289  0.24003552  0.92326796  1
  Te  Te120  1  0.74925165  0.58399319  0.25315643  1
  Te  Te121  1  0.75319287  0.57496630  0.58087392  1
  Te  Te122  1  0.71738002  0.56234609  0.89767575  1
  Te  Te123  1  0.73759772  0.90445074  0.24057689  1
  Te  Te124  1  0.75934871  0.91332116  0.59744776  1
  Te  Te125  1  0.71534825  0.89837047  0.91374847  1
  Te  Te126  1  0.26861042  0.24182241  0.06905751  1
  Te  Te127  1  0.28997688  0.28403687  0.41648802  1
  Te  Te128  1  0.24209952  0.22102210  0.77513438  1
  Te  Te129  1  0.24852808  0.58534079  0.09582871  1
  Te  Te130  1  0.23788643  0.57968439  0.41986466  1
  Te  Te131  1  0.25818591  0.59735867  0.75102960  1
  Te  Te132  1  0.25700240  0.92395180  0.09093466  1
  Te  Te133  1  0.24915474  0.91907664  0.42979459  1
  Te  Te134  1  0.21216645  0.89215012  0.72423812  1
  Te  Te135  1  0.55259183  0.24015248  0.06726332  1
  Te  Te136  1  0.56950526  0.22442184  0.40509571  1
  Te  Te137  1  0.57726408  0.25627336  0.77751774  1
  Te  Te138  1  0.57305434  0.56880675  0.06235035  1
  Te  Te139  1  0.58126978  0.55767001  0.43891033  1
  Te  Te140  1  0.56684600  0.59155098  0.75590127  1
  Te  Te141  1  0.53537055  0.96781757  0.04523074  1
  Te  Te142  1  0.58614784  0.91864522  0.41818867  1
  Te  Te143  1  0.56581880  0.90231549  0.75702338  1
  Te  Te144  1  0.94564322  0.26102316  0.05789064  1
  Te  Te145  1  0.93740418  0.24803886  0.43338544  1
  Te  Te146  1  0.90987746  0.25161041  0.74944002  1
  Te  Te147  1  0.90246019  0.59640718  0.09229832  1
  Te  Te148  1  0.90294614  0.58538803  0.40958791  1
  Te  Te149  1  0.91772224  0.61787489  0.74272509  1
  Te  Te150  1  0.91236369  0.91979865  0.09520592  1
  Te  Te151  1  0.92533208  0.91494415  0.44301284  1
  Te  Te152  1  0.92510673  0.92703643  0.76114576  1
  Te  Te153  1  0.24070216  0.08481793  0.23989415  1
  Te  Te154  1  0.25143676  0.04149160  0.54553429  1
  Te  Te155  1  0.27178265  0.09299026  0.87772739  1
  Te  Te156  1  0.28722704  0.36025108  0.26477228  1
  Te  Te157  1  0.25909855  0.41364335  0.58871362  1
  Te  Te158  1  0.25804418  0.40314782  0.91554797  1
  Te  Te159  1  0.28284924  0.77133396  0.22733211  1
  Te  Te160  1  0.25655202  0.78630887  0.61656464  1
  Te  Te161  1  0.24467441  0.74101207  0.89413007  1
  Te  Te162  1  0.55680762  0.06588605  0.24252780  1
  Te  Te163  1  0.57669154  0.08846817  0.58629686  1
  Te  Te164  1  0.57850827  0.07198771  0.94456633  1
  Te  Te165  1  0.56588216  0.38863428  0.23038856  1
  Te  Te166  1  0.59142172  0.40825692  0.58622561  1
  Te  Te167  1  0.54877390  0.37449087  0.87810232  1
  Te  Te168  1  0.57868186  0.74844507  0.24060857  1
  Te  Te169  1  0.56466173  0.74587726  0.58557119  1
  Te  Te170  1  0.60601322  0.77414195  0.95004269  1
  Te  Te171  1  0.91425183  0.09817204  0.26467603  1
  Te  Te172  1  0.91442067  0.06196849  0.58857737  1
  Te  Te173  1  0.90280279  0.08904491  0.92462915  1
  Te  Te174  1  0.89971630  0.42119531  0.27002591  1
  Te  Te175  1  0.92965723  0.41856635  0.58857753  1
  Te  Te176  1  0.92136357  0.42586691  0.91342847  1
  Te  Te177  1  0.93596601  0.75934077  0.24924216  1
  Te  Te178  1  0.94821301  0.77421139  0.57586452  1
  Te  Te179  1  0.92418301  0.76677478  0.91444904  1
