# generated using pymatgen
data_In2Te3
_symmetry_space_group_name_H-M   'P 1'
_cell_length_a   18.79775905
_cell_length_b   18.79012745
_cell_length_c   18.78835739
_cell_angle_alpha   89.97976948
_cell_angle_beta   90.06316056
_cell_angle_gamma   89.98728587
_symmetry_Int_Tables_number   1
_chemical_formula_structural   In2Te3
_chemical_formula_sum   'In72 Te108'
_cell_volume   6636.27409610
_cell_formula_units_Z   36
loop_
 _symmetry_equiv_pos_site_id
 _symmetry_equiv_pos_as_xyz
  1  'x, y, z'
loop_
 _atom_site_type_symbol
 _atom_site_label
 _atom_site_symmetry_multiplicity
 _atom_site_fract_x
 _atom_site_fract_y
 _atom_site_fract_z
 _atom_site_occupancy
  In  In0  1  0.82429077  0.67520837  0.16687392  1
  In  In1  1  0.36577971  0.33198347  0.65702206  1
  In  In2  1  0.84920941  0.34220316  0.84510942  1
  In  In3  1  0.16326237  0.00245938  0.51789806  1
  In  In4  1  0.32890123  0.49847067  0.16508497  1
  In  In5  1  0.49817039  0.17552274  0.00843709  1
  In  In6  1  0.30650613  0.33837924  0.00783912  1
  In  In7  1  0.32960141  0.16048207  0.17545492  1
  In  In8  1  0.49670885  0.52462501  -0.00746214  1
  In  In9  1  0.84929312  0.33790464  0.49847347  1
  In  In10  1  0.65824817  0.15941224  0.17466678  1
  In  In11  1  0.51082043  0.50740692  0.34111493  1
  In  In12  1  -0.00578013  0.18523984  0.50024241  1
  In  In13  1  0.29135107  -0.03472522  0.02335462  1
  In  In14  1  0.16247181  0.82074522  0.30643875  1
  In  In15  1  -0.01883016  0.65807359  0.32320650  1
  In  In16  1  0.83822426  0.16841862  0.32536938  1
  In  In17  1  0.16954648  0.33571235  0.84970690  1
  In  In18  1  0.33629855  0.67483133  -0.00172868  1
  In  In19  1  0.16635370  0.65414445  0.47663007  1
  In  In20  1  0.34392691  0.01843913  0.34284591  1
  In  In21  1  0.82180057  0.81826850  0.67593198  1
  In  In22  1  0.66113122  0.34635980  0.64554958  1
  In  In23  1  0.83762798  0.50186984  0.33975613  1
  In  In24  1  0.63590106  0.16737362  0.49746490  1
  In  In25  1  -0.01834973  0.49944140  0.49146043  1
  In  In26  1  -0.02772928  0.66545792  0.67092481  1
  In  In27  1  0.00165300  0.50731869  0.86440085  1
  In  In28  1  0.15183613  0.85994295  0.66579967  1
  In  In29  1  0.32666108  -0.01064497  0.65124913  1
  In  In30  1  0.52837998  0.67868542  0.16516973  1
  In  In31  1  0.49911987  0.82716748  0.65092536  1
  In  In32  1  0.68392115  0.33154865  0.32594161  1
  In  In33  1  0.32440671  0.17128612  0.81601678  1
  In  In34  1  -0.02338453  0.80453139  0.86411836  1
  In  In35  1  0.68783900  -0.02220110  -0.01081897  1
  In  In36  1  -0.02931937  -0.02948542  0.02699375  1
  In  In37  1  0.17577603  0.67999578  0.85085094  1
  In  In38  1  0.01710934  0.15720150  0.83957691  1
  In  In39  1  0.50150303  0.15950288  0.63449416  1
  In  In40  1  0.81921538  0.15154000  0.69093420  1
  In  In41  1  0.83830352  -0.02002397  0.48400490  1
  In  In42  1  -0.00962457  0.51132089  0.14763242  1
  In  In43  1  0.48972852  -0.00747542  0.18736643  1
  In  In44  1  0.33863270  0.50544189  0.47450458  1
  In  In45  1  0.68244348  -0.03345921  0.31863020  1
  In  In46  1  -0.00557206  -0.02321137  0.32281481  1
  In  In47  1  0.16894580  0.16233935  0.32083811  1
  In  In48  1  0.68470532  0.16828569  0.80993901  1
  In  In49  1  0.48676898  0.31969783  0.19419886  1
  In  In50  1  0.00686600  -0.00538734  0.67704470  1
  In  In51  1  0.51016508  -0.02071453  0.83925601  1
  In  In52  1  0.16586167  0.49210658  0.67993072  1
  In  In53  1  0.15836958  0.16899993  0.00202334  1
  In  In54  1  0.34369086  0.82785232  0.48725528  1
  In  In55  1  0.51360811  0.36179410  0.83828532  1
  In  In56  1  0.66857270  0.81651801  0.84829818  1
  In  In57  1  0.15607594  0.32539570  0.48524327  1
  In  In58  1  0.14659067  -0.02369736  0.83840923  1
  In  In59  1  0.70799958  0.37801505  0.02797082  1
  In  In60  1  0.69408844  0.66388821  -0.00462127  1
  In  In61  1  0.14982059  0.49364570  -0.00667224  1
  In  In62  1  0.00616428  0.16824120  0.16667303  1
  In  In63  1  0.34332300  0.68504817  0.66837368  1
  In  In64  1  0.49928731  0.68768648  0.48225588  1
  In  In65  1  0.50871741  0.84054797  0.00747005  1
  In  In66  1  0.80507238  0.52585929  0.65514496  1
  In  In67  1  0.84525490  0.16147968  -0.00188282  1
  In  In68  1  0.18522153  0.50844679  0.32083659  1
  In  In69  1  0.67141717  0.67766654  0.33394323  1
  In  In70  1  0.54276972  0.52282836  0.67896245  1
  In  In71  1  0.66358614  0.82883071  0.48549930  1
  Te  Te72  1  0.08272293  0.06467854  0.08093521  1
  Te  Te73  1  0.06649262  0.07777608  0.41550422  1
  Te  Te74  1  0.10986747  0.08843149  0.73965150  1
  Te  Te75  1  0.08767540  0.41113905  0.09746530  1
  Te  Te76  1  0.07846763  0.42879859  0.40061629  1
  Te  Te77  1  0.06777258  0.41240375  0.76266744  1
  Te  Te78  1  0.11221265  0.77429990  0.12442665  1
  Te  Te79  1  0.07204190  0.75130097  0.41015873  1
  Te  Te80  1  0.07842949  0.75011641  0.74588471  1
  Te  Te81  1  0.40874265  0.07127594  0.07400935  1
  Te  Te82  1  0.40854167  0.11917543  0.42723406  1
  Te  Te83  1  0.42534651  0.07655996  0.75091165  1
  Te  Te84  1  0.42743243  0.40691349  0.07393226  1
  Te  Te85  1  0.41624139  0.40735937  0.39681196  1
  Te  Te86  1  0.42295615  0.44126527  0.74679247  1
  Te  Te87  1  0.41767577  0.75997312  0.09883441  1
  Te  Te88  1  0.41787387  0.75801397  0.37890913  1
  Te  Te89  1  0.43234870  0.75583969  0.76171484  1
  Te  Te90  1  0.75302157  0.07712773  0.08624300  1
  Te  Te91  1  0.74820834  0.08556062  0.41542412  1
  Te  Te92  1  0.75340574  0.04506148  0.76872103  1
  Te  Te93  1  0.79667448  0.44752743  0.12191755  1
  Te  Te94  1  0.74353543  0.42409932  0.43345084  1
  Te  Te95  1  0.75021035  0.41171181  0.74791636  1
  Te  Te96  1  0.73935665  0.77286596  0.08877312  1
  Te  Te97  1  0.77128784  0.76724393  0.40105892  1
  Te  Te98  1  0.74203501  0.71875950  0.75663651  1
  Te  Te99  1  0.08019585  0.26077539  0.25581810  1
  Te  Te100  1  0.07412882  0.26606003  0.59299076  1
  Te  Te101  1  0.06315352  0.26725461  0.93537213  1
  Te  Te102  1  0.08746230  0.59134025  0.23707442  1
  Te  Te103  1  0.08248266  0.58306196  0.58527009  1
  Te  Te104  1  0.07310374  0.61733498  0.94363720  1
  Te  Te105  1  0.07071582  0.90333253  0.21553570  1
  Te  Te106  1  0.05091217  0.90515364  0.56083643  1
  Te  Te107  1  0.07623038  0.89142223  0.94241615  1
  Te  Te108  1  0.42409851  0.21348295  0.27903498  1
  Te  Te109  1  0.40810870  0.23743559  0.54750531  1
  Te  Te110  1  0.41144201  0.25809496  0.91031008  1
  Te  Te111  1  0.42844398  0.58700282  0.23948854  1
  Te  Te112  1  0.42090596  0.58937590  0.57775410  1
  Te  Te113  1  0.41552918  0.59946383  0.89578657  1
  Te  Te114  1  0.40171830  0.90448268  0.26692831  1
  Te  Te115  1  0.43197740  0.93001220  0.55837468  1
  Te  Te116  1  0.40371813  0.91653997  0.92649777  1
  Te  Te117  1  0.76699625  0.25610212  0.22234194  1
  Te  Te118  1  0.75928952  0.24096949  0.57815618  1
  Te  Te119  1  0.73944650  0.25520121  0.92341861  1
  Te  Te120  1  0.74031856  0.57331201  0.24506508  1
  Te  Te121  1  0.70682668  0.58911088  0.56592576  1
  Te  Te122  1  0.75101492  0.59236884  0.87752857  1
  Te  Te123  1  0.78176982  0.91654587  0.22402386  1
  Te  Te124  1  0.74518455  0.91564612  0.58478116  1
  Te  Te125  1  0.77976267  0.88844959  0.91642047  1
  Te  Te126  1  0.22930579  0.25495375  0.10741404  1
  Te  Te127  1  0.25324722  0.23691803  0.41729363  1
  Te  Te128  1  0.24588612  0.27015906  0.73315619  1
  Te  Te129  1  0.24016234  0.58550187  0.07913718  1
  Te  Te130  1  0.27830859  0.61377907  0.38387573  1
  Te  Te131  1  0.25383189  0.59180229  0.75336347  1
  Te  Te132  1  0.23953374  0.86800448  0.12216891  1
  Te  Te133  1  0.23560794  0.91345134  0.41634095  1
  Te  Te134  1  0.26112129  0.90633743  0.76156025  1
  Te  Te135  1  0.59273658  0.26797778  0.08351449  1
  Te  Te136  1  0.57847777  0.26949626  0.40919102  1
  Te  Te137  1  0.57205569  0.25225890  0.74618894  1
  Te  Te138  1  0.60640722  0.57524495  0.08616310  1
  Te  Te139  1  0.60542114  0.57961446  0.44106603  1
  Te  Te140  1  0.63286145  0.58917460  0.77416305  1
  Te  Te141  1  0.59565941  0.92314680  0.10027359  1
  Te  Te142  1  0.57465384  0.91696330  0.40595025  1
  Te  Te143  1  0.59734764  0.90447223  0.74306371  1
  Te  Te144  1  0.92364568  0.25564859  0.07837691  1
  Te  Te145  1  0.93177400  0.27089259  0.38945323  1
  Te  Te146  1  0.92340124  0.24368833  0.75335179  1
  Te  Te147  1  0.90561314  0.60251740  0.05903224  1
  Te  Te148  1  0.88949386  0.60707454  0.43850380  1
  Te  Te149  1  0.90120684  0.57992300  0.77223756  1
  Te  Te150  1  0.87445569  0.88213271  0.10222402  1
  Te  Te151  1  0.89431552  0.88317865  0.38512427  1
  Te  Te152  1  0.91941464  0.90274552  0.76056240  1
  Te  Te153  1  0.23762243  0.05586197  0.23684151  1
  Te  Te154  1  0.24949537  0.09807316  0.58890805  1
  Te  Te155  1  0.24880482  0.08142177  0.91459053  1
  Te  Te156  1  0.26963750  0.40286545  0.26048127  1
  Te  Te157  1  0.25446076  0.42323230  0.57549999  1
  Te  Te158  1  0.26472479  0.44158045  0.90468335  1
  Te  Te159  1  0.23308832  0.73129471  0.20973244  1
  Te  Te160  1  0.23677673  0.75640112  0.57979634  1
  Te  Te161  1  0.25247352  0.77806506  0.92900756  1
  Te  Te162  1  0.57988619  0.07942204  0.27519524  1
  Te  Te163  1  0.60132915  0.06033578  0.59288962  1
  Te  Te164  1  0.58697830  0.08601771  0.92210796  1
  Te  Te165  1  0.59042606  0.42123866  0.24118040  1
  Te  Te166  1  0.54967103  0.41475814  0.57895986  1
  Te  Te167  1  0.60908760  0.43943820  0.92505619  1
  Te  Te168  1  0.58843535  0.77515777  0.25968648  1
  Te  Te169  1  0.60275844  0.73165826  0.59013912  1
  Te  Te170  1  0.56985762  0.72984008  0.92502157  1
  Te  Te171  1  0.90935060  0.06925470  0.23515689  1
  Te  Te172  1  0.91427734  0.08042108  0.58357298  1
  Te  Te173  1  0.92205578  0.06264707  0.91088771  1
  Te  Te174  1  0.90406052  0.41848355  0.23372379  1
  Te  Te175  1  0.91387428  0.42498929  0.60520328  1
  Te  Te176  1  0.90841954  0.42760451  0.94957111  1
  Te  Te177  1  0.92929509  0.76243257  0.22918384  1
  Te  Te178  1  0.90465944  0.75139983  0.57325467  1
  Te  Te179  1  0.90072528  0.72637050  0.96240846  1
