# generated using pymatgen
data_In2Te3
_symmetry_space_group_name_H-M   'P 1'
_cell_length_a   18.75866809
_cell_length_b   18.76447680
_cell_length_c   18.76274334
_cell_angle_alpha   90.06571190
_cell_angle_beta   90.02922167
_cell_angle_gamma   90.03672728
_symmetry_Int_Tables_number   1
_chemical_formula_structural   In2Te3
_chemical_formula_sum   'In72 Te108'
_cell_volume   6604.41515533
_cell_formula_units_Z   36
loop_
 _symmetry_equiv_pos_site_id
 _symmetry_equiv_pos_as_xyz
  1  'x, y, z'
loop_
 _atom_site_type_symbol
 _atom_site_label
 _atom_site_symmetry_multiplicity
 _atom_site_fract_x
 _atom_site_fract_y
 _atom_site_fract_z
 _atom_site_occupancy
  In  In0  1  0.49284531  0.50151051  -0.00173459  1
  In  In1  1  0.51878810  0.01211597  0.19265675  1
  In  In2  1  0.66177979  0.00753389  0.33424028  1
  In  In3  1  0.15571133  0.18579273  0.65440019  1
  In  In4  1  0.32265009  0.68142283  0.34325205  1
  In  In5  1  0.15410619  0.49538679  0.65513502  1
  In  In6  1  0.33395376  -0.02215073  0.34392473  1
  In  In7  1  0.34247986  0.34996380  -0.00802142  1
  In  In8  1  0.33003053  0.16852336  0.49219510  1
  In  In9  1  0.34199080  0.16576116  0.82653488  1
  In  In10  1  0.69118825  0.49125031  0.81944222  1
  In  In11  1  0.68323242  0.65663477  -0.02944535  1
  In  In12  1  0.49238151  0.31992877  0.48513336  1
  In  In13  1  0.80709213  0.16972436  0.01681979  1
  In  In14  1  0.33061025  0.31770683  0.34504707  1
  In  In15  1  0.82894604  0.85203024  -0.00371318  1
  In  In16  1  -0.02694157  0.00152862  0.65742031  1
  In  In17  1  0.33282604  0.49897157  0.14769404  1
  In  In18  1  0.67524751  0.32621920  0.68042162  1
  In  In19  1  0.17414549  0.84817127  -0.00244674  1
  In  In20  1  0.49479416  0.82807940  0.34116497  1
  In  In21  1  0.00254280  0.64129159  0.01731024  1
  In  In22  1  -0.01324999  0.35243038  0.64676481  1
  In  In23  1  0.17106533  0.65256189  0.19962976  1
  In  In24  1  0.52608282  0.15151200  0.31613962  1
  In  In25  1  -0.00648564  0.01310116  0.00099256  1
  In  In26  1  0.67438563  0.84263450  0.84364751  1
  In  In27  1  0.67182319  0.32009219  0.01885305  1
  In  In28  1  0.68665855  0.16277967  0.82793718  1
  In  In29  1  0.84593933  0.64768331  0.81608152  1
  In  In30  1  0.51493711  0.47444872  0.32578106  1
  In  In31  1  0.68480094  0.84288278  0.51467327  1
  In  In32  1  0.64583823  0.84639264  0.17654176  1
  In  In33  1  -0.02287293  0.34825683  -0.01600044  1
  In  In34  1  0.15665371  0.65599205  0.83537398  1
  In  In35  1  0.50265219  0.65869197  0.50615297  1
  In  In36  1  0.13982975  -0.00189709  0.17087727  1
  In  In37  1  0.51854574  0.02031643  0.82534255  1
  In  In38  1  0.84500663  0.49880832  0.34369367  1
  In  In39  1  0.49140972  0.84419618  0.03344587  1
  In  In40  1  0.15758905  0.48498391  -0.00442639  1
  In  In41  1  0.14082852  0.50310108  0.34980095  1
  In  In42  1  0.49357851  0.67915830  0.16529437  1
  In  In43  1  0.00861808  0.18305272  0.84983133  1
  In  In44  1  0.65557551  0.14519439  0.52363312  1
  In  In45  1  0.82431936  0.84572128  0.66591122  1
  In  In46  1  -0.01081493  0.34247604  0.33954620  1
  In  In47  1  0.84365217  0.83165962  0.34316919  1
  In  In48  1  0.84247454  0.67601826  0.17563484  1
  In  In49  1  0.49583506  0.84952025  0.64457324  1
  In  In50  1  0.69162593  0.49108381  0.49841678  1
  In  In51  1  0.34274132  0.16666694  0.16579492  1
  In  In52  1  0.33166186  0.00663916  -0.00404077  1
  In  In53  1  0.18670289  -0.01287579  0.80809287  1
  In  In54  1  -0.00172441  0.83757964  0.18743497  1
  In  In55  1  0.84005964  0.17091540  0.66362225  1
  In  In56  1  0.30301519  0.68375029  0.64074845  1
  In  In57  1  0.82300686  0.18883195  0.31207216  1
  In  In58  1  0.49402924  0.64327184  0.84024584  1
  In  In59  1  0.32756073  0.83101365  0.81590632  1
  In  In60  1  0.68095419  0.48816501  0.17529339  1
  In  In61  1  0.15961252  0.15811907  0.36338425  1
  In  In62  1  0.02321695  0.82478992  0.47536399  1
  In  In63  1  0.84081078  0.65401749  0.49398935  1
  In  In64  1  -0.01103044  0.15556670  0.17322121  1
  In  In65  1  0.32763391  0.34293408  0.66684958  1
  In  In66  1  -0.00719682  0.81568594  0.80928387  1
  In  In67  1  0.01231800  0.66261599  0.67046594  1
  In  In68  1  0.49513248  0.50611018  0.67156479  1
  In  In69  1  0.50686336  0.31783168  0.82015562  1
  In  In70  1  0.15525901  0.00365155  0.50126834  1
  In  In71  1  0.16856590  0.33740077  0.15419412  1
  Te  Te72  1  0.09363105  0.10419141  0.07159813  1
  Te  Te73  1  0.05244639  0.07434779  0.41926960  1
  Te  Te74  1  0.07748733  0.08121416  0.74888718  1
  Te  Te75  1  0.06134020  0.42543398  0.09687817  1
  Te  Te76  1  0.06682340  0.41596689  0.44408700  1
  Te  Te77  1  0.08414036  0.40231679  0.74606773  1
  Te  Te78  1  0.07965727  0.75896038  0.08149496  1
  Te  Te79  1  0.11767679  0.71206952  0.44211345  1
  Te  Te80  1  0.11278805  0.76210254  0.73390743  1
  Te  Te81  1  0.43522188  0.08167913  0.07999863  1
  Te  Te82  1  0.42729364  0.08131947  0.40970721  1
  Te  Te83  1  0.40715916  0.06611878  0.73902563  1
  Te  Te84  1  0.44128469  0.40176771  0.10141458  1
  Te  Te85  1  0.40482952  0.42857819  0.42228086  1
  Te  Te86  1  0.41091060  0.42445119  0.76893095  1
  Te  Te87  1  0.39399059  0.74431331  0.07864922  1
  Te  Te88  1  0.40697540  0.76125299  0.44553086  1
  Te  Te89  1  0.42396868  0.73742944  0.73737138  1
  Te  Te90  1  0.73686710  0.05689837  0.08125783  1
  Te  Te91  1  0.75379526  0.09071917  0.41942996  1
  Te  Te92  1  0.74247594  0.07298241  0.72154194  1
  Te  Te93  1  0.76845524  0.41485795  0.08116542  1
  Te  Te94  1  0.75699505  0.39592139  0.40778226  1
  Te  Te95  1  0.78724571  0.42099761  0.72329081  1
  Te  Te96  1  0.73964270  0.75473470  0.08164867  1
  Te  Te97  1  0.74308488  0.74186617  0.41553528  1
  Te  Te98  1  0.74722813  0.74353318  0.75090144  1
  Te  Te99  1  0.09374430  0.24556607  0.25210936  1
  Te  Te100  1  0.05506774  0.24636662  0.56463910  1
  Te  Te101  1  0.09305176  0.27131622  0.93275999  1
  Te  Te102  1  0.05894710  0.57085609  0.24680495  1
  Te  Te103  1  0.07447670  0.58270462  0.55984906  1
  Te  Te104  1  0.05820237  0.55905386  0.90046881  1
  Te  Te105  1  0.08496039  0.91539708  0.27916671  1
  Te  Te106  1  0.07611800  0.91005886  0.59490294  1
  Te  Te107  1  0.07293578  0.91838294  0.90627836  1
  Te  Te108  1  0.43316388  0.25645221  0.25011735  1
  Te  Te109  1  0.41831963  0.24254489  0.59381423  1
  Te  Te110  1  0.43135263  0.24104735  0.92787339  1
  Te  Te111  1  0.41609033  0.57991845  0.25567792  1
  Te  Te112  1  0.39685711  0.57557773  0.57834191  1
  Te  Te113  1  0.39205786  0.57981280  0.92493650  1
  Te  Te114  1  0.41720735  0.90559128  0.23559837  1
  Te  Te115  1  0.43190378  0.95548292  0.56550441  1
  Te  Te116  1  0.41992364  0.91460499  0.90849633  1
  Te  Te117  1  0.72289787  0.25560769  0.21862423  1
  Te  Te118  1  0.75282298  0.25726109  0.56976621  1
  Te  Te119  1  0.76141540  0.27102792  0.90489456  1
  Te  Te120  1  0.74715208  0.59415671  0.26271938  1
  Te  Te121  1  0.76605921  0.57510114  0.59830744  1
  Te  Te122  1  0.78842962  0.54896988  0.93032989  1
  Te  Te123  1  0.75678378  0.91886326  0.25164586  1
  Te  Te124  1  0.75531771  0.95283707  0.58774416  1
  Te  Te125  1  0.74817136  0.94739852  0.91746375  1
  Te  Te126  1  0.25627036  0.24665770  0.06906896  1
  Te  Te127  1  0.22426308  0.27086710  0.44420454  1
  Te  Te128  1  0.23895610  0.25864151  0.76011329  1
  Te  Te129  1  0.23753801  0.59150839  0.07520004  1
  Te  Te130  1  0.23655544  0.59091241  0.42789202  1
  Te  Te131  1  0.25397059  0.58321786  0.74396457  1
  Te  Te132  1  0.25626571  0.92399539  0.10080539  1
  Te  Te133  1  0.24600632  0.90075804  0.43561394  1
  Te  Te134  1  0.26447419  0.91051143  0.70860630  1
  Te  Te135  1  0.59917983  0.23609086  0.11705536  1
  Te  Te136  1  0.60093556  0.24194158  0.41402222  1
  Te  Te137  1  0.57691305  0.22106200  0.72812112  1
  Te  Te138  1  0.59026504  0.58879666  0.08266408  1
  Te  Te139  1  0.59080799  0.57361813  0.41526044  1
  Te  Te140  1  0.60081860  0.58956218  0.74451804  1
  Te  Te141  1  0.59970837  0.94436710  0.06802778  1
  Te  Te142  1  0.58220983  0.91857374  0.42759638  1
  Te  Te143  1  0.59577123  0.92047846  0.73772890  1
  Te  Te144  1  0.91001417  0.25498861  0.08984617  1
  Te  Te145  1  0.90487546  0.25041748  0.42045060  1
  Te  Te146  1  0.91749035  0.26233946  0.75778614  1
  Te  Te147  1  0.90473530  0.56615654  0.09856663  1
  Te  Te148  1  0.94555159  0.57008205  0.43099074  1
  Te  Te149  1  0.93540761  0.55541009  0.74219488  1
  Te  Te150  1  0.91188586  0.92966536  0.09958569  1
  Te  Te151  1  0.91430298  0.91814206  0.43965304  1
  Te  Te152  1  0.89869723  0.92840760  0.77155678  1
  Te  Te153  1  0.25239098  0.08580996  0.25967202  1
  Te  Te154  1  0.25073495  0.08388963  0.59175321  1
  Te  Te155  1  0.23604190  0.08880433  0.91120913  1
  Te  Te156  1  0.25288742  0.42146756  0.25460382  1
  Te  Te157  1  0.24585438  0.41504353  0.56826590  1
  Te  Te158  1  0.24864155  0.41706262  0.90080566  1
  Te  Te159  1  0.24252463  0.76846729  0.25469511  1
  Te  Te160  1  0.22619179  0.76381717  0.53864522  1
  Te  Te161  1  0.25258800  0.74460861  0.91735827  1
  Te  Te162  1  0.65136389  0.11068387  0.20230965  1
  Te  Te163  1  0.54308784  0.06068203  0.57234491  1
  Te  Te164  1  0.58545465  0.10945334  0.92214771  1
  Te  Te165  1  0.61473098  0.38333946  0.26171423  1
  Te  Te166  1  0.57723964  0.40938193  0.58577878  1
  Te  Te167  1  0.58871376  0.41764134  0.90911808  1
  Te  Te168  1  0.59192818  0.73603198  0.26819163  1
  Te  Te169  1  0.59555588  0.74379317  0.59262617  1
  Te  Te170  1  0.57188979  0.75624315  0.92398948  1
  Te  Te171  1  0.90029106  0.07364297  0.25626621  1
  Te  Te172  1  0.93504479  0.11063254  0.56299698  1
  Te  Te173  1  0.90087068  0.09484827  0.91384678  1
  Te  Te174  1  0.90158102  0.40774008  0.23993319  1
  Te  Te175  1  0.87590542  0.44295671  0.59839577  1
  Te  Te176  1  0.90882173  0.44960071  0.90114825  1
  Te  Te177  1  0.94080411  0.73077803  0.28052462  1
  Te  Te178  1  0.92025166  0.75859966  0.58444798  1
  Te  Te179  1  0.91533135  0.74356170  0.92452648  1
