# generated using pymatgen
data_In2Te3
_symmetry_space_group_name_H-M   'P 1'
_cell_length_a   18.97427580
_cell_length_b   18.98465730
_cell_length_c   18.98141211
_cell_angle_alpha   89.87048600
_cell_angle_beta   89.98686815
_cell_angle_gamma   89.92740574
_symmetry_Int_Tables_number   1
_chemical_formula_structural   In2Te3
_chemical_formula_sum   'In72 Te108'
_cell_volume   6837.46348267
_cell_formula_units_Z   36
loop_
 _symmetry_equiv_pos_site_id
 _symmetry_equiv_pos_as_xyz
  1  'x, y, z'
loop_
 _atom_site_type_symbol
 _atom_site_label
 _atom_site_symmetry_multiplicity
 _atom_site_fract_x
 _atom_site_fract_y
 _atom_site_fract_z
 _atom_site_occupancy
  In  In0  1  0.64677439  0.02592232  0.35890863  1
  In  In1  1  0.48073253  0.15558167  -0.01775740  1
  In  In2  1  0.51116138  0.65639532  0.51695452  1
  In  In3  1  0.45815520  0.17043888  0.31721997  1
  In  In4  1  0.01889487  0.30706196  -0.03041577  1
  In  In5  1  0.82508583  0.17598050  0.32845359  1
  In  In6  1  0.84296607  0.16966411  0.00503357  1
  In  In7  1  0.49445607  0.81678082  -0.02010674  1
  In  In8  1  0.16744473  0.33048673  0.16567185  1
  In  In9  1  0.48412012  0.12977678  0.68654093  1
  In  In10  1  0.31525515  0.67357391  0.34177585  1
  In  In11  1  0.84645487  0.50609551  0.33675219  1
  In  In12  1  0.31894449  0.50155662  0.17532282  1
  In  In13  1  0.34548164  0.65438099  0.66236873  1
  In  In14  1  0.68737203  0.49905450  0.86263643  1
  In  In15  1  0.33489813  0.81603460  0.14994001  1
  In  In16  1  0.32423448  0.84733906  0.47769395  1
  In  In17  1  0.30238055  0.32257709  0.65442972  1
  In  In18  1  0.02855137  0.84300676  0.84189599  1
  In  In19  1  0.67589190  0.51218028  0.52299468  1
  In  In20  1  0.15820970  0.83209607  0.00353093  1
  In  In21  1  0.46616250  -0.02554396  0.14286820  1
  In  In22  1  0.01629290  0.47962054  0.82100826  1
  In  In23  1  0.83844187  0.00414740  0.84094524  1
  In  In24  1  0.30882603  0.31150277  -0.01344451  1
  In  In25  1  0.49224777  0.01260938  0.51214677  1
  In  In26  1  0.02427484  -0.00069642  0.66315806  1
  In  In27  1  0.84976633  -0.01799056  0.18715346  1
  In  In28  1  0.84851171  0.51321742  0.70050448  1
  In  In29  1  0.69330706  0.68531428  0.69533909  1
  In  In30  1  0.18940485  0.49270054  -0.00318396  1
  In  In31  1  0.48222423  0.48490769  0.33498326  1
  In  In32  1  0.29877051  0.85971527  0.83013398  1
  In  In33  1  0.84369590  0.30966315  0.82663706  1
  In  In34  1  0.15968433  0.85732644  0.31820865  1
  In  In35  1  0.50642551  0.49955536  0.00796717  1
  In  In36  1  0.01882780  0.14650334  0.50982131  1
  In  In37  1  0.48384978  0.32215788  0.47543391  1
  In  In38  1  0.17126812  0.15305849  0.33458646  1
  In  In39  1  0.47003024  0.29969411  0.15824628  1
  In  In40  1  0.16626624  0.67684019  0.83300200  1
  In  In41  1  0.30649298  0.15179063  0.52075927  1
  In  In42  1  0.85851772  0.83320489  -0.00874709  1
  In  In43  1  0.72014993  -0.08358409  0.68862132  1
  In  In44  1  0.47418931  0.51340278  0.66362443  1
  In  In45  1  0.65335478  0.17586574  0.19383878  1
  In  In46  1  0.51094102  0.64011802  0.84340010  1
  In  In47  1  0.68704485  0.18242722  0.50505642  1
  In  In48  1  0.49524475  0.84336191  0.68665037  1
  In  In49  1  0.51021063  0.85112102  0.32699012  1
  In  In50  1  0.84179796  0.64965114  0.18016505  1
  In  In51  1  -0.00994603  0.84696929  0.51536473  1
  In  In52  1  0.87184143  0.34158905  0.51028508  1
  In  In53  1  0.30248855  0.01159396  -0.02075885  1
  In  In54  1  0.01341150  0.84646011  0.16306900  1
  In  In55  1  0.31774918  0.49174608  0.82676774  1
  In  In56  1  -0.00316790  0.66179723  0.32412594  1
  In  In57  1  0.65718899  0.31350457  0.65799498  1
  In  In58  1  0.84695534  0.83006394  0.38815453  1
  In  In59  1  0.16491047  0.16029300  0.67427767  1
  In  In60  1  0.67340748  0.83619594  0.17456666  1
  In  In61  1  0.68025395  0.65115391  -0.01113528  1
  In  In62  1  0.13219078  0.34862015  0.50028750  1
  In  In63  1  0.68958094  0.38290845  0.00757427  1
  In  In64  1  0.16544317  0.67820789  0.50594964  1
  In  In65  1  -0.00632244  0.50127360  0.17607088  1
  In  In66  1  0.67914542  0.15166804  0.82156125  1
  In  In67  1  0.65755661  0.35378373  0.32740910  1
  In  In68  1  0.69494207  0.67446354  0.32748547  1
  In  In69  1  0.68767114  0.01786366  -0.00430250  1
  In  In70  1  0.00993461  0.52720481  0.49768311  1
  In  In71  1  0.02530468  0.15105100  0.13834079  1
  Te  Te72  1  0.08552652  0.08126485  0.02168401  1
  Te  Te73  1  0.10519310  0.05735707  0.42795189  1
  Te  Te74  1  0.07315466  0.09139017  0.77005450  1
  Te  Te75  1  0.07990920  0.41211950  0.06829140  1
  Te  Te76  1  0.05062145  0.42297924  0.40053278  1
  Te  Te77  1  0.11393147  0.38238000  0.76545021  1
  Te  Te78  1  0.05993879  0.74275643  0.07024997  1
  Te  Te79  1  0.07703610  0.76200478  0.40639581  1
  Te  Te80  1  0.11523381  0.77997506  0.73837814  1
  Te  Te81  1  0.39030573  0.08973378  0.08345335  1
  Te  Te82  1  0.39506990  0.07773930  0.41654704  1
  Te  Te83  1  0.37383313  0.07680872  0.76848001  1
  Te  Te84  1  0.39800509  0.40286165  0.07090299  1
  Te  Te85  1  0.38476345  0.40071449  0.40368251  1
  Te  Te86  1  0.40714952  0.40539472  0.74001371  1
  Te  Te87  1  0.43993568  0.73594186  0.08692356  1
  Te  Te88  1  0.43442860  0.75043754  0.42403387  1
  Te  Te89  1  0.41863168  0.73712066  0.76593442  1
  Te  Te90  1  0.75407531  0.08856210  0.11186068  1
  Te  Te91  1  0.76865807  0.07791296  0.43127976  1
  Te  Te92  1  0.76014557  0.06857771  0.72859664  1
  Te  Te93  1  0.79088153  0.45657919  0.07611162  1
  Te  Te94  1  0.75054372  0.40833119  0.43583747  1
  Te  Te95  1  0.74157261  0.40649745  0.74589018  1
  Te  Te96  1  0.76275156  0.75082447  0.08753217  1
  Te  Te97  1  0.72941968  0.75887771  0.44114117  1
  Te  Te98  1  0.78457766  0.78950186  0.74462282  1
  Te  Te99  1  0.07950428  0.23953081  0.24964311  1
  Te  Te100  1  0.06781928  0.25632737  0.60271406  1
  Te  Te101  1  0.06225011  0.25244839  0.83369326  1
  Te  Te102  1  0.09072516  0.58682217  0.24245963  1
  Te  Te103  1  0.06341557  0.62195588  0.59639298  1
  Te  Te104  1  0.09111223  0.57559569  0.91676045  1
  Te  Te105  1  0.09522008  0.95047893  0.22401735  1
  Te  Te106  1  0.10105057  0.88415584  0.60631127  1
  Te  Te107  1  0.09627052  0.94433413  0.92751133  1
  Te  Te108  1  0.35591599  0.25224825  0.24538673  1
  Te  Te109  1  0.42427252  0.23403408  0.58322404  1
  Te  Te110  1  0.40760414  0.24993634  0.89760642  1
  Te  Te111  1  0.41181231  0.59275696  0.25561649  1
  Te  Te112  1  0.39394255  0.56466103  0.54758921  1
  Te  Te113  1  0.40221645  0.57336057  0.92336447  1
  Te  Te114  1  0.39142239  0.91226276  0.25932665  1
  Te  Te115  1  0.40531836  0.91712094  0.59031201  1
  Te  Te116  1  0.41073711  0.92160545  0.91322055  1
  Te  Te117  1  0.75500490  0.27929631  0.23783810  1
  Te  Te118  1  0.78266872  0.25217091  0.59844103  1
  Te  Te119  1  0.73734935  0.25015827  0.92855358  1
  Te  Te120  1  0.73794129  0.55605677  0.24393143  1
  Te  Te121  1  0.77270661  0.59901035  0.59779762  1
  Te  Te122  1  0.77885291  0.60802845  0.88937435  1
  Te  Te123  1  0.73549481  0.93097610  0.27411486  1
  Te  Te124  1  0.78104127  0.88554869  0.55394834  1
  Te  Te125  1  0.74841770  0.90590943  0.91611882  1
  Te  Te126  1  0.21745098  0.22701070  0.06831338  1
  Te  Te127  1  0.23126567  0.25025291  0.43581818  1
  Te  Te128  1  0.28209377  0.21327592  0.75417303  1
  Te  Te129  1  0.24844878  0.59203887  0.08460547  1
  Te  Te130  1  0.22504434  0.58356364  0.41157321  1
  Te  Te131  1  0.23561670  0.58024556  0.73598953  1
  Te  Te132  1  0.24532239  0.92272965  0.08937779  1
  Te  Te133  1  0.22848443  0.94291649  0.41907203  1
  Te  Te134  1  0.25590009  0.97637232  0.75269361  1
  Te  Te135  1  0.57893423  0.23375586  0.07587573  1
  Te  Te136  1  0.58630170  0.23294368  0.39874299  1
  Te  Te137  1  0.57211234  0.23792023  0.75607956  1
  Te  Te138  1  0.59068901  0.58863243  0.08539699  1
  Te  Te139  1  0.58969110  0.57338577  0.41238370  1
  Te  Te140  1  0.59364052  0.56861119  0.73775635  1
  Te  Te141  1  0.59206516  0.91968838  0.07537398  1
  Te  Te142  1  0.58552288  0.91510594  0.44181760  1
  Te  Te143  1  0.58814601  0.93506715  0.75104465  1
  Te  Te144  1  0.93023909  0.26101780  0.08633302  1
  Te  Te145  1  0.92989918  0.23773854  0.41869789  1
  Te  Te146  1  0.94577086  0.25875680  0.73588896  1
  Te  Te147  1  0.90365445  0.56580176  0.07354838  1
  Te  Te148  1  0.89918310  0.61073225  0.42846540  1
  Te  Te149  1  0.95666774  0.59739477  0.75222309  1
  Te  Te150  1  0.93001180  0.94074795  0.06784798  1
  Te  Te151  1  0.94753552  0.93298965  0.40306708  1
  Te  Te152  1  0.93001678  0.91928175  0.75600632  1
  Te  Te153  1  0.28657049  0.11457547  0.25245083  1
  Te  Te154  1  0.24031583  0.04943687  0.60544881  1
  Te  Te155  1  0.21268538  0.12490100  0.94394174  1
  Te  Te156  1  0.23761736  0.41622203  0.26077387  1
  Te  Te157  1  0.22168835  0.42471141  0.58943258  1
  Te  Te158  1  0.22033357  0.38713093  0.88163301  1
  Te  Te159  1  0.23248733  0.74950228  0.24015467  1
  Te  Te160  1  0.26604500  0.75939655  0.58693575  1
  Te  Te161  1  0.26218517  0.75016600  0.92557430  1
  Te  Te162  1  0.55268557  0.06841118  0.24051799  1
  Te  Te163  1  0.59610135  0.09172365  0.58769741  1
  Te  Te164  1  0.57916169  0.06962593  0.90396778  1
  Te  Te165  1  0.55728427  0.40580407  0.22824940  1
  Te  Te166  1  0.57207175  0.40884316  0.57164497  1
  Te  Te167  1  0.57462882  0.40879713  0.90875028  1
  Te  Te168  1  0.58214595  0.74226547  0.24974984  1
  Te  Te169  1  0.58670744  0.75066017  0.60653159  1
  Te  Te170  1  0.60056108  0.74862183  0.89740936  1
  Te  Te171  1  0.92603420  0.09643762  0.24666244  1
  Te  Te172  1  0.92098830  0.06750873  0.58361779  1
  Te  Te173  1  0.92564933  0.10289407  0.90581313  1
  Te  Te174  1  0.93338220  0.40712285  0.27355950  1
  Te  Te175  1  0.93910988  0.43777905  0.60259504  1
  Te  Te176  1  0.91641946  0.40743471  0.91352676  1
  Te  Te177  1  0.90304911  0.76875973  0.25250464  1
  Te  Te178  1  0.88243747  0.78781290  0.60158684  1
  Te  Te179  1  0.95566972  0.74464958  0.92751295  1
