# generated using pymatgen
data_In2Te3
_symmetry_space_group_name_H-M   'P 1'
_cell_length_a   18.95845954
_cell_length_b   19.00434630
_cell_length_c   18.95733568
_cell_angle_alpha   90.00791812
_cell_angle_beta   89.99816023
_cell_angle_gamma   90.02974266
_symmetry_Int_Tables_number   1
_chemical_formula_structural   In2Te3
_chemical_formula_sum   'In72 Te108'
_cell_volume   6830.19683011
_cell_formula_units_Z   36
loop_
 _symmetry_equiv_pos_site_id
 _symmetry_equiv_pos_as_xyz
  1  'x, y, z'
loop_
 _atom_site_type_symbol
 _atom_site_label
 _atom_site_symmetry_multiplicity
 _atom_site_fract_x
 _atom_site_fract_y
 _atom_site_fract_z
 _atom_site_occupancy
  In  In0  1  0.34683968  0.49575850  0.82194896  1
  In  In1  1  0.33485538  0.49095123  0.49685270  1
  In  In2  1  0.81593616  0.65571910  0.53972382  1
  In  In3  1  0.30280651  0.69283499  -0.00074922  1
  In  In4  1  0.83863392  -0.00638090  0.84291118  1
  In  In5  1  0.01495152  0.84650236  0.17629321  1
  In  In6  1  0.13002756  0.84659776  -0.00910208  1
  In  In7  1  0.55743681  0.46346515  0.35430914  1
  In  In8  1  0.16473451  0.50741996  0.33515802  1
  In  In9  1  0.48924577  0.68660873  0.82800730  1
  In  In10  1  0.15766678  0.16970971  0.65393359  1
  In  In11  1  0.53105376  0.47121308  0.64889683  1
  In  In12  1  0.49911075  0.83312643  0.69649958  1
  In  In13  1  0.50553827  0.65678134  0.48851897  1
  In  In14  1  0.51052464  0.49610416  -0.01653794  1
  In  In15  1  0.67634567  0.48671421  0.16040599  1
  In  In16  1  -0.00964263  0.65982626  0.37165151  1
  In  In17  1  0.14578120  0.35493054  0.16013015  1
  In  In18  1  0.14385846  0.67716223  0.52227995  1
  In  In19  1  0.16510947  0.15938315  -0.00903387  1
  In  In20  1  0.31508749  0.66482185  0.29519891  1
  In  In21  1  0.51263558  0.64755491  0.16234921  1
  In  In22  1  0.51313961  0.02056728  0.49039055  1
  In  In23  1  -0.00378731  0.62989408  -0.03521967  1
  In  In24  1  0.15549395  0.01190791  0.49261911  1
  In  In25  1  0.50461210  0.82375852  -0.00334950  1
  In  In26  1  0.33285182  0.82339823  0.51268378  1
  In  In27  1  0.86485177  0.83319648  0.67888218  1
  In  In28  1  0.34364202  0.15528641  0.16678837  1
  In  In29  1  0.52762464  0.19796160  0.33337856  1
  In  In30  1  0.30446666  0.83271656  0.86483172  1
  In  In31  1  0.66986995  0.63489405  0.69903534  1
  In  In32  1  0.81899157  0.17102602  0.36259138  1
  In  In33  1  0.86770825  0.51390571  0.73753160  1
  In  In34  1  0.18468254  0.00553523  0.15106174  1
  In  In35  1  -0.00394231  0.33602379  0.32858395  1
  In  In36  1  0.33634714  -0.00751860  0.31937727  1
  In  In37  1  -0.02043418  0.00766179  0.33713933  1
  In  In38  1  -0.02290875  0.18397712  0.82341086  1
  In  In39  1  0.33843968  0.32312934  0.33884801  1
  In  In40  1  0.65873035  0.02441503  0.33312366  1
  In  In41  1  0.83857840  0.18816640  0.01169404  1
  In  In42  1  0.00754392  0.51142044  0.13797862  1
  In  In43  1  0.82633363  0.00007837  0.16378998  1
  In  In44  1  0.02489162  0.84935335  0.49761698  1
  In  In45  1  0.33352543  0.53473190  0.15227455  1
  In  In46  1  0.66153316  0.16956534  0.15133973  1
  In  In47  1  0.80939975  0.20669597  0.67890996  1
  In  In48  1  0.52085101  0.35100054  0.82354686  1
  In  In49  1  0.32201813  0.14766704  0.82718375  1
  In  In50  1  0.35619618  0.32661915  0.00604837  1
  In  In51  1  0.16014797  0.50872446  0.66954009  1
  In  In52  1  0.29232956  0.65288892  0.64597496  1
  In  In53  1  0.17227414  0.68021018  0.15212757  1
  In  In54  1  0.49320683  0.83961983  0.30972214  1
  In  In55  1  0.50728069  0.15964420  -0.00168151  1
  In  In56  1  0.83244887  0.33609746  0.16846354  1
  In  In57  1  0.67204471  0.83381276  0.82699730  1
  In  In58  1  0.51393288  0.16939557  0.64446187  1
  In  In59  1  0.17820001  0.32695924  0.83037834  1
  In  In60  1  0.85513318  0.65270053  0.16660962  1
  In  In61  1  -0.01129655  0.18705908  0.52071542  1
  In  In62  1  0.32991007  0.18234267  0.50038352  1
  In  In63  1  0.32766157  -0.02504138  0.69403765  1
  In  In64  1  0.83826698  0.83773118  0.36953562  1
  In  In65  1  0.65969282  0.82354834  0.16034556  1
  In  In66  1  -0.03607318  0.46179916  0.51247206  1
  In  In67  1  0.67471115  0.83142199  0.52869284  1
  In  In68  1  0.79495679  0.46464900  0.33649431  1
  In  In69  1  0.86386692  0.82422675  0.00028212  1
  In  In70  1  0.68091731  0.18365113  0.86252454  1
  In  In71  1  -0.01472288  0.02993619  0.69302482  1
  Te  Te72  1  0.08140545  0.07914313  0.07995776  1
  Te  Te73  1  0.06572262  0.10632099  0.41712860  1
  Te  Te74  1  0.09466730  0.10013973  0.77152949  1
  Te  Te75  1  0.06281202  0.40799858  0.05111085  1
  Te  Te76  1  0.08435262  0.41896598  0.42329355  1
  Te  Te77  1  0.07986967  0.42127943  0.76481133  1
  Te  Te78  1  0.05186139  0.73514438  0.07781727  1
  Te  Te79  1  0.09972800  0.76233830  0.39953845  1
  Te  Te80  1  0.06611931  0.70444641  0.68165530  1
  Te  Te81  1  0.39503891  0.07732641  0.05293778  1
  Te  Te82  1  0.42185089  0.09989717  0.39891248  1
  Te  Te83  1  0.42493478  0.08006129  0.73896992  1
  Te  Te84  1  0.42658124  0.43084948  0.09225559  1
  Te  Te85  1  0.43557090  0.40324705  0.42532211  1
  Te  Te86  1  0.41581126  0.40425430  0.72452096  1
  Te  Te87  1  0.41802508  0.73970395  0.08951007  1
  Te  Te88  1  0.40971437  0.74526100  0.40844419  1
  Te  Te89  1  0.38040819  0.74714252  0.73900047  1
  Te  Te90  1  0.74465128  0.07842566  0.06432245  1
  Te  Te91  1  0.74301754  0.07278238  0.44149852  1
  Te  Te92  1  0.75582274  0.09018443  0.76390376  1
  Te  Te93  1  0.77007357  0.42144140  0.06710713  1
  Te  Te94  1  0.71885088  0.37706829  0.43039823  1
  Te  Te95  1  0.74069025  0.42529528  0.76306907  1
  Te  Te96  1  0.76441015  0.74352162  0.08504665  1
  Te  Te97  1  0.74375029  0.73780595  0.43029816  1
  Te  Te98  1  0.76417979  0.74081060  0.75042050  1
  Te  Te99  1  0.08471437  0.25495320  0.24625176  1
  Te  Te100  1  0.08126000  0.27777923  0.59145827  1
  Te  Te101  1  0.07441083  0.25742998  0.91640567  1
  Te  Te102  1  0.07875321  0.59977120  0.25168939  1
  Te  Te103  1  0.05044554  0.57038651  0.57901655  1
  Te  Te104  1  0.04940224  0.53008603  0.87144348  1
  Te  Te105  1  0.09204911  0.93941723  0.26369346  1
  Te  Te106  1  0.07724039  0.94389462  0.60348500  1
  Te  Te107  1  0.07746512  0.92737030  0.88198940  1
  Te  Te108  1  0.42879339  0.26072923  0.23447399  1
  Te  Te109  1  0.43041465  0.26307276  0.56792556  1
  Te  Te110  1  0.42049477  0.25081288  0.89217000  1
  Te  Te111  1  0.43117235  0.57152715  0.26834381  1
  Te  Te112  1  0.42049940  0.58216355  0.59312439  1
  Te  Te113  1  0.40476894  0.59953873  0.92813669  1
  Te  Te114  1  0.42259287  0.92932118  0.21996281  1
  Te  Te115  1  0.43009326  0.91869466  0.57900427  1
  Te  Te116  1  0.43324218  0.89730539  0.88987087  1
  Te  Te117  1  0.74438577  0.24585912  0.25213272  1
  Te  Te118  1  0.72190970  0.26413992  0.57049559  1
  Te  Te119  1  0.79721981  0.27370616  0.89526731  1
  Te  Te120  1  0.75091764  0.58388086  0.25242346  1
  Te  Te121  1  0.73335391  0.54932457  0.59726782  1
  Te  Te122  1  0.76804120  0.54442075  0.85163551  1
  Te  Te123  1  0.75167389  0.91264867  0.26389016  1
  Te  Te124  1  0.76151788  0.91362986  0.61223037  1
  Te  Te125  1  0.75412992  0.90656767  0.93314151  1
  Te  Te126  1  0.24943477  0.25598372  0.08840379  1
  Te  Te127  1  0.23590443  0.26069592  0.42111487  1
  Te  Te128  1  0.26277964  0.24893399  0.73138145  1
  Te  Te129  1  0.22198989  0.57260675  0.05899031  1
  Te  Te130  1  0.24642237  0.60039786  0.42639869  1
  Te  Te131  1  0.23895455  0.58964370  0.77304988  1
  Te  Te132  1  0.24023927  0.88838638  0.07973886  1
  Te  Te133  1  0.25363960  0.91780357  0.42239072  1
  Te  Te134  1  0.22019169  0.92516971  0.78306541  1
  Te  Te135  1  0.59180343  0.26421088  0.06113287  1
  Te  Te136  1  0.62076663  0.25595948  0.43469673  1
  Te  Te137  1  0.59774092  0.24539584  0.75079105  1
  Te  Te138  1  0.60618148  0.58354630  0.06306033  1
  Te  Te139  1  0.61212605  0.57267486  0.43404187  1
  Te  Te140  1  0.55816611  0.56327768  0.77122254  1
  Te  Te141  1  0.57725832  0.91610350  0.08593558  1
  Te  Te142  1  0.58439159  0.90444466  0.41488995  1
  Te  Te143  1  0.60179177  0.92676634  0.73789147  1
  Te  Te144  1  0.93483281  0.26087598  0.09563941  1
  Te  Te145  1  0.90242949  0.27640629  0.43278562  1
  Te  Te146  1  0.94103479  0.27252677  0.70764258  1
  Te  Te147  1  0.89087862  0.56037447  0.05090067  1
  Te  Te148  1  0.88461827  0.56323275  0.42653983  1
  Te  Te149  1  0.97232116  0.63004082  0.76454630  1
  Te  Te150  1  0.93434659  0.93258567  0.08143133  1
  Te  Te151  1  0.90967930  0.93941978  0.45299701  1
  Te  Te152  1  0.95583673  0.90335004  0.78439891  1
  Te  Te153  1  0.24324890  0.09695155  0.26268617  1
  Te  Te154  1  0.26328294  0.06768862  0.58784077  1
  Te  Te155  1  0.27059490  0.06710596  0.94038015  1
  Te  Te156  1  0.26065704  0.43113936  0.24663748  1
  Te  Te157  1  0.24474146  0.42006386  0.58642878  1
  Te  Te158  1  0.26464713  0.41455329  0.92053292  1
  Te  Te159  1  0.25505662  0.77749314  0.22482218  1
  Te  Te160  1  0.22014005  0.78173183  0.60454107  1
  Te  Te161  1  0.19372526  0.73546321  0.90332284  1
  Te  Te162  1  0.56522082  0.08572536  0.23411537  1
  Te  Te163  1  0.61217720  0.08014237  0.57902459  1
  Te  Te164  1  0.59051348  0.07922724  0.91040418  1
  Te  Te165  1  0.59587195  0.38917748  0.23575233  1
  Te  Te166  1  0.60790390  0.37001342  0.57136226  1
  Te  Te167  1  0.60292319  0.38838642  0.94151280  1
  Te  Te168  1  0.59018360  0.73361053  0.26065665  1
  Te  Te169  1  0.57970514  0.73533382  0.60239210  1
  Te  Te170  1  0.60115881  0.73468849  0.91760025  1
  Te  Te171  1  0.90006328  0.10059407  0.24966188  1
  Te  Te172  1  0.89264406  0.10046139  0.59837432  1
  Te  Te173  1  0.92034963  0.08791164  0.92678022  1
  Te  Te174  1  0.92487904  0.44613896  0.24934409  1
  Te  Te175  1  0.88476352  0.41002161  0.62541129  1
  Te  Te176  1  0.86817374  0.41333548  0.85616153  1
  Te  Te177  1  0.91660174  0.76139914  0.26359484  1
  Te  Te178  1  0.93253258  0.74992189  0.57074605  1
  Te  Te179  1  0.91691908  0.73306860  0.89561842  1
