# generated using pymatgen
data_In2Te3
_symmetry_space_group_name_H-M   'P 1'
_cell_length_a   18.79551963
_cell_length_b   18.78222064
_cell_length_c   18.78713060
_cell_angle_alpha   89.98366139
_cell_angle_beta   89.86026563
_cell_angle_gamma   90.04820749
_symmetry_Int_Tables_number   1
_chemical_formula_structural   In2Te3
_chemical_formula_sum   'In72 Te108'
_cell_volume   6632.24049536
_cell_formula_units_Z   36
loop_
 _symmetry_equiv_pos_site_id
 _symmetry_equiv_pos_as_xyz
  1  'x, y, z'
loop_
 _atom_site_type_symbol
 _atom_site_label
 _atom_site_symmetry_multiplicity
 _atom_site_fract_x
 _atom_site_fract_y
 _atom_site_fract_z
 _atom_site_occupancy
  In  In0  1  0.34558860  0.16568420  0.17752803  1
  In  In1  1  0.17508892  -0.01314176  0.15654332  1
  In  In2  1  0.67971043  0.49277655  0.50439229  1
  In  In3  1  0.67417987  -0.00191828  0.01684037  1
  In  In4  1  0.32776474  -0.00636566  0.35749746  1
  In  In5  1  -0.00607228  0.49165555  0.17025803  1
  In  In6  1  0.16228105  0.49267352  0.65745300  1
  In  In7  1  0.16669200  0.63887769  0.19308209  1
  In  In8  1  0.15509838  0.68274778  0.82045420  1
  In  In9  1  0.51173459  -0.00199020  0.84160466  1
  In  In10  1  0.80661440  -0.00598791  0.17584380  1
  In  In11  1  0.45878858  0.18684044  0.64176314  1
  In  In12  1  -0.00471992  0.02798733  0.36141144  1
  In  In13  1  0.15175937  0.51503282  0.01658884  1
  In  In14  1  0.87920246  -0.00796375  0.83433140  1
  In  In15  1  0.48244402  0.80170245  0.03209479  1
  In  In16  1  0.49048740  0.35866645  0.84731263  1
  In  In17  1  0.50065822  0.83173983  0.66761233  1
  In  In18  1  -0.01302958  0.63636211  0.66840579  1
  In  In19  1  0.82817215  0.33570779  0.50389757  1
  In  In20  1  0.15564818  0.36637296  0.19938919  1
  In  In21  1  0.16735466  0.18788765  0.36336826  1
  In  In22  1  0.81688279  0.17411088  0.32649020  1
  In  In23  1  0.31495243  0.16908729  0.84080513  1
  In  In24  1  -0.03647207  0.20872318  0.14220302  1
  In  In25  1  -0.00035183  0.82152767  0.80913404  1
  In  In26  1  0.83449707  -0.00659757  0.48965112  1
  In  In27  1  0.83761893  0.66749969  0.17017031  1
  In  In28  1  0.33276356  0.48990130  0.49686894  1
  In  In29  1  0.65922980  0.16547572  0.82449813  1
  In  In30  1  0.01301744  0.01478444  -0.01900097  1
  In  In31  1  0.50153008  0.67487131  0.50888642  1
  In  In32  1  0.17323391  0.16974020  -0.00896942  1
  In  In33  1  0.66167353  0.16230168  0.17675194  1
  In  In34  1  0.83446653  0.84047762  0.33942454  1
  In  In35  1  0.65929360  0.33868879  0.00856517  1
  In  In36  1  0.50455553  0.00353178  0.47850174  1
  In  In37  1  0.69667493  0.65674770  -0.01676933  1
  In  In38  1  0.32365595  0.33033989  -0.00531822  1
  In  In39  1  0.02077156  0.15293637  0.50607581  1
  In  In40  1  0.17000145  0.82348129  0.35078194  1
  In  In41  1  0.70462281  0.79077525  0.80488395  1
  In  In42  1  0.31506512  0.01034908  0.64878870  1
  In  In43  1  0.34447459  0.84058772  0.82772084  1
  In  In44  1  0.67844327  -0.00741002  0.63760355  1
  In  In45  1  -0.01090681  0.83056398  0.18285030  1
  In  In46  1  0.50496418  0.83241106  0.34592363  1
  In  In47  1  0.30370086  0.50747969  0.19568059  1
  In  In48  1  0.49104911  0.32588238  0.18857633  1
  In  In49  1  0.49694201  0.01515377  0.17316722  1
  In  In50  1  0.00037172  0.67811690  -0.00904313  1
  In  In51  1  0.33572987  0.66660244  0.32912332  1
  In  In52  1  0.50285473  0.49873199  0.66694759  1
  In  In53  1  0.82605209  0.82871429  -0.00174101  1
  In  In54  1  -0.00330731  0.33392449  0.64755208  1
  In  In55  1  0.51079361  0.67049274  0.83315136  1
  In  In56  1  0.34101889  0.50511135  0.81869685  1
  In  In57  1  0.67002357  0.67263579  0.32090620  1
  In  In58  1  0.66812635  0.33973095  0.66241345  1
  In  In59  1  0.17884463  0.01359347  0.80476654  1
  In  In60  1  0.19309134  0.68264563  0.51370613  1
  In  In61  1  0.85136530  0.35041993  0.84197761  1
  In  In62  1  0.84912846  0.49656004  0.66039727  1
  In  In63  1  0.67301833  0.51206636  0.15518254  1
  In  In64  1  0.18665117  0.83954490  0.00664745  1
  In  In65  1  0.48211126  0.49656148  0.32052079  1
  In  In66  1  0.86384909  0.63929475  0.48242548  1
  In  In67  1  0.01199983  0.35897609  0.34938341  1
  In  In68  1  0.62836398  0.17101487  0.45031390  1
  In  In69  1  0.15460401  0.32407364  0.81467312  1
  In  In70  1  0.84153121  0.16698707  0.65419425  1
  In  In71  1  0.50739444  0.49578924  0.01161487  1
  Te  Te72  1  0.07952577  0.09260075  0.09517497  1
  Te  Te73  1  0.12658851  0.05710328  0.43174045  1
  Te  Te74  1  0.06502316  0.07766545  0.73987318  1
  Te  Te75  1  0.07671630  0.39692005  0.07191727  1
  Te  Te76  1  0.07313659  0.44643767  0.44990703  1
  Te  Te77  1  0.06124855  0.42697082  0.75132717  1
  Te  Te78  1  0.08729985  0.74839750  0.09559164  1
  Te  Te79  1  0.08100650  0.74782862  0.44010752  1
  Te  Te80  1  0.08567602  0.75262799  0.70375062  1
  Te  Te81  1  0.41307196  0.08712379  0.07400910  1
  Te  Te82  1  0.39653366  0.10007559  0.43810367  1
  Te  Te83  1  0.41635092  0.07586789  0.75096142  1
  Te  Te84  1  0.40301532  0.41805397  0.09412525  1
  Te  Te85  1  0.43212681  0.40236195  0.42444098  1
  Te  Te86  1  0.40188901  0.39773480  0.72920921  1
  Te  Te87  1  0.38517892  0.72122275  0.10547326  1
  Te  Te88  1  0.40038149  0.75812708  0.43164402  1
  Te  Te89  1  0.40821089  0.73369762  0.73925317  1
  Te  Te90  1  0.76849196  0.10170428  0.07660056  1
  Te  Te91  1  0.73566234  0.06995068  0.40310230  1
  Te  Te92  1  0.75740419  0.07725482  0.74797201  1
  Te  Te93  1  0.76302018  0.42693389  0.07107569  1
  Te  Te94  1  0.75000673  0.41060162  0.40436980  1
  Te  Te95  1  0.74808887  0.42607612  0.75399326  1
  Te  Te96  1  0.73928122  0.75814571  0.09888701  1
  Te  Te97  1  0.75913507  0.73728566  0.42592816  1
  Te  Te98  1  0.77035499  0.71650598  0.69604075  1
  Te  Te99  1  0.07136815  0.24257383  0.25666944  1
  Te  Te100  1  0.10170658  0.25284450  0.57952707  1
  Te  Te101  1  0.07528054  0.23921509  0.90673603  1
  Te  Te102  1  0.06954355  0.56668780  0.28223808  1
  Te  Te103  1  0.08116929  0.57752474  0.56008364  1
  Te  Te104  1  0.07480961  0.57918750  0.90144083  1
  Te  Te105  1  0.07901640  0.92519469  0.26139439  1
  Te  Te106  1  0.11660193  0.98801141  0.63090484  1
  Te  Te107  1  0.08953933  0.90461142  0.90495398  1
  Te  Te108  1  0.42263773  0.23477183  0.28737384  1
  Te  Te109  1  0.37772288  0.24077799  0.53131146  1
  Te  Te110  1  0.42350367  0.24203105  0.92159512  1
  Te  Te111  1  0.42946384  0.60407984  0.22491857  1
  Te  Te112  1  0.40540230  0.58808750  0.59020567  1
  Te  Te113  1  0.41907587  0.58486855  0.92194255  1
  Te  Te114  1  0.41154896  0.91711147  0.25741997  1
  Te  Te115  1  0.41841710  0.92225504  0.57828008  1
  Te  Te116  1  0.42742951  0.91030219  0.93333073  1
  Te  Te117  1  0.74488116  0.26756346  0.23998264  1
  Te  Te118  1  0.73184114  0.23270401  0.57007952  1
  Te  Te119  1  0.74470483  0.25738272  0.90879917  1
  Te  Te120  1  0.76589442  0.56896227  0.26257098  1
  Te  Te121  1  0.74473405  0.59254302  0.59890916  1
  Te  Te122  1  0.79323972  0.59578355  0.89113826  1
  Te  Te123  1  0.72765664  0.90281924  0.25818724  1
  Te  Te124  1  0.76886228  0.89343273  0.57817092  1
  Te  Te125  1  0.75206553  0.92509159  0.90608474  1
  Te  Te126  1  0.24057112  0.25929571  0.10167992  1
  Te  Te127  1  0.24822243  0.27745685  0.44883098  1
  Te  Te128  1  0.24659723  0.24167786  0.73358085  1
  Te  Te129  1  0.26337604  0.59890467  0.07474823  1
  Te  Te130  1  0.24312394  0.57898444  0.41030441  1
  Te  Te131  1  0.24764338  0.59257594  0.73599298  1
  Te  Te132  1  0.28360617  0.91318150  0.08986330  1
  Te  Te133  1  0.25874581  0.89510734  0.44837704  1
  Te  Te134  1  0.24047800  0.88832077  0.72551492  1
  Te  Te135  1  0.56703844  0.24418116  0.08530426  1
  Te  Te136  1  0.54824727  0.27010027  0.37996388  1
  Te  Te137  1  0.56630056  0.25887076  0.74663879  1
  Te  Te138  1  0.58481067  0.60823397  0.07877120  1
  Te  Te139  1  0.57751924  0.58044234  0.41518763  1
  Te  Te140  1  0.59304731  0.57828622  0.75184220  1
  Te  Te141  1  0.57742257  0.91017340  0.09339183  1
  Te  Te142  1  0.60101184  0.90138940  0.43495439  1
  Te  Te143  1  0.60228111  0.91291502  0.75262588  1
  Te  Te144  1  0.88747050  0.30667157  0.06078971  1
  Te  Te145  1  0.91746785  0.23671898  0.42561160  1
  Te  Te146  1  0.92476127  0.24684685  0.75073134  1
  Te  Te147  1  0.91429165  0.58061017  0.07146236  1
  Te  Te148  1  0.95007258  0.56535932  0.38662934  1
  Te  Te149  1  0.90563352  0.57134992  0.77986402  1
  Te  Te150  1  0.92438561  0.91798441  0.07544702  1
  Te  Te151  1  0.94457508  0.90222628  0.42904299  1
  Te  Te152  1  0.90314870  0.89664717  0.72516701  1
  Te  Te153  1  0.23956249  0.08681230  0.25660261  1
  Te  Te154  1  0.21400900  0.09598597  0.58352046  1
  Te  Te155  1  0.25647571  0.05810645  0.92891005  1
  Te  Te156  1  0.26496592  0.40033951  0.29110885  1
  Te  Te157  1  0.24523144  0.39782042  0.57758236  1
  Te  Te158  1  0.24138688  0.42692113  0.91064620  1
  Te  Te159  1  0.25176393  0.75902718  0.23934950  1
  Te  Te160  1  0.24684161  0.79113157  0.59940223  1
  Te  Te161  1  0.26016080  0.74355764  0.91339693  1
  Te  Te162  1  0.58127449  0.08445420  0.27432100  1
  Te  Te163  1  0.57485127  0.09551625  0.59115555  1
  Te  Te164  1  0.58363612  0.09284681  0.93605059  1
  Te  Te165  1  0.59431478  0.42002411  0.24934963  1
  Te  Te166  1  0.57020930  0.40373806  0.56549350  1
  Te  Te167  1  0.60307107  0.44176288  0.90581540  1
  Te  Te168  1  0.57295617  0.74934818  0.24281875  1
  Te  Te169  1  0.59789885  0.75183964  0.58932881  1
  Te  Te170  1  0.59433752  0.76481260  0.91969548  1
  Te  Te171  1  0.91540078  0.07958281  0.24276094  1
  Te  Te172  1  0.92953308  0.06142247  0.58889726  1
  Te  Te173  1  0.91565357  0.10646557  0.91925932  1
  Te  Te174  1  0.91094222  0.39717478  0.24943450  1
  Te  Te175  1  0.93633109  0.43518506  0.54781949  1
  Te  Te176  1  0.93613564  0.40396433  0.94944170  1
  Te  Te177  1  0.92704566  0.73091768  0.27684754  1
  Te  Te178  1  0.90735890  0.73646937  0.58871700  1
  Te  Te179  1  0.89884592  0.74154059  0.89569954  1
