# generated using pymatgen
data_In2Te3
_symmetry_space_group_name_H-M   'P 1'
_cell_length_a   18.82796002
_cell_length_b   18.84368027
_cell_length_c   18.84891368
_cell_angle_alpha   90.02914066
_cell_angle_beta   90.01626654
_cell_angle_gamma   90.03408998
_symmetry_Int_Tables_number   1
_chemical_formula_structural   In2Te3
_chemical_formula_sum   'In72 Te108'
_cell_volume   6687.36717930
_cell_formula_units_Z   36
loop_
 _symmetry_equiv_pos_site_id
 _symmetry_equiv_pos_as_xyz
  1  'x, y, z'
loop_
 _atom_site_type_symbol
 _atom_site_label
 _atom_site_symmetry_multiplicity
 _atom_site_fract_x
 _atom_site_fract_y
 _atom_site_fract_z
 _atom_site_occupancy
  In  In0  1  0.51390653  0.17631213  0.00026089  1
  In  In1  1  0.76705114  0.51041494  0.31356495  1
  In  In2  1  -0.00293191  -0.02291164  0.36338226  1
  In  In3  1  -0.00309806  0.66224652  0.32406827  1
  In  In4  1  0.49410384  0.70011464  0.48943449  1
  In  In5  1  0.32919134  0.66160445  0.67588159  1
  In  In6  1  0.65281563  0.81085802  0.82920184  1
  In  In7  1  0.82159881  0.32056008  0.50906080  1
  In  In8  1  0.82915771  0.51087240  0.00111071  1
  In  In9  1  0.00908565  0.53157245  0.51979961  1
  In  In10  1  0.19086974  0.66291726  0.84799686  1
  In  In11  1  0.49904822  0.84282832  0.66044942  1
  In  In12  1  0.81749245  0.67529353  0.18654546  1
  In  In13  1  0.15137879  -0.00773992  0.82259362  1
  In  In14  1  0.34966101  -0.01948458  -0.01663179  1
  In  In15  1  0.01211078  0.15371470  0.84202433  1
  In  In16  1  0.18788867  0.81050783  0.31280177  1
  In  In17  1  0.17981183  0.64731072  0.51179885  1
  In  In18  1  0.81065130  0.13940538  0.30744906  1
  In  In19  1  0.02081585  0.35097176  0.70132370  1
  In  In20  1  0.65463123  -0.00450309  0.35974281  1
  In  In21  1  0.33937657  -0.00274008  0.32556549  1
  In  In22  1  0.50241474  0.50324640  0.68387913  1
  In  In23  1  0.35833006  0.30825530  0.29195052  1
  In  In24  1  0.17990298  0.34526559  0.13972899  1
  In  In25  1  0.17009824  0.00903949  0.51443979  1
  In  In26  1  0.18620193  0.51014616  0.36786400  1
  In  In27  1  0.83767965  -0.00035406  0.83931363  1
  In  In28  1  0.64226800  0.18128441  0.49865411  1
  In  In29  1  0.50703258  -0.00509459  0.15880027  1
  In  In30  1  0.18010397  0.01028448  0.15014181  1
  In  In31  1  0.16690758  0.18374179  0.00321491  1
  In  In32  1  0.31928654  0.15907073  0.50846237  1
  In  In33  1  0.49064040  0.66054767  0.11846611  1
  In  In34  1  0.65693293  0.16637955  0.15113724  1
  In  In35  1  0.83565549  0.67622254  0.50503142  1
  In  In36  1  0.17895756  0.15409795  0.33810353  1
  In  In37  1  0.33890610  0.48416575  0.48210141  1
  In  In38  1  -0.00229259  0.83682248  0.15760285  1
  In  In39  1  0.16837095  0.83243325  0.67235274  1
  In  In40  1  0.34869643  0.50670608  0.16064993  1
  In  In41  1  0.21342400  0.64739043  0.15235590  1
  In  In42  1  0.66509789  0.49810063  0.84851661  1
  In  In43  1  -0.01297055  0.33102058  0.31041421  1
  In  In44  1  0.82970472  0.67188169  0.81614003  1
  In  In45  1  0.65656548  0.82186451  0.16344357  1
  In  In46  1  -0.01287109  0.84263740  0.83501623  1
  In  In47  1  0.67586055  0.85773204  0.52350911  1
  In  In48  1  0.83213017  0.15216544  0.66822012  1
  In  In49  1  0.33847863  0.16146320  0.82213410  1
  In  In50  1  0.34071602  0.35802985  -0.01806961  1
  In  In51  1  0.82140161  0.33583342  0.85423206  1
  In  In52  1  0.49092865  -0.00554532  0.50138918  1
  In  In53  1  0.65581509  0.66717854  0.32775808  1
  In  In54  1  0.65781523  0.51485977  0.50863063  1
  In  In55  1  0.00858623  0.67413768  -0.00932059  1
  In  In56  1  0.50757317  0.16754044  0.67830481  1
  In  In57  1  0.66734528  0.00709612  0.00267376  1
  In  In58  1  0.48866296  0.33943483  0.49100050  1
  In  In59  1  0.33688824  0.82448888  0.83440229  1
  In  In60  1  0.82114153  0.33798213  0.13754575  1
  In  In61  1  0.32564201  0.35109653  0.69919120  1
  In  In62  1  0.01626455  0.48137234  0.15680717  1
  In  In63  1  0.82363589  -0.00338068  0.15538160  1
  In  In64  1  -0.02269433  0.18869927  0.14903522  1
  In  In65  1  0.84118290  0.48694944  0.68501768  1
  In  In66  1  0.66326652  0.18496626  0.83661169  1
  In  In67  1  0.18794673  0.82711552  -0.02497618  1
  In  In68  1  -0.02986069  0.17646135  0.53608869  1
  In  In69  1  -0.01855970  0.82247779  0.51029697  1
  In  In70  1  0.49799234  0.62573078  0.88333301  1
  In  In71  1  0.15921629  0.33538220  0.51586185  1
  Te  Te72  1  0.07177770  0.08929087  0.07816452  1
  Te  Te73  1  0.06981193  0.10162068  0.43036459  1
  Te  Te74  1  0.06168316  0.06727608  0.73409914  1
  Te  Te75  1  0.07623911  0.40056453  0.04833480  1
  Te  Te76  1  0.07075429  0.41360506  0.41089913  1
  Te  Te77  1  0.12520606  0.41888220  0.77823381  1
  Te  Te78  1  0.10706099  0.74915822  0.09177648  1
  Te  Te79  1  0.09115262  0.74093162  0.41580928  1
  Te  Te80  1  0.08968221  0.74860572  0.77007205  1
  Te  Te81  1  0.41748454  0.08431121  0.07429102  1
  Te  Te82  1  0.41835885  0.09625008  0.41254934  1
  Te  Te83  1  0.42198157  0.06857100  0.74469464  1
  Te  Te84  1  0.42840436  0.39742475  0.09689343  1
  Te  Te85  1  0.42633331  0.41859120  0.37500448  1
  Te  Te86  1  0.42556261  0.42415762  0.78311588  1
  Te  Te87  1  0.38149723  0.75713568  0.09116378  1
  Te  Te88  1  0.38139339  0.74516168  0.40840630  1
  Te  Te89  1  0.43420550  0.73277987  0.75936034  1
  Te  Te90  1  0.76771470  0.10561604  0.06539615  1
  Te  Te91  1  0.74888413  0.08791892  0.43501231  1
  Te  Te92  1  0.73371771  0.07628657  0.75489146  1
  Te  Te93  1  0.72712731  0.41159785  0.04893398  1
  Te  Te94  1  0.72907821  0.40630753  0.42496898  1
  Te  Te95  1  0.73290807  0.40357950  0.74895296  1
  Te  Te96  1  0.75291666  0.74983458  0.07821751  1
  Te  Te97  1  0.73769907  0.75491379  0.41973311  1
  Te  Te98  1  0.75816404  0.76952755  0.73179466  1
  Te  Te99  1  0.09679360  0.24980926  0.24131385  1
  Te  Te100  1  0.08545976  0.24316264  0.61087156  1
  Te  Te101  1  0.09231003  0.26232930  0.90311223  1
  Te  Te102  1  0.10116919  0.57878017  0.24951713  1
  Te  Te103  1  0.10126498  0.58512288  0.61964079  1
  Te  Te104  1  0.09175245  0.57821219  0.91789657  1
  Te  Te105  1  0.09529582  0.92560320  0.25437141  1
  Te  Te106  1  0.07345894  0.91710620  0.58900342  1
  Te  Te107  1  0.07508999  0.92065256  0.93399158  1
  Te  Te108  1  0.47753191  0.24668496  0.23285505  1
  Te  Te109  1  0.40257365  0.26027252  0.59029769  1
  Te  Te110  1  0.42586113  0.25486601  0.90487880  1
  Te  Te111  1  0.45540454  0.57526722  0.23507829  1
  Te  Te112  1  0.41925148  0.57845062  0.57820479  1
  Te  Te113  1  0.37713102  0.58076969  0.96608025  1
  Te  Te114  1  0.43679631  0.91127794  0.25794690  1
  Te  Te115  1  0.39752946  0.91016973  0.57710535  1
  Te  Te116  1  0.44310796  0.90299396  0.90123123  1
  Te  Te117  1  0.74235586  0.25657303  0.24333023  1
  Te  Te118  1  0.72991370  0.24883914  0.60459560  1
  Te  Te119  1  0.72308048  0.27015671  0.94465806  1
  Te  Te120  1  0.69108260  0.58105592  0.19445945  1
  Te  Te121  1  0.75791632  0.58301131  0.60007104  1
  Te  Te122  1  0.74224115  0.60838051  0.92408878  1
  Te  Te123  1  0.73545726  0.92026336  0.25120994  1
  Te  Te124  1  0.79815343  0.92245961  0.57547443  1
  Te  Te125  1  0.74300915  0.90897898  0.91747746  1
  Te  Te126  1  0.28066161  0.25036469  0.07935035  1
  Te  Te127  1  0.25534978  0.26986502  0.41314692  1
  Te  Te128  1  0.23673038  0.24561194  0.75443736  1
  Te  Te129  1  0.24727095  0.54073852  0.05270355  1
  Te  Te130  1  0.29587873  0.61473008  0.40303081  1
  Te  Te131  1  0.28363813  0.56771592  0.78164862  1
  Te  Te132  1  0.26623445  0.90333932  0.08827639  1
  Te  Te133  1  0.23852026  0.92071510  0.41100578  1
  Te  Te134  1  0.26466591  0.92485190  0.74537625  1
  Te  Te135  1  0.56284365  0.27653813  0.10433660  1
  Te  Te136  1  0.56979581  0.25845894  0.39595096  1
  Te  Te137  1  0.56925877  0.27159784  0.76156881  1
  Te  Te138  1  0.55784461  0.56209073  0.01621422  1
  Te  Te139  1  0.56113052  0.58406123  0.41488164  1
  Te  Te140  1  0.59294628  0.59784762  0.75838731  1
  Te  Te141  1  0.57381375  0.89984110  0.06130056  1
  Te  Te142  1  0.56545788  0.88920509  0.41900937  1
  Te  Te143  1  0.59553395  0.91727295  0.74253785  1
  Te  Te144  1  0.93333838  0.29004724  0.05225853  1
  Te  Te145  1  0.90365112  0.24222863  0.40303903  1
  Te  Te146  1  0.90771089  0.25647692  0.75163862  1
  Te  Te147  1  0.92506358  0.59413740  0.10156121  1
  Te  Te148  1  0.90780891  0.57409219  0.41109950  1
  Te  Te149  1  0.92931137  0.56659476  0.77439236  1
  Te  Te150  1  0.91317325  0.91799753  0.06988405  1
  Te  Te151  1  0.88555581  0.90100339  0.42542486  1
  Te  Te152  1  0.89729419  0.90795171  0.73729486  1
  Te  Te153  1  0.27277388  0.10054830  0.23189466  1
  Te  Te154  1  0.24078570  0.09236333  0.61247764  1
  Te  Te155  1  0.24092707  0.07194970  0.92183471  1
  Te  Te156  1  0.24619912  0.41749911  0.25753737  1
  Te  Te157  1  0.24539138  0.43435731  0.59137900  1
  Te  Te158  1  0.25198364  0.40144052  0.86824249  1
  Te  Te159  1  0.29678287  0.73797463  0.23924505  1
  Te  Te160  1  0.26190363  0.75818761  0.57848462  1
  Te  Te161  1  0.30756550  0.72293521  0.95729077  1
  Te  Te162  1  0.58400048  0.08314443  0.25724382  1
  Te  Te163  1  0.58884914  0.07079312  0.58884517  1
  Te  Te164  1  0.57553775  0.07698900  0.90397933  1
  Te  Te165  1  0.64501844  0.44966181  0.26005860  1
  Te  Te166  1  0.58073213  0.41152953  0.58937971  1
  Te  Te167  1  0.55949593  0.43872570  0.93246566  1
  Te  Te168  1  0.55462367  0.74159222  0.24120685  1
  Te  Te169  1  0.59721418  0.74492980  0.58997491  1
  Te  Te170  1  0.56475086  0.74841388  0.93387678  1
  Te  Te171  1  0.93668480  0.07429080  0.25182341  1
  Te  Te172  1  0.89771716  0.05198281  0.57640316  1
  Te  Te173  1  0.90749769  0.09634531  0.92729987  1
  Te  Te174  1  0.89414636  0.43422218  0.24652692  1
  Te  Te175  1  0.92815049  0.40973173  0.57643855  1
  Te  Te176  1  0.91305389  0.44789415  0.89400675  1
  Te  Te177  1  0.90948841  0.77122846  0.26392316  1
  Te  Te178  1  0.92886549  0.72616338  0.60760291  1
  Te  Te179  1  0.90121571  0.75736358  0.92730703  1
