# generated using pymatgen
data_In2Te3
_symmetry_space_group_name_H-M   'P 1'
_cell_length_a   18.77732754
_cell_length_b   18.78597602
_cell_length_c   18.77692303
_cell_angle_alpha   89.99896161
_cell_angle_beta   90.01482823
_cell_angle_gamma   90.00449487
_symmetry_Int_Tables_number   1
_chemical_formula_structural   In2Te3
_chemical_formula_sum   'In72 Te108'
_cell_volume   6623.56733452
_cell_formula_units_Z   36
loop_
 _symmetry_equiv_pos_site_id
 _symmetry_equiv_pos_as_xyz
  1  'x, y, z'
loop_
 _atom_site_type_symbol
 _atom_site_label
 _atom_site_symmetry_multiplicity
 _atom_site_fract_x
 _atom_site_fract_y
 _atom_site_fract_z
 _atom_site_occupancy
  In  In0  1  0.48401386  0.18678969  -0.00369700  1
  In  In1  1  0.50249287  0.83363445  0.33362882  1
  In  In2  1  0.33337877  0.51805696  0.14568699  1
  In  In3  1  0.68290049  -0.00459485  0.01265932  1
  In  In4  1  0.85019359  0.35284440  0.50428386  1
  In  In5  1  0.83494819  0.16868487  0.01129719  1
  In  In6  1  0.49783554  0.49183795  0.33231415  1
  In  In7  1  0.30021927  0.34604821  -0.04776740  1
  In  In8  1  0.34504166  0.15816917  0.15454774  1
  In  In9  1  0.65668443  0.49948852  0.84328445  1
  In  In10  1  0.15424556  0.33642868  0.50968010  1
  In  In11  1  0.83929372  0.50770626  0.30381254  1
  In  In12  1  0.66076865  0.83613598  0.86067479  1
  In  In13  1  0.67601136  0.18086151  0.49826845  1
  In  In14  1  0.02889776  0.49147408  0.83633407  1
  In  In15  1  0.00552062  0.50599804  0.51069439  1
  In  In16  1  0.67047721  0.30657953  0.32636596  1
  In  In17  1  0.33809349  0.50616943  0.50528991  1
  In  In18  1  0.67906072  0.67172992  0.33431677  1
  In  In19  1  0.16768935  0.66948668  0.15104806  1
  In  In20  1  0.15987564  0.65933961  0.81934401  1
  In  In21  1  0.30639687  0.31250154  0.33310769  1
  In  In22  1  -0.00216027  0.47551821  0.15874793  1
  In  In23  1  0.84560992  -0.00144787  0.48005945  1
  In  In24  1  0.33170875  0.66728865  0.67669376  1
  In  In25  1  0.01665542  0.00273849  0.65250407  1
  In  In26  1  0.65836191  0.16871346  0.83224946  1
  In  In27  1  -0.01925395  0.17009370  0.17141805  1
  In  In28  1  0.32534757  0.83817472  0.50906537  1
  In  In29  1  0.83012766  0.50235535  0.64216418  1
  In  In30  1  0.15807910  0.17186046  -0.03636119  1
  In  In31  1  -0.02437769  -0.00597522  0.03132128  1
  In  In32  1  -0.00778254  0.67995663  0.32507408  1
  In  In33  1  0.66370881  0.32550793  0.66930434  1
  In  In34  1  0.16862463  0.49905085  0.35804809  1
  In  In35  1  0.83683257  0.66358480  0.86213317  1
  In  In36  1  0.83113976  0.15865738  0.32759752  1
  In  In37  1  0.00868315  0.84916449  0.50910572  1
  In  In38  1  0.66675598  0.65527962  0.67168507  1
  In  In39  1  0.50890779  0.52417581  0.01022850  1
  In  In40  1  0.87398142  0.30654439  0.80476052  1
  In  In41  1  0.67246002  0.02165580  0.67055065  1
  In  In42  1  0.34328211  0.64803630  0.33216513  1
  In  In43  1  0.85362535  0.83317594  0.66553856  1
  In  In44  1  0.18472931  0.00789824  0.82188375  1
  In  In45  1  0.47960743  0.81547420  0.66805764  1
  In  In46  1  0.32297548  0.00185468  0.64984269  1
  In  In47  1  0.15892144  0.14873411  0.34455841  1
  In  In48  1  0.50601853  0.33032079  0.14865508  1
  In  In49  1  0.82448300  0.01549285  0.85630774  1
  In  In50  1  0.50247556  0.00732152  0.18313339  1
  In  In51  1  0.66724079  0.83275305  0.47571219  1
  In  In52  1  0.48979742  0.84053152  -0.01794642  1
  In  In53  1  0.14952164  0.33054746  0.15495044  1
  In  In54  1  0.33850086  0.84237978  0.15741952  1
  In  In55  1  0.15973359  0.82949022  0.00119221  1
  In  In56  1  0.65958737  0.50709745  0.50689695  1
  In  In57  1  0.48449562  0.13065569  0.36393679  1
  In  In58  1  0.01921896  0.15682916  0.50088656  1
  In  In59  1  0.47809895  -0.00254047  0.81946247  1
  In  In60  1  0.83046722  0.49661310  0.00011359  1
  In  In61  1  0.49058686  0.17208169  0.65563351  1
  In  In62  1  0.16327826  0.84580062  0.35166407  1
  In  In63  1  0.32654764  0.65866665  -0.01017325  1
  In  In64  1  0.82946207  0.67665628  0.16115936  1
  In  In65  1  0.00186014  0.81974992  0.84412301  1
  In  In66  1  0.69945408  0.84046422  0.18970159  1
  In  In67  1  0.31341802  0.31698890  0.68407586  1
  In  In68  1  0.00998225  0.65937320  0.66929426  1
  In  In69  1  0.16480655  -0.00419561  0.17949849  1
  In  In70  1  0.48058019  0.48841190  0.67472889  1
  In  In71  1  0.67036069  0.34604510  0.01229162  1
  Te  Te72  1  0.09217321  0.09324022  0.08401896  1
  Te  Te73  1  0.07182816  0.05059799  0.41176157  1
  Te  Te74  1  0.09063797  0.09778340  0.74391334  1
  Te  Te75  1  0.08511039  0.41557524  0.05462223  1
  Te  Te76  1  0.06157353  0.40451371  0.40859872  1
  Te  Te77  1  0.11860465  0.39086926  0.76811116  1
  Te  Te78  1  0.06816728  0.76274536  0.09558735  1
  Te  Te79  1  0.08670146  0.73905374  0.42943094  1
  Te  Te80  1  0.09211439  0.77060073  0.73387687  1
  Te  Te81  1  0.42177823  0.06451272  0.06397211  1
  Te  Te82  1  0.37866444  0.07852998  0.45312469  1
  Te  Te83  1  0.39208781  0.10000009  0.74802516  1
  Te  Te84  1  0.39918062  0.40411496  0.06694391  1
  Te  Te85  1  0.40400685  0.40375092  0.41427333  1
  Te  Te86  1  0.39933729  0.40794286  0.76730315  1
  Te  Te87  1  0.41968865  0.74089030  0.08065935  1
  Te  Te88  1  0.41738780  0.74514860  0.42321109  1
  Te  Te89  1  0.41351588  0.74367838  0.77637705  1
  Te  Te90  1  0.75969408  0.08125618  0.10866867  1
  Te  Te91  1  0.73259132  0.07168055  0.40795487  1
  Te  Te92  1  0.77072352  0.10876848  0.74685010  1
  Te  Te93  1  0.77193790  0.40480791  0.10114134  1
  Te  Te94  1  0.74501903  0.42067388  0.41328301  1
  Te  Te95  1  0.75174444  0.42081383  0.75204885  1
  Te  Te96  1  0.73602663  0.75398928  0.07596714  1
  Te  Te97  1  0.77370416  0.77435396  0.38865283  1
  Te  Te98  1  0.75651167  0.75202620  0.75478795  1
  Te  Te99  1  0.08025044  0.25144836  0.26276132  1
  Te  Te100  1  0.08259877  0.24491031  0.60402899  1
  Te  Te101  1  0.08989335  0.27401453  0.87742820  1
  Te  Te102  1  0.08805386  0.57713993  0.25204713  1
  Te  Te103  1  0.10346736  0.56677430  0.60251388  1
  Te  Te104  1  0.05785222  0.61237418  0.91635307  1
  Te  Te105  1  0.07523885  0.89957989  0.24577519  1
  Te  Te106  1  0.11609897  0.91838026  0.58377795  1
  Te  Te107  1  0.07546601  0.93334000  0.92168712  1
  Te  Te108  1  0.42095530  0.24971703  0.25278688  1
  Te  Te109  1  0.40913760  0.26874591  0.58031256  1
  Te  Te110  1  0.39479497  0.24605623  0.89503759  1
  Te  Te111  1  0.43980379  0.59092881  0.22798684  1
  Te  Te112  1  0.43243285  0.59822511  0.57985223  1
  Te  Te113  1  0.41203892  0.56823530  0.90984691  1
  Te  Te114  1  0.40133637  0.92779779  0.26674501  1
  Te  Te115  1  0.43589489  0.92525636  0.57526647  1
  Te  Te116  1  0.38945403  0.91116284  0.90002753  1
  Te  Te117  1  0.76703753  0.25196410  0.23002351  1
  Te  Te118  1  0.77266033  0.25208767  0.59248187  1
  Te  Te119  1  0.75536645  0.26005741  0.90765195  1
  Te  Te120  1  0.72612027  0.57376937  0.22414679  1
  Te  Te121  1  0.76026615  0.60979075  0.55875316  1
  Te  Te122  1  0.72652370  0.59319256  0.94120355  1
  Te  Te123  1  0.77930763  0.96127355  0.22123773  1
  Te  Te124  1  0.75277547  0.91862148  0.58699409  1
  Te  Te125  1  0.77639974  0.89721780  0.93990809  1
  Te  Te126  1  0.25276599  0.24980673  0.07355897  1
  Te  Te127  1  0.24826089  0.23133549  0.44796324  1
  Te  Te128  1  0.21246841  0.25425100  0.77842105  1
  Te  Te129  1  0.22089237  0.56513126  0.05378558  1
  Te  Te130  1  0.24171923  0.60502417  0.43826197  1
  Te  Te131  1  0.26274269  0.56345478  0.76483808  1
  Te  Te132  1  0.25208082  0.93080030  0.07043391  1
  Te  Te133  1  0.25330253  0.93928764  0.42447994  1
  Te  Te134  1  0.25338036  0.90637713  0.73975538  1
  Te  Te135  1  0.60056600  0.22818472  0.08422592  1
  Te  Te136  1  0.56504977  0.25295554  0.42232689  1
  Te  Te137  1  0.56170329  0.26127067  0.76193836  1
  Te  Te138  1  0.59217687  0.55717503  0.12375127  1
  Te  Te139  1  0.57345577  0.59481094  0.41673773  1
  Te  Te140  1  0.56434477  0.58789642  0.76028992  1
  Te  Te141  1  0.58221325  0.91018101  0.09302345  1
  Te  Te142  1  0.59101451  0.93302663  0.39900030  1
  Te  Te143  1  0.59170666  0.91564951  0.74698315  1
  Te  Te144  1  0.93416108  0.26299829  0.06688861  1
  Te  Te145  1  0.91783992  0.24457940  0.42204186  1
  Te  Te146  1  0.97686014  0.21908526  0.74788655  1
  Te  Te147  1  0.92475671  0.58501257  0.08197078  1
  Te  Te148  1  0.91219749  0.58310413  0.41302824  1
  Te  Te149  1  0.90687737  0.57996857  0.75389792  1
  Te  Te150  1  0.89081679  0.91463569  0.12222987  1
  Te  Te151  1  0.90695215  0.88660122  0.40524003  1
  Te  Te152  1  0.92012348  0.93147921  0.76187526  1
  Te  Te153  1  0.26567798  0.07974156  0.25830586  1
  Te  Te154  1  0.25841381  0.09483221  0.55331400  1
  Te  Te155  1  0.26768569  0.08532080  0.91771675  1
  Te  Te156  1  0.25472298  0.42957345  0.24647231  1
  Te  Te157  1  0.24296616  0.42776902  0.59303874  1
  Te  Te158  1  0.22396491  0.44902027  0.87412537  1
  Te  Te159  1  0.25664964  0.74802680  0.25108882  1
  Te  Te160  1  0.24066959  0.75216591  0.59498565  1
  Te  Te161  1  0.24783391  0.75590255  0.90248093  1
  Te  Te162  1  0.58450388  0.10214986  0.25959591  1
  Te  Te163  1  0.57911506  0.08225911  0.56841128  1
  Te  Te164  1  0.58376498  0.06615309  0.91576890  1
  Te  Te165  1  0.59374366  0.41328210  0.24236720  1
  Te  Te166  1  0.57144240  0.40689177  0.57906128  1
  Te  Te167  1  0.56632264  0.40547960  0.92052134  1
  Te  Te168  1  0.58541189  0.74871422  0.24003044  1
  Te  Te169  1  0.58895737  0.75165908  0.58155430  1
  Te  Te170  1  0.57408839  0.73459480  0.92086019  1
  Te  Te171  1  0.93215934  0.06726435  0.26611023  1
  Te  Te172  1  0.90844917  0.08669121  0.58503172  1
  Te  Te173  1  0.93687537  0.09501082  0.92231410  1
  Te  Te174  1  0.91624641  0.39426139  0.25123418  1
  Te  Te175  1  0.94405718  0.40566285  0.61326814  1
  Te  Te176  1  0.91996849  0.41050781  0.90696109  1
  Te  Te177  1  0.91990211  0.77265962  0.23299689  1
  Te  Te178  1  0.92048060  0.73624299  0.57186557  1
  Te  Te179  1  0.91985954  0.75245546  0.94626091  1
