# generated using pymatgen
data_In2Te3
_symmetry_space_group_name_H-M   'P 1'
_cell_length_a   18.90980707
_cell_length_b   18.89485334
_cell_length_c   18.90557287
_cell_angle_alpha   89.93946296
_cell_angle_beta   90.06314396
_cell_angle_gamma   90.00449738
_symmetry_Int_Tables_number   1
_chemical_formula_structural   In2Te3
_chemical_formula_sum   'In72 Te108'
_cell_volume   6754.91607418
_cell_formula_units_Z   36
loop_
 _symmetry_equiv_pos_site_id
 _symmetry_equiv_pos_as_xyz
  1  'x, y, z'
loop_
 _atom_site_type_symbol
 _atom_site_label
 _atom_site_symmetry_multiplicity
 _atom_site_fract_x
 _atom_site_fract_y
 _atom_site_fract_z
 _atom_site_occupancy
  In  In0  1  0.67673904  0.02308287  0.33229113  1
  In  In1  1  0.48875956  0.19342458  0.68511669  1
  In  In2  1  0.16198793  0.15945583  0.00504802  1
  In  In3  1  0.46484417  -0.01338777  0.14232361  1
  In  In4  1  0.85224752  0.17164740  0.65603168  1
  In  In5  1  0.16893921  0.13387436  0.68614695  1
  In  In6  1  0.28331400  0.64257270  0.68138662  1
  In  In7  1  0.30419841  -0.01188667  0.33307876  1
  In  In8  1  0.32181382  -0.03368341  0.68788982  1
  In  In9  1  0.17687193  0.49292119  0.32226126  1
  In  In10  1  0.70551341  0.81750926  0.47892262  1
  In  In11  1  0.64554157  0.84108978  0.17309855  1
  In  In12  1  0.29975127  0.81748048  0.84084503  1
  In  In13  1  -0.00280796  0.84200327  0.51084867  1
  In  In14  1  0.03644425  -0.01740941  0.30382824  1
  In  In15  1  0.64281860  0.66658431  0.01229473  1
  In  In16  1  0.01844632  0.32711844  -0.00025917  1
  In  In17  1  0.86939719  0.50368828  0.62269923  1
  In  In18  1  0.32865759  0.34010612  0.32293956  1
  In  In19  1  0.68126776  0.50135581  0.50555029  1
  In  In20  1  0.48569534  0.80121997  0.69525342  1
  In  In21  1  0.16381969  0.67017267  0.17591073  1
  In  In22  1  0.01385213  0.66753300  0.65804332  1
  In  In23  1  0.69830690  0.62868623  0.31946616  1
  In  In24  1  0.84012286  0.82674521  -0.00570989  1
  In  In25  1  0.52892966  0.83053101  0.35091475  1
  In  In26  1  0.46028039  0.34393451  0.85787402  1
  In  In27  1  0.64906630  0.15120995  0.84263798  1
  In  In28  1  0.46429931  0.52480661  0.30296033  1
  In  In29  1  0.67106175  0.33103485  0.63648103  1
  In  In30  1  0.66330738  0.49780454  0.82612313  1
  In  In31  1  0.46453673  0.80437310  0.00057042  1
  In  In32  1  0.46172956  0.53175629  -0.00046443  1
  In  In33  1  0.85557442  0.67450764  0.84873440  1
  In  In34  1  0.33007950  0.17403141  0.16479497  1
  In  In35  1  0.31596681  0.82478530  0.16652353  1
  In  In36  1  0.31222230  0.15191375  0.84837343  1
  In  In37  1  0.84210896  0.50281593  0.02068980  1
  In  In38  1  0.33628183  0.82078645  0.49821329  1
  In  In39  1  0.67800942  0.34449596  0.01845142  1
  In  In40  1  0.00301231  0.17672068  0.49100787  1
  In  In41  1  0.16299243  0.69746610  0.47908239  1
  In  In42  1  -0.00832968  0.00164841  -0.01152203  1
  In  In43  1  0.30900122  0.18741768  0.47489113  1
  In  In44  1  0.31968873  0.51353756  0.50456493  1
  In  In45  1  0.84390496  0.17497640  0.34477309  1
  In  In46  1  0.15345853  0.01375996  0.52067633  1
  In  In47  1  0.53616555  0.34067689  0.47993891  1
  In  In48  1  0.48618341  0.03127410  0.50464437  1
  In  In49  1  0.47604863  0.35850778  0.15253001  1
  In  In50  1  0.65882116  0.16508082  0.17363663  1
  In  In51  1  0.68218889  0.82911036  0.85045387  1
  In  In52  1  0.83305784  0.00183118  0.19049349  1
  In  In53  1  0.82373139  0.31753019  0.81214229  1
  In  In54  1  -0.00999022  0.52646078  0.15087230  1
  In  In55  1  0.01968652  0.48665685  0.84638018  1
  In  In56  1  0.18027801  0.49633202  0.00421116  1
  In  In57  1  0.16728566  0.33992640  0.49418003  1
  In  In58  1  0.68713523  0.18268923  0.51341267  1
  In  In59  1  0.49881280  -0.01348927  0.85692674  1
  In  In60  1  0.66429808  0.34542809  0.33660750  1
  In  In61  1  0.16447773  0.84564610  0.01751946  1
  In  In62  1  0.83880820  0.36347271  0.14943666  1
  In  In63  1  0.68849188  -0.02088154  0.65151467  1
  In  In64  1  0.85735378  -0.00874374  0.81811168  1
  In  In65  1  0.68165826  0.67941012  0.69962269  1
  In  In66  1  0.13892204  0.49661397  0.67621279  1
  In  In67  1  0.91574123  0.79372094  0.32318568  1
  In  In68  1  0.84713245  0.15290616  0.02217404  1
  In  In69  1  0.51082267  0.67682221  0.50300125  1
  In  In70  1  0.34775281  0.31430796  0.68745818  1
  In  In71  1  0.16370415  0.65251670  0.84738184  1
  Te  Te72  1  0.06370702  0.08106566  0.09240968  1
  Te  Te73  1  0.09387551  0.08514297  0.40261997  1
  Te  Te74  1  0.03858401  0.06184332  0.70672632  1
  Te  Te75  1  0.08596708  0.42053010  0.09831015  1
  Te  Te76  1  0.07866707  0.43266489  0.41896642  1
  Te  Te77  1  0.05552214  0.39166086  0.73827672  1
  Te  Te78  1  0.06570899  0.77505240  0.11338282  1
  Te  Te79  1  0.03942564  0.74182694  0.40024189  1
  Te  Te80  1  0.06746328  0.74006306  0.77632341  1
  Te  Te81  1  0.39753596  0.08968789  0.06264565  1
  Te  Te82  1  0.40069282  0.09326431  0.39681869  1
  Te  Te83  1  0.41976191  0.07362775  0.75166460  1
  Te  Te84  1  0.38981635  0.41075719  0.04526308  1
  Te  Te85  1  0.41673359  0.42816283  0.42096220  1
  Te  Te86  1  0.42731671  0.42530183  0.74167247  1
  Te  Te87  1  0.42509250  0.73167204  0.12499968  1
  Te  Te88  1  0.41626645  0.73745210  0.39963199  1
  Te  Te89  1  0.38921687  0.70917619  0.77874881  1
  Te  Te90  1  0.73975425  0.06803226  0.08921083  1
  Te  Te91  1  0.77052662  0.07969071  0.43795475  1
  Te  Te92  1  0.74944671  0.09243217  0.74231059  1
  Te  Te93  1  0.72495592  0.45798898  0.10825757  1
  Te  Te94  1  0.76612441  0.41269907  0.42139339  1
  Te  Te95  1  0.75937894  0.42899484  0.72896528  1
  Te  Te96  1  0.73879708  0.75542023  0.08849718  1
  Te  Te97  1  0.78969442  0.72726516  0.39371671  1
  Te  Te98  1  0.78507562  0.77579764  0.75360629  1
  Te  Te99  1  0.14286563  0.20792660  0.15311410  1
  Te  Te100  1  0.10743343  0.23517334  0.58538188  1
  Te  Te101  1  0.07774705  0.23392266  0.90570381  1
  Te  Te102  1  0.07054920  0.58878914  0.26430218  1
  Te  Te103  1  0.09630743  0.58524309  0.56133071  1
  Te  Te104  1  0.06817801  0.58714485  0.94705319  1
  Te  Te105  1  0.11284408  0.88395858  0.22221037  1
  Te  Te106  1  0.08531189  0.91366979  0.60891361  1
  Te  Te107  1  0.09651506  0.92839251  0.91184533  1
  Te  Te108  1  0.43057197  0.25344552  0.25324563  1
  Te  Te109  1  0.42579015  0.25713033  0.55741218  1
  Te  Te110  1  0.41442002  0.22414552  0.92718606  1
  Te  Te111  1  0.37859439  0.59312785  0.20521681  1
  Te  Te112  1  0.40383183  0.60854213  0.58808429  1
  Te  Te113  1  0.39122483  0.62506208  0.91274030  1
  Te  Te114  1  0.42230080  0.90620067  0.27049243  1
  Te  Te115  1  0.42677905  0.90975174  0.58387973  1
  Te  Te116  1  0.38601463  0.91166317  0.92575943  1
  Te  Te117  1  0.75830623  0.25912783  0.23993806  1
  Te  Te118  1  0.79322252  0.27925005  0.56325726  1
  Te  Te119  1  0.75122713  0.24171361  0.93224748  1
  Te  Te120  1  0.80584691  0.55309067  0.25661118  1
  Te  Te121  1  0.75394085  0.60533303  0.58992966  1
  Te  Te122  1  0.74687102  0.58927313  0.91915337  1
  Te  Te123  1  0.74680454  0.90390905  0.26903251  1
  Te  Te124  1  0.78298909  0.90366973  0.56961285  1
  Te  Te125  1  0.75870054  0.93783076  0.92135752  1
  Te  Te126  1  0.25458292  0.26705889  0.06905407  1
  Te  Te127  1  0.21512131  0.25388858  0.37622854  1
  Te  Te128  1  0.23419459  0.25080205  0.76346842  1
  Te  Te129  1  0.26038389  0.58189783  0.10136920  1
  Te  Te130  1  0.25270864  0.60113135  0.40209993  1
  Te  Te131  1  0.24734854  0.53003872  0.78794637  1
  Te  Te132  1  0.23695918  0.93775464  0.11046823  1
  Te  Te133  1  0.22796203  0.90707506  0.43574292  1
  Te  Te134  1  0.21221422  0.91414397  0.76909268  1
  Te  Te135  1  0.57532913  0.25645369  0.08701809  1
  Te  Te136  1  0.59355917  0.22496454  0.40009961  1
  Te  Te137  1  0.59821508  0.27037544  0.75924932  1
  Te  Te138  1  0.56230355  0.57869828  0.09706115  1
  Te  Te139  1  0.58157030  0.57565688  0.41465645  1
  Te  Te140  1  0.57716327  0.59336931  0.75389065  1
  Te  Te141  1  0.56631680  0.90522537  0.06206315  1
  Te  Te142  1  0.59168720  0.94096624  0.43644084  1
  Te  Te143  1  0.59070740  0.91770568  0.75327083  1
  Te  Te144  1  0.92994439  0.25202360  0.10114089  1
  Te  Te145  1  0.94713164  0.26885599  0.38967105  1
  Te  Te146  1  0.93786187  0.25932885  0.74005491  1
  Te  Te147  1  0.90626762  0.62690328  0.07523551  1
  Te  Te148  1  0.89344792  0.52320119  0.47366317  1
  Te  Te149  1  0.92242816  0.57271751  0.75720590  1
  Te  Te150  1  0.91309501  0.91957988  0.09190976  1
  Te  Te151  1  0.93191860  0.92604764  0.39847397  1
  Te  Te152  1  0.95634069  0.93128500  0.72846873  1
  Te  Te153  1  0.23709693  0.08143602  0.23930824  1
  Te  Te154  1  0.28151156  0.08301878  0.58642811  1
  Te  Te155  1  0.20906221  0.05970393  0.89992911  1
  Te  Te156  1  0.25741011  0.42022205  0.22341384  1
  Te  Te157  1  0.25558839  0.41240231  0.59862632  1
  Te  Te158  1  0.23093378  0.41990314  0.89106408  1
  Te  Te159  1  0.22395010  0.77093972  0.27102716  1
  Te  Te160  1  0.23583976  0.75986483  0.59825438  1
  Te  Te161  1  0.24417841  0.73177756  0.95406595  1
  Te  Te162  1  0.56672216  0.06164844  0.23561250  1
  Te  Te163  1  0.58680718  0.09869669  0.60076204  1
  Te  Te164  1  0.56917553  0.08258748  0.94348192  1
  Te  Te165  1  0.57176605  0.43019944  0.25048932  1
  Te  Te166  1  0.57147805  0.43803466  0.59165382  1
  Te  Te167  1  0.58119240  0.41956843  0.92748866  1
  Te  Te168  1  0.59347870  0.72758480  0.26016065  1
  Te  Te169  1  0.59891844  0.76913208  0.58429110  1
  Te  Te170  1  0.56978425  0.74475663  0.90461695  1
  Te  Te171  1  0.93506599  0.09181442  0.25464558  1
  Te  Te172  1  0.93577179  0.07439137  0.57936488  1
  Te  Te173  1  0.92181461  0.10474039  0.89841945  1
  Te  Te174  1  0.91498128  0.44058789  0.25268795  1
  Te  Te175  1  0.97004301  0.42020633  0.55088328  1
  Te  Te176  1  0.90027500  0.40564805  0.91930054  1
  Te  Te177  1  0.92692343  0.73586326  0.18857914  1
  Te  Te178  1  0.91354295  0.74445970  0.58337921  1
  Te  Te179  1  0.94733523  0.77654242  0.90472548  1
