# generated using pymatgen
data_In2Te3
_symmetry_space_group_name_H-M   'P 1'
_cell_length_a   19.02461456
_cell_length_b   19.00414099
_cell_length_c   19.01419705
_cell_angle_alpha   89.95557541
_cell_angle_beta   90.14441026
_cell_angle_gamma   90.04176334
_symmetry_Int_Tables_number   1
_chemical_formula_structural   In2Te3
_chemical_formula_sum   'In72 Te108'
_cell_volume   6874.48986469
_cell_formula_units_Z   36
loop_
 _symmetry_equiv_pos_site_id
 _symmetry_equiv_pos_as_xyz
  1  'x, y, z'
loop_
 _atom_site_type_symbol
 _atom_site_label
 _atom_site_symmetry_multiplicity
 _atom_site_fract_x
 _atom_site_fract_y
 _atom_site_fract_z
 _atom_site_occupancy
  In  In0  1  0.83293422  0.64730993  0.17244063  1
  In  In1  1  0.49400782  0.83586027  0.35355359  1
  In  In2  1  0.49125034  0.82196494  0.66402064  1
  In  In3  1  0.35382787  0.15814614  0.52193245  1
  In  In4  1  0.84482317  0.00306864  0.17202755  1
  In  In5  1  0.66567254  0.50543578  0.82545757  1
  In  In6  1  -0.02004871  0.31172295  -0.05164558  1
  In  In7  1  0.79360887  0.30882907  -0.04010257  1
  In  In8  1  -0.01701184  0.00055755  0.33402693  1
  In  In9  1  -0.00220673  0.17426169  0.50588643  1
  In  In10  1  0.33119791  0.67161991  0.66003355  1
  In  In11  1  0.49216718  0.67419887  0.14820507  1
  In  In12  1  0.67799980  0.14849123  0.49496457  1
  In  In13  1  0.82939982  0.49755791  0.34831033  1
  In  In14  1  0.66074855  0.84467427  0.17810446  1
  In  In15  1  0.67421546  0.29436807  0.34153086  1
  In  In16  1  -0.01210630  0.31020109  0.66375459  1
  In  In17  1  0.48742208  0.84067461  0.03772317  1
  In  In18  1  0.00726978  0.48569827  0.48976111  1
  In  In19  1  0.68111251  0.27608135  0.68647693  1
  In  In20  1  0.14216222  0.01611779  0.15765092  1
  In  In21  1  0.49765718  0.50343825  -0.01918828  1
  In  In22  1  0.15778047  0.17156877  0.32414438  1
  In  In23  1  -0.00511496  0.87563798  0.81986373  1
  In  In24  1  0.01742415  0.84122891  0.15738881  1
  In  In25  1  0.50639181  0.31877719  0.15714712  1
  In  In26  1  0.19073599  0.83831988  0.66206331  1
  In  In27  1  0.66758335  0.67488658  0.67204277  1
  In  In28  1  -0.00412350  0.50183451  0.84228606  1
  In  In29  1  0.68766687  0.01944311  0.66225444  1
  In  In30  1  0.49764521  0.51601074  0.33035905  1
  In  In31  1  0.68805775  0.15177407  0.16554128  1
  In  In32  1  0.65962009  0.65868682  -0.00111670  1
  In  In33  1  0.31154262  0.52505508  0.46278032  1
  In  In34  1  0.31851204  0.33507365  0.33506783  1
  In  In35  1  0.50343929  0.34570258  0.83129628  1
  In  In36  1  0.49265313  0.01512282  0.83818356  1
  In  In37  1  0.50255943  0.67071322  0.51743946  1
  In  In38  1  0.18349502  0.68259552  0.82576988  1
  In  In39  1  0.50463929  -0.01295177  0.50849745  1
  In  In40  1  0.33884373  -0.00016306  0.66790092  1
  In  In41  1  0.03324422  0.70340441  0.35920915  1
  In  In42  1  0.18531315  -0.01473758  0.50850884  1
  In  In43  1  0.30349160  0.16354931  0.15734812  1
  In  In44  1  0.31393985  0.00347382  0.00107490  1
  In  In45  1  0.30841523  0.17041672  0.83042240  1
  In  In46  1  0.31585164  0.33384458  0.00709913  1
  In  In47  1  0.83484114  0.68215917  0.51105385  1
  In  In48  1  0.17944440  0.48731347  0.63524585  1
  In  In49  1  0.51524995  0.15454559  -0.00336587  1
  In  In50  1  0.69140404  0.46782750  0.17597734  1
  In  In51  1  0.84405952  0.01815007  0.51372219  1
  In  In52  1  0.49813120  -0.00572057  0.19853903  1
  In  In53  1  0.50772114  0.48551714  0.68007888  1
  In  In54  1  0.84476363  0.49340891  0.66739888  1
  In  In55  1  -0.00701602  0.32016404  0.35081439  1
  In  In56  1  0.70089353  0.00027182  -0.02413169  1
  In  In57  1  -0.00966315  0.50622461  0.16000006  1
  In  In58  1  0.00786490  0.65263596  0.65684661  1
  In  In59  1  0.32670033  0.48986939  0.20461488  1
  In  In60  1  0.14790309  0.01472771  0.82417089  1
  In  In61  1  0.48220334  0.14834994  0.35432710  1
  In  In62  1  0.17914870  0.65652640  0.21354072  1
  In  In63  1  0.65396124  0.83801906  0.84037425  1
  In  In64  1  0.84868157  0.83233098  0.34636298  1
  In  In65  1  0.32489595  0.65426651  -0.00339802  1
  In  In66  1  0.00211904  0.69411731  0.01000495  1
  In  In67  1  0.63897389  0.47150303  0.51210136  1
  In  In68  1  -0.01070170  0.01928167  -0.02595595  1
  In  In69  1  0.15385706  0.47899251  0.00431955  1
  In  In70  1  0.15530087  0.33516188  0.82675655  1
  In  In71  1  0.81252914  0.84004495  -0.02775770  1
  Te  Te72  1  0.04533899  0.09927331  0.08408041  1
  Te  Te73  1  0.08523489  0.07411219  0.42296221  1
  Te  Te74  1  0.04291633  0.09488880  0.75531441  1
  Te  Te75  1  0.04350234  0.40190986  0.06534088  1
  Te  Te76  1  0.09816189  0.39759712  0.41869521  1
  Te  Te77  1  0.06940274  0.43217554  0.73089807  1
  Te  Te78  1  0.11331789  0.74203857  0.09823451  1
  Te  Te79  1  0.10939667  0.77980493  0.46092103  1
  Te  Te80  1  0.07974077  0.76117395  0.74858708  1
  Te  Te81  1  0.42238072  0.08258224  0.09191124  1
  Te  Te82  1  0.39366105  0.04971369  0.42297290  1
  Te  Te83  1  0.41568679  0.10530275  0.74495877  1
  Te  Te84  1  0.41715409  0.42411461  0.09321163  1
  Te  Te85  1  0.41632330  0.42045453  0.41320560  1
  Te  Te86  1  0.40339782  0.40772837  0.74697351  1
  Te  Te87  1  0.37766693  0.75940379  0.10008687  1
  Te  Te88  1  0.41054624  0.74617605  0.43400493  1
  Te  Te89  1  0.40417696  0.75264431  0.75682054  1
  Te  Te90  1  0.78326887  0.09038153  0.06323673  1
  Te  Te91  1  0.78357649  0.09802588  0.40371906  1
  Te  Te92  1  0.76198210  0.13962531  0.71005593  1
  Te  Te93  1  0.77589868  0.41035801  0.07456962  1
  Te  Te94  1  0.74236802  0.40113617  0.42671659  1
  Te  Te95  1  0.74204518  0.40902361  0.73861649  1
  Te  Te96  1  0.75119302  0.75535801  0.08922087  1
  Te  Te97  1  0.75098509  0.74632588  0.41085590  1
  Te  Te98  1  0.74731399  0.76077311  0.75964814  1
  Te  Te99  1  0.05638912  0.23997707  0.24419327  1
  Te  Te100  1  0.09206894  0.26312488  0.57438914  1
  Te  Te101  1  0.10359606  0.23679378  0.92146207  1
  Te  Te102  1  0.06335414  0.57875933  0.26978613  1
  Te  Te103  1  0.09816877  0.58745618  0.55554918  1
  Te  Te104  1  0.08832324  0.59465883  0.92172662  1
  Te  Te105  1  0.08727959  0.91513653  0.26538783  1
  Te  Te106  1  0.09059254  0.92864459  0.60541778  1
  Te  Te107  1  0.09066396  0.91702325  0.92854951  1
  Te  Te108  1  0.41354158  0.24029731  0.24670095  1
  Te  Te109  1  0.45209333  0.25702161  0.56184143  1
  Te  Te110  1  0.41058207  0.24340348  0.93076991  1
  Te  Te111  1  0.40632259  0.60845710  0.25591275  1
  Te  Te112  1  0.41606862  0.56290221  0.58164933  1
  Te  Te113  1  0.41159264  0.58665379  0.90063863  1
  Te  Te114  1  0.40532980  0.89958680  0.25395673  1
  Te  Te115  1  0.39828887  0.89930900  0.57358279  1
  Te  Te116  1  0.41674102  0.92105960  0.92690244  1
  Te  Te117  1  0.76592349  0.25100189  0.23869419  1
  Te  Te118  1  0.77062149  0.23336506  0.57645598  1
  Te  Te119  1  0.79876066  0.19331272  0.86172402  1
  Te  Te120  1  0.73388671  0.58290604  0.26521898  1
  Te  Te121  1  0.73757817  0.56819124  0.58659234  1
  Te  Te122  1  0.74970296  0.59378164  0.90672359  1
  Te  Te123  1  0.75560656  0.92431907  0.26425203  1
  Te  Te124  1  0.75475701  0.92189274  0.57966061  1
  Te  Te125  1  0.77533046  0.93791699  0.86249249  1
  Te  Te126  1  0.22220730  0.26871353  0.09795922  1
  Te  Te127  1  0.25809412  0.22913948  0.42182398  1
  Te  Te128  1  0.24307940  0.26041406  0.73646655  1
  Te  Te129  1  0.23862332  0.56383052  0.09730961  1
  Te  Te130  1  0.23191414  0.60347200  0.36510880  1
  Te  Te131  1  0.24621278  0.57551630  0.74137478  1
  Te  Te132  1  0.23924510  0.92483798  0.09751681  1
  Te  Te133  1  0.22126172  0.87383160  0.41659934  1
  Te  Te134  1  0.25740765  0.92526049  0.77039056  1
  Te  Te135  1  0.60772373  0.24673829  0.07355139  1
  Te  Te136  1  0.56408110  0.24575193  0.43586190  1
  Te  Te137  1  0.57311094  0.23062659  0.77523793  1
  Te  Te138  1  0.58845097  0.56623270  0.09803401  1
  Te  Te139  1  0.59028838  0.58638893  0.42589227  1
  Te  Te140  1  0.56829696  0.60050829  0.75830453  1
  Te  Te141  1  0.60112512  0.94171667  0.07537977  1
  Te  Te142  1  0.59271625  0.92940009  0.40858875  1
  Te  Te143  1  0.57333110  0.92788190  0.74273532  1
  Te  Te144  1  0.89347159  0.26427155  0.05887803  1
  Te  Te145  1  0.89559451  0.22533223  0.41179063  1
  Te  Te146  1  0.91651321  0.25661477  0.78144387  1
  Te  Te147  1  0.90863725  0.58521456  0.05793961  1
  Te  Te148  1  0.92097035  0.59780254  0.41725278  1
  Te  Te149  1  0.90940124  0.59495470  0.75805853  1
  Te  Te150  1  0.91351761  0.90879260  0.07011086  1
  Te  Te151  1  0.93177026  0.91020314  0.44349850  1
  Te  Te152  1  0.94135985  0.96864969  0.71834821  1
  Te  Te153  1  0.24914104  0.06956010  0.25900706  1
  Te  Te154  1  0.24039564  0.09273551  0.60272373  1
  Te  Te155  1  0.22125808  0.10098100  0.93270342  1
  Te  Te156  1  0.22200848  0.39605389  0.24290798  1
  Te  Te157  1  0.26655206  0.41241561  0.54581118  1
  Te  Te158  1  0.25364020  0.42642081  0.90583611  1
  Te  Te159  1  0.24190181  0.74836193  0.30986519  1
  Te  Te160  1  0.23771625  0.73640522  0.56427550  1
  Te  Te161  1  0.25597634  0.76111587  0.92379160  1
  Te  Te162  1  0.59203292  0.08834580  0.26730088  1
  Te  Te163  1  0.57493074  0.09140149  0.59105130  1
  Te  Te164  1  0.61002341  0.09303317  0.89595570  1
  Te  Te165  1  0.57846998  0.40187977  0.26372616  1
  Te  Te166  1  0.56913319  0.37220178  0.60013049  1
  Te  Te167  1  0.60099586  0.41012019  0.92764443  1
  Te  Te168  1  0.57744947  0.74575965  0.25044719  1
  Te  Te169  1  0.60126510  0.77037852  0.57508962  1
  Te  Te170  1  0.56562760  0.75812726  0.93524866  1
  Te  Te171  1  0.94091054  0.09871888  0.23094235  1
  Te  Te172  1  0.93839393  0.08481518  0.61242380  1
  Te  Te173  1  0.93405872  0.10755439  0.86573622  1
  Te  Te174  1  0.91255068  0.41690617  0.25454901  1
  Te  Te175  1  0.90896163  0.40194680  0.56719386  1
  Te  Te176  1  0.88432983  0.41841806  0.89373595  1
  Te  Te177  1  0.92575188  0.74661808  0.23952176  1
  Te  Te178  1  0.91998175  0.75578863  0.60246775  1
  Te  Te179  1  0.92269003  0.76421542  0.90260154  1
