# generated using pymatgen
data_In2Te3
_symmetry_space_group_name_H-M   'P 1'
_cell_length_a   18.95827885
_cell_length_b   18.97987053
_cell_length_c   18.99464306
_cell_angle_alpha   90.18590843
_cell_angle_beta   89.88517185
_cell_angle_gamma   90.10996390
_symmetry_Int_Tables_number   1
_chemical_formula_structural   In2Te3
_chemical_formula_sum   'In72 Te108'
_cell_volume   6834.69811517
_cell_formula_units_Z   36
loop_
 _symmetry_equiv_pos_site_id
 _symmetry_equiv_pos_as_xyz
  1  'x, y, z'
loop_
 _atom_site_type_symbol
 _atom_site_label
 _atom_site_symmetry_multiplicity
 _atom_site_fract_x
 _atom_site_fract_y
 _atom_site_fract_z
 _atom_site_occupancy
  In  In0  1  0.81577316  -0.00661169  0.83986780  1
  In  In1  1  0.03174613  0.34752355  -0.00617301  1
  In  In2  1  -0.00607731  0.00901745  0.00019963  1
  In  In3  1  0.31947681  0.64053045  0.31466535  1
  In  In4  1  0.49989800  0.69295075  0.51921438  1
  In  In5  1  0.35233903  0.33392884  -0.00548938  1
  In  In6  1  0.15111122  0.48726599  0.31270131  1
  In  In7  1  0.86010804  0.33515523  0.17034018  1
  In  In8  1  0.19208115  0.50683712  0.66239409  1
  In  In9  1  0.67247942  0.69167121  -0.00027219  1
  In  In10  1  0.81533778  0.00621307  0.18102361  1
  In  In11  1  0.46653798  0.83093771  0.31713437  1
  In  In12  1  0.64927431  0.33350767  0.65525587  1
  In  In13  1  0.00687394  0.49853760  0.48798380  1
  In  In14  1  0.65624579  0.83980408  0.51561458  1
  In  In15  1  0.19978733  0.00916415  0.13985835  1
  In  In16  1  0.49402382  0.14752620  0.67588494  1
  In  In17  1  0.02080154  0.33225454  0.66225015  1
  In  In18  1  0.82443900  0.15193742  0.01369235  1
  In  In19  1  0.36297897  -0.01810374  0.70264796  1
  In  In20  1  0.84575559  0.51447609  0.00011623  1
  In  In21  1  0.66661070  0.51617690  0.16801308  1
  In  In22  1  0.49049037  0.01573546  0.48763933  1
  In  In23  1  0.37053790  0.49830150  0.50189665  1
  In  In24  1  0.41270752  0.53503578  0.83713608  1
  In  In25  1  -0.00325140  0.20462669  0.52431809  1
  In  In26  1  0.35429482  0.50273152  0.12841023  1
  In  In27  1  0.82157486  0.47184611  0.33758222  1
  In  In28  1  0.20315536  0.83321814  -0.01515002  1
  In  In29  1  0.50408077  0.32402674  0.84644071  1
  In  In30  1  0.31923869  0.84426295  0.50541275  1
  In  In31  1  0.49106449  0.49343320  0.32801378  1
  In  In32  1  -0.01344298  0.65981192  0.34441604  1
  In  In33  1  0.17031964  0.67004305  0.47601630  1
  In  In34  1  0.85183439  0.65882611  0.85299119  1
  In  In35  1  0.79649777  0.01548061  0.49256025  1
  In  In36  1  0.62599710  0.13870943  0.18700339  1
  In  In37  1  0.63563959  0.69576777  0.32760047  1
  In  In38  1  -0.00799950  0.31605003  0.31568029  1
  In  In39  1  -0.01004015  0.67684959  0.68702698  1
  In  In40  1  0.83293369  0.81912095  0.67611029  1
  In  In41  1  0.19943213  0.32557487  0.82259808  1
  In  In42  1  0.49528055  0.81756784  -0.00526618  1
  In  In43  1  0.80913966  0.34833810  0.51823021  1
  In  In44  1  0.81227407  0.14799449  0.33789175  1
  In  In45  1  0.20295773  0.84609801  0.34215841  1
  In  In46  1  0.14629788  0.16449746  0.31556406  1
  In  In47  1  0.18545548  0.33177159  0.53150224  1
  In  In48  1  0.16732634  0.02187183  0.50410225  1
  In  In49  1  0.81035715  0.15621174  0.68760697  1
  In  In50  1  -0.01456314  0.85374803  0.51725200  1
  In  In51  1  0.34475797  -0.00270561  -0.01943291  1
  In  In52  1  0.35629294  0.16505472  0.15025061  1
  In  In53  1  0.16719169  0.66599404  0.82474185  1
  In  In54  1  0.01268584  0.68444043  -0.00832293  1
  In  In55  1  -0.00447593  -0.00329746  0.66541187  1
  In  In56  1  0.61981501  0.00042654  -0.04380174  1
  In  In57  1  0.37508454  0.69553114  0.67279704  1
  In  In58  1  0.81496208  0.66989398  0.14158986  1
  In  In59  1  0.35043122  0.16223703  0.51694577  1
  In  In60  1  0.63294474  0.49305455  0.81291885  1
  In  In61  1  0.77549669  0.58094937  0.69307327  1
  In  In62  1  0.66972046  0.30609046  0.33486139  1
  In  In63  1  -0.01611297  -0.00613416  0.31863068  1
  In  In64  1  0.17458147  0.51807878  0.00068432  1
  In  In65  1  0.32364491  0.31791127  0.32301941  1
  In  In66  1  0.00892673  0.85587798  0.14835756  1
  In  In67  1  0.17426038  -0.01099549  0.81408756  1
  In  In68  1  0.82261186  0.32496145  0.84052787  1
  In  In69  1  0.80054183  0.82208094  0.30356782  1
  In  In70  1  0.17782658  0.16551375  -0.01228669  1
  In  In71  1  0.66790009  0.30005016  0.02083615  1
  Te  Te72  1  0.08579040  0.09318424  0.08588924  1
  Te  Te73  1  0.05571923  0.08996709  0.41930154  1
  Te  Te74  1  0.07748852  0.08041624  0.75204320  1
  Te  Te75  1  0.09553916  0.43369834  0.09175089  1
  Te  Te76  1  0.08594979  0.38676345  0.42334123  1
  Te  Te77  1  0.10150139  0.42470098  0.75074133  1
  Te  Te78  1  0.10580957  0.76179476  0.08261506  1
  Te  Te79  1  0.07986778  0.77733353  0.41796263  1
  Te  Te80  1  0.07743434  0.76330657  0.76336028  1
  Te  Te81  1  0.43763866  0.06161868  0.07827277  1
  Te  Te82  1  0.44939062  0.13583376  0.40082507  1
  Te  Te83  1  0.47162069  0.04384784  0.78558701  1
  Te  Te84  1  0.45177385  0.40737995  0.07425215  1
  Te  Te85  1  0.42751308  0.38729764  0.41583270  1
  Te  Te86  1  0.41264955  0.40600655  0.76744055  1
  Te  Te87  1  0.39532346  0.70963252  0.03083171  1
  Te  Te88  1  0.38983842  0.73223247  0.42062560  1
  Te  Te89  1  0.43560471  0.78286703  0.77902618  1
  Te  Te90  1  0.71429471  0.06801444  0.07625150  1
  Te  Te91  1  0.69699565  0.09130360  0.41265123  1
  Te  Te92  1  0.72011424  0.06228032  0.75243542  1
  Te  Te93  1  0.76251000  0.41985886  0.08852615  1
  Te  Te94  1  0.71127591  0.42090982  0.42896685  1
  Te  Te95  1  0.74972404  0.41648197  0.74495528  1
  Te  Te96  1  0.72510976  0.77851796  0.10830874  1
  Te  Te97  1  0.74179065  0.74969152  0.42197296  1
  Te  Te98  1  0.75143761  0.71757205  0.75410463  1
  Te  Te99  1  0.09756955  0.26859546  0.22681897  1
  Te  Te100  1  0.12430439  0.22051065  0.61964626  1
  Te  Te101  1  0.09028486  0.24733854  0.89576328  1
  Te  Te102  1  0.09705427  0.61238890  0.26131215  1
  Te  Te103  1  0.08594588  0.58855075  0.58215577  1
  Te  Te104  1  0.07372301  0.57746129  0.90422679  1
  Te  Te105  1  0.10350743  0.93234443  0.24760558  1
  Te  Te106  1  0.10284920  0.91405881  0.59013258  1
  Te  Te107  1  0.09317838  0.92205103  0.92695045  1
  Te  Te108  1  0.42709384  0.26785648  0.23053812  1
  Te  Te109  1  0.42482705  0.25427813  0.60207399  1
  Te  Te110  1  0.41764929  0.22253607  0.91727400  1
  Te  Te111  1  0.43332138  0.59194236  0.22966172  1
  Te  Te112  1  0.44655609  0.57702350  0.60631948  1
  Te  Te113  1  0.46850608  0.59427719  0.96472147  1
  Te  Te114  1  0.41619679  0.95507340  0.26100944  1
  Te  Te115  1  0.43578999  0.90183468  0.58597837  1
  Te  Te116  1  0.41117964  0.89437208  0.89427103  1
  Te  Te117  1  0.75223042  0.23823929  0.22337384  1
  Te  Te118  1  0.73470480  0.23231313  0.57902891  1
  Te  Te119  1  0.73666522  0.22213557  0.91089895  1
  Te  Te120  1  0.75809060  0.59403908  0.26130162  1
  Te  Te121  1  0.69356901  0.53268119  0.58325194  1
  Te  Te122  1  0.73508063  0.57181858  0.91538559  1
  Te  Te123  1  0.72038132  0.93759372  0.26799676  1
  Te  Te124  1  0.74947453  0.92228350  0.60298180  1
  Te  Te125  1  0.71764035  0.90080580  0.90415359  1
  Te  Te126  1  0.25443766  0.25598337  0.08105138  1
  Te  Te127  1  0.23960580  0.23221162  0.42653171  1
  Te  Te128  1  0.24796651  0.24895653  0.70892918  1
  Te  Te129  1  0.25945725  0.60724197  0.08332912  1
  Te  Te130  1  0.24578279  0.54567594  0.42706617  1
  Te  Te131  1  0.28342694  0.59140443  0.74998241  1
  Te  Te132  1  0.28935039  0.90038672  0.09030081  1
  Te  Te133  1  0.27422455  0.95782659  0.41510974  1
  Te  Te134  1  0.26040976  0.88869499  0.74966833  1
  Te  Te135  1  0.56248275  0.24562279  0.10719580  1
  Te  Te136  1  0.58388260  0.21577318  0.41053022  1
  Te  Te137  1  0.59152619  0.24000696  0.75605643  1
  Te  Te138  1  0.58340116  0.59698522  0.07691432  1
  Te  Te139  1  0.56280780  0.59705217  0.41406203  1
  Te  Te140  1  0.53944484  0.60572415  0.79961477  1
  Te  Te141  1  0.54769357  0.93669707  0.06993547  1
  Te  Te142  1  0.56239743  0.90102581  0.41744461  1
  Te  Te143  1  0.53899099  0.84151905  0.68413665  1
  Te  Te144  1  0.92655063  0.25335528  0.06261603  1
  Te  Te145  1  0.88902274  0.26074200  0.41447115  1
  Te  Te146  1  0.91389054  0.25282987  0.74206789  1
  Te  Te147  1  0.93474694  0.59381414  0.09210389  1
  Te  Te148  1  0.89214808  0.57585370  0.42831463  1
  Te  Te149  1  0.91592719  0.56352138  0.74975780  1
  Te  Te150  1  0.89438151  0.92503467  0.07823702  1
  Te  Te151  1  0.89316868  0.91892155  0.41462848  1
  Te  Te152  1  0.91818448  0.90878162  0.76185485  1
  Te  Te153  1  0.26193909  0.09224357  0.25023451  1
  Te  Te154  1  0.27562557  0.06217428  0.60262513  1
  Te  Te155  1  0.26355494  0.08771257  0.89089225  1
  Te  Te156  1  0.26827307  0.43036567  0.23786962  1
  Te  Te157  1  0.29264363  0.41059472  0.60211487  1
  Te  Te158  1  0.26408366  0.42835460  0.91490966  1
  Te  Te159  1  0.26737112  0.75815545  0.24525182  1
  Te  Te160  1  0.25248551  0.73379998  0.58551040  1
  Te  Te161  1  0.27151369  0.71910449  0.91771415  1
  Te  Te162  1  0.52430281  0.05901580  0.26635238  1
  Te  Te163  1  0.58125142  0.06385024  0.59157746  1
  Te  Te164  1  0.53186754  0.11293745  0.91467293  1
  Te  Te165  1  0.59545429  0.41350932  0.25218185  1
  Te  Te166  1  0.57194854  0.44270326  0.59810572  1
  Te  Te167  1  0.60062849  0.40396156  0.93282397  1
  Te  Te168  1  0.56012727  0.76403618  0.22455793  1
  Te  Te169  1  0.61650314  0.72678651  0.60755817  1
  Te  Te170  1  0.60522189  0.77824066  0.89976453  1
  Te  Te171  1  0.91912483  0.10256065  0.23674011  1
  Te  Te172  1  0.90816792  0.08672239  0.57607292  1
  Te  Te173  1  0.91259540  0.09217755  0.90499243  1
  Te  Te174  1  0.93834520  0.44085970  0.24674487  1
  Te  Te175  1  0.92146658  0.42158619  0.58801451  1
  Te  Te176  1  0.92013803  0.41618025  0.91264691  1
  Te  Te177  1  0.93002665  0.76775546  0.24608987  1
  Te  Te178  1  0.90857038  0.73561482  0.57370805  1
  Te  Te179  1  0.90143175  0.76383880  0.94086515  1
