# generated using pymatgen
data_In2Te3
_symmetry_space_group_name_H-M   'P 1'
_cell_length_a   19.01258564
_cell_length_b   19.03274522
_cell_length_c   19.03776347
_cell_angle_alpha   89.79211719
_cell_angle_beta   89.94038219
_cell_angle_gamma   89.94861718
_symmetry_Int_Tables_number   1
_chemical_formula_structural   In2Te3
_chemical_formula_sum   'In72 Te108'
_cell_volume   6888.98560449
_cell_formula_units_Z   36
loop_
 _symmetry_equiv_pos_site_id
 _symmetry_equiv_pos_as_xyz
  1  'x, y, z'
loop_
 _atom_site_type_symbol
 _atom_site_label
 _atom_site_symmetry_multiplicity
 _atom_site_fract_x
 _atom_site_fract_y
 _atom_site_fract_z
 _atom_site_occupancy
  In  In0  1  0.32699598  0.84614807  0.82220813  1
  In  In1  1  0.63472363  0.51640655  0.51174602  1
  In  In2  1  0.00504479  -0.00033880  0.67587338  1
  In  In3  1  0.47887122  0.05142126  0.52119319  1
  In  In4  1  0.65713618  0.48365072  0.82780109  1
  In  In5  1  0.02564522  0.48032755  0.48640048  1
  In  In6  1  0.84557863  0.67868896  0.52884333  1
  In  In7  1  0.01414206  0.00023114  0.34614324  1
  In  In8  1  0.00287150  0.51369392  0.82021603  1
  In  In9  1  0.15532398  0.49917466  -0.01561212  1
  In  In10  1  0.33142522  -0.00286823  0.29478953  1
  In  In11  1  0.31926814  0.64826018  0.66912250  1
  In  In12  1  0.80934548  0.16578593  0.67509622  1
  In  In13  1  0.00555854  0.83154755  0.83193137  1
  In  In14  1  0.68321230  0.64781504  0.01328612  1
  In  In15  1  0.34454558  0.34897762  0.32848683  1
  In  In16  1  -0.02475051  0.22073068  0.50050079  1
  In  In17  1  0.49858721  0.45402876  -0.01836109  1
  In  In18  1  0.83691981  0.31960698  0.84637105  1
  In  In19  1  0.83365477  0.01165703  0.48931018  1
  In  In20  1  0.16436828  0.21133829  0.33003004  1
  In  In21  1  0.16833874  -0.02024192  0.13969114  1
  In  In22  1  0.17633856  0.03078262  0.49837773  1
  In  In23  1  0.84364206  0.68084062  0.15322408  1
  In  In24  1  0.65604884  0.50187233  0.16315700  1
  In  In25  1  0.01199861  0.33499990  0.00891213  1
  In  In26  1  0.15965298  0.67992831  0.80419609  1
  In  In27  1  0.83864327  0.84104278  0.33332591  1
  In  In28  1  0.66281051  0.16751609  0.15346779  1
  In  In29  1  0.86161801  0.14118634  -0.00433290  1
  In  In30  1  0.53547964  0.83690076  -0.00423477  1
  In  In31  1  0.68550616  -0.02798822  0.69635851  1
  In  In32  1  0.70386832  0.84540924  0.86537721  1
  In  In33  1  0.16653503  0.81895190  0.00361996  1
  In  In34  1  0.15647280  0.17738586  0.67208009  1
  In  In35  1  0.50876710  0.15467307  0.34059615  1
  In  In36  1  0.66930986  0.34412763  0.32011967  1
  In  In37  1  0.32224255  0.68241940  0.33157287  1
  In  In38  1  0.64718186  0.30487578  0.69285039  1
  In  In39  1  0.66650254  0.84389749  0.48608684  1
  In  In40  1  0.32565864  0.82653281  0.49184040  1
  In  In41  1  0.84158231  0.67389802  0.83756215  1
  In  In42  1  0.33986307  0.17105638  0.84115850  1
  In  In43  1  0.49754718  0.02780854  0.86913897  1
  In  In44  1  -0.00244120  0.35396114  0.65830723  1
  In  In45  1  0.00110309  0.52452247  0.19097049  1
  In  In46  1  0.61657308  0.18796857  0.55012297  1
  In  In47  1  0.83773299  0.17225014  0.35442798  1
  In  In48  1  0.49668600  -0.00662948  0.12638159  1
  In  In49  1  0.48068937  0.66127774  0.83457095  1
  In  In50  1  0.82041468  0.50920188  0.31435283  1
  In  In51  1  -0.02286664  0.12707801  0.84201768  1
  In  In52  1  0.19175847  0.31098995  0.85020947  1
  In  In53  1  0.45820900  0.46666998  0.67281523  1
  In  In54  1  0.67294939  -0.02690547  0.32995164  1
  In  In55  1  0.50304364  0.86856352  0.65967565  1
  In  In56  1  0.15796950  0.81452251  0.32261952  1
  In  In57  1  0.52710978  0.69819378  0.19108262  1
  In  In58  1  0.66077306  0.68123983  0.68214330  1
  In  In59  1  0.48794922  0.53033093  0.35220058  1
  In  In60  1  0.52434928  0.31056131  0.13973763  1
  In  In61  1  0.87086527  -0.03826231  0.12747526  1
  In  In62  1  0.15934537  0.83303716  0.66560942  1
  In  In63  1  0.84649182  0.47436589  0.06933177  1
  In  In64  1  0.32062834  0.52083005  0.48394144  1
  In  In65  1  0.32399240  0.15736263  0.16384469  1
  In  In66  1  0.00442242  0.67127017  0.34841287  1
  In  In67  1  -0.00086363  0.14740042  0.18527936  1
  In  In68  1  0.17353931  0.16617622  0.01677060  1
  In  In69  1  0.16628950  0.49700888  0.65305442  1
  In  In70  1  0.31502542  0.49790252  0.16472626  1
  In  In71  1  0.34919463  0.64974732  0.00634304  1
  Te  Te72  1  0.06643723  0.07091637  0.07422701  1
  Te  Te73  1  0.06703873  0.11772735  0.42419509  1
  Te  Te74  1  0.09853402  0.07384322  0.76785057  1
  Te  Te75  1  0.08385678  0.42987491  0.09918161  1
  Te  Te76  1  0.02806697  0.38926621  0.37248430  1
  Te  Te77  1  0.09216415  0.40311080  0.76753771  1
  Te  Te78  1  0.07031815  0.77714354  0.10541086  1
  Te  Te79  1  0.08072972  0.76096861  0.43401875  1
  Te  Te80  1  0.04739683  0.73017359  0.71156612  1
  Te  Te81  1  0.41691025  0.10126574  0.06375060  1
  Te  Te82  1  0.38678869  0.09014005  0.39959388  1
  Te  Te83  1  0.40219574  0.06130029  0.76524641  1
  Te  Te84  1  0.41160597  0.39974310  0.09249145  1
  Te  Te85  1  0.42700036  0.42056954  0.43359626  1
  Te  Te86  1  0.45880057  0.37280598  0.78910886  1
  Te  Te87  1  0.44245421  0.74815365  0.07643426  1
  Te  Te88  1  0.42109826  0.75321789  0.41094801  1
  Te  Te89  1  0.41762767  0.75236023  0.72941068  1
  Te  Te90  1  0.77018586  0.07566340  0.09971198  1
  Te  Te91  1  0.72648105  0.08926964  0.41736465  1
  Te  Te92  1  0.75167669  0.07790196  0.77962987  1
  Te  Te93  1  0.71899086  0.40149316  0.07281428  1
  Te  Te94  1  0.73126030  0.44070198  0.41602816  1
  Te  Te95  1  0.75433211  0.39890852  0.74709524  1
  Te  Te96  1  0.75282653  0.76122271  0.07009973  1
  Te  Te97  1  0.75947209  0.74524081  0.41924894  1
  Te  Te98  1  0.76278149  0.76928440  0.74808838  1
  Te  Te99  1  0.04663884  0.26825318  0.25933232  1
  Te  Te100  1  0.09439543  0.27699981  0.57147421  1
  Te  Te101  1  0.06843818  0.23352856  0.91148065  1
  Te  Te102  1  0.10339673  0.59748630  0.26636960  1
  Te  Te103  1  0.08004093  0.58265091  0.57462624  1
  Te  Te104  1  0.07661093  0.60975858  0.90962315  1
  Te  Te105  1  0.07385694  0.91296913  0.23965987  1
  Te  Te106  1  0.08803382  0.92997087  0.57137780  1
  Te  Te107  1  0.11839122  0.90107875  0.89282976  1
  Te  Te108  1  0.42966126  0.24093811  0.24258194  1
  Te  Te109  1  0.47135168  0.18902054  0.58110906  1
  Te  Te110  1  0.43174424  0.27043141  0.90285159  1
  Te  Te111  1  0.42073843  0.59135696  0.23119744  1
  Te  Te112  1  0.42206924  0.58310875  0.58099301  1
  Te  Te113  1  0.40593059  0.55190864  0.90567130  1
  Te  Te114  1  0.44019120  0.91693929  0.23934425  1
  Te  Te115  1  0.39633398  0.93107824  0.57554596  1
  Te  Te116  1  0.41839877  0.90694486  0.92333594  1
  Te  Te117  1  0.75459152  0.24466142  0.24652086  1
  Te  Te118  1  0.74774793  0.26044876  0.57915320  1
  Te  Te119  1  0.76073221  0.21957888  0.92111328  1
  Te  Te120  1  0.73653882  0.60731074  0.23555159  1
  Te  Te121  1  0.73981207  0.58765907  0.59559176  1
  Te  Te122  1  0.75667576  0.56822791  0.91009194  1
  Te  Te123  1  0.73661721  0.88160188  0.22922607  1
  Te  Te124  1  0.76318002  0.91326231  0.57963327  1
  Te  Te125  1  0.77229135  0.94066471  0.95191392  1
  Te  Te126  1  0.23461959  0.25947904  0.10886230  1
  Te  Te127  1  0.26669407  0.26250097  0.41900616  1
  Te  Te128  1  0.26784496  0.26333854  0.73228313  1
  Te  Te129  1  0.23152138  0.59355822  0.08066779  1
  Te  Te130  1  0.23030486  0.57731757  0.38106312  1
  Te  Te131  1  0.24611224  0.55956432  0.76510521  1
  Te  Te132  1  0.26821407  0.88582179  0.08866151  1
  Te  Te133  1  0.24224821  0.92423070  0.40379050  1
  Te  Te134  1  0.25213732  0.92691956  0.72718413  1
  Te  Te135  1  0.56423470  0.20156812  0.04953239  1
  Te  Te136  1  0.58696091  0.25942319  0.41406862  1
  Te  Te137  1  0.55344091  0.24521411  0.79595161  1
  Te  Te138  1  0.56392436  0.56997792  0.06275803  1
  Te  Te139  1  0.59700436  0.60972313  0.40514233  1
  Te  Te140  1  0.56416895  0.57117680  0.74169870  1
  Te  Te141  1  0.61291427  0.95168249  0.04410035  1
  Te  Te142  1  0.57140704  0.94979221  0.43894127  1
  Te  Te143  1  0.58151898  0.90165459  0.78442402  1
  Te  Te144  1  0.92321665  0.24320148  0.08935366  1
  Te  Te145  1  0.90014179  0.30147432  0.40022798  1
  Te  Te146  1  0.92799160  0.24166422  0.74443116  1
  Te  Te147  1  0.93658514  0.59468240  0.07077555  1
  Te  Te148  1  0.90403663  0.58119507  0.41718061  1
  Te  Te149  1  0.89533432  0.57406524  0.74432246  1
  Te  Te150  1  0.95865072  0.86012625  0.05516540  1
  Te  Te151  1  0.92947457  0.90904749  0.43360596  1
  Te  Te152  1  0.91332495  0.92120437  0.75742531  1
  Te  Te153  1  0.21136678  0.08905198  0.24917588  1
  Te  Te154  1  0.25689688  0.10966955  0.58868865  1
  Te  Te155  1  0.25764292  0.08587452  0.92989590  1
  Te  Te156  1  0.23678515  0.42286033  0.26273300  1
  Te  Te157  1  0.25724124  0.42018594  0.56981766  1
  Te  Te158  1  0.25513268  0.39970312  0.94546913  1
  Te  Te159  1  0.26171277  0.76970508  0.22939875  1
  Te  Te160  1  0.23779789  0.73580664  0.57788096  1
  Te  Te161  1  0.26753516  0.73081439  0.90369551  1
  Te  Te162  1  0.58485404  0.06816186  0.24234750  1
  Te  Te163  1  0.58326541  0.06723248  0.63787310  1
  Te  Te164  1  0.61758684  0.11391561  0.85898028  1
  Te  Te165  1  0.55973909  0.42291830  0.25053683  1
  Te  Te166  1  0.57581567  0.40526814  0.60043103  1
  Te  Te167  1  0.62360831  0.38870316  0.93676002  1
  Te  Te168  1  0.59816831  0.80946570  0.24901420  1
  Te  Te169  1  0.58034184  0.76345152  0.58374481  1
  Te  Te170  1  0.59728033  0.72698894  0.90323521  1
  Te  Te171  1  0.89950034  0.06089728  0.26473865  1
  Te  Te172  1  0.91874433  0.09744254  0.58219032  1
  Te  Te173  1  0.90400256  0.01839952  0.91630369  1
  Te  Te174  1  0.88615043  0.42567350  0.20821944  1
  Te  Te175  1  0.91555210  0.44012062  0.57599853  1
  Te  Te176  1  0.92060487  0.42123017  0.92298664  1
  Te  Te177  1  0.93097279  0.75879220  0.24753181  1
  Te  Te178  1  0.92086407  0.75421272  0.62534137  1
  Te  Te179  1  0.91369218  0.76561518  0.93004949  1
