# generated using pymatgen
data_In2Te3
_symmetry_space_group_name_H-M   'P 1'
_cell_length_a   18.75049977
_cell_length_b   18.75797494
_cell_length_c   18.75165686
_cell_angle_alpha   90.07058138
_cell_angle_beta   89.96810794
_cell_angle_gamma   89.94184684
_symmetry_Int_Tables_number   1
_chemical_formula_structural   In2Te3
_chemical_formula_sum   'In72 Te108'
_cell_volume   6595.34966634
_cell_formula_units_Z   36
loop_
 _symmetry_equiv_pos_site_id
 _symmetry_equiv_pos_as_xyz
  1  'x, y, z'
loop_
 _atom_site_type_symbol
 _atom_site_label
 _atom_site_symmetry_multiplicity
 _atom_site_fract_x
 _atom_site_fract_y
 _atom_site_fract_z
 _atom_site_occupancy
  In  In0  1  0.82251383  0.86063696  -0.00590699  1
  In  In1  1  0.50192901  0.33209954  0.16687921  1
  In  In2  1  0.18381025  0.82577242  -0.01715106  1
  In  In3  1  0.33216635  -0.00764990  0.70213491  1
  In  In4  1  0.35824716  0.64880548  0.32894836  1
  In  In5  1  -0.01050111  0.65919262  0.01461997  1
  In  In6  1  0.18535352  0.67504231  0.85664806  1
  In  In7  1  0.66523794  0.66256888  0.66261227  1
  In  In8  1  0.81137660  0.00970234  0.15020133  1
  In  In9  1  0.14863503  -0.00178748  0.15242580  1
  In  In10  1  0.34434327  0.48072820  0.17499038  1
  In  In11  1  0.19565021  0.66897626  0.53049065  1
  In  In12  1  -0.02432616  0.79835535  0.16649249  1
  In  In13  1  0.36005169  0.81224537  0.13230217  1
  In  In14  1  0.00631196  0.32991755  -0.01036314  1
  In  In15  1  0.82191598  0.47300506  0.00292812  1
  In  In16  1  0.35944502  0.66504020  0.66674616  1
  In  In17  1  0.80545514  0.32326965  0.52281724  1
  In  In18  1  0.81365520  0.67444099  0.82390013  1
  In  In19  1  0.16716332  0.48181205  0.67539564  1
  In  In20  1  0.34657532  0.48930307  0.52846611  1
  In  In21  1  0.00263608  0.48321615  0.83319890  1
  In  In22  1  0.65679602  0.49514550  0.50358034  1
  In  In23  1  0.65043657  0.01393875  0.32979573  1
  In  In24  1  0.49155320  0.00489077  0.15901477  1
  In  In25  1  0.18074927  0.64375454  0.19118624  1
  In  In26  1  0.67636448  0.45654996  0.81668021  1
  In  In27  1  0.82214550  0.67740570  0.50203612  1
  In  In28  1  0.64246161  0.01968929  0.66337881  1
  In  In29  1  0.01005474  0.85425307  0.83243230  1
  In  In30  1  0.15678805  0.00806049  0.51018796  1
  In  In31  1  0.35137810  0.30809510  -0.03122790  1
  In  In32  1  0.32309092  0.03361151  -0.05615623  1
  In  In33  1  0.19316546  0.19403894  0.68110971  1
  In  In34  1  -0.01450175  0.85468320  0.52121389  1
  In  In35  1  0.81903939  0.17451133  0.66067076  1
  In  In36  1  -0.00647239  0.16252767  0.83237803  1
  In  In37  1  0.33677357  0.17948891  0.15368213  1
  In  In38  1  -0.00442759  0.65999211  0.67538881  1
  In  In39  1  0.16365222  0.83045031  0.35350852  1
  In  In40  1  0.18135197  0.18536211  0.33646018  1
  In  In41  1  0.50563311  0.67189431  0.83248524  1
  In  In42  1  0.51007637  0.16483092  0.33776613  1
  In  In43  1  0.00843771  0.67287108  0.31927510  1
  In  In44  1  -0.03123725  0.46535124  0.51279245  1
  In  In45  1  0.50856843  0.82409756  0.33571010  1
  In  In46  1  0.36606831  0.04087013  0.35029791  1
  In  In47  1  0.34727685  0.68975464  -0.01211967  1
  In  In48  1  -0.02992439  -0.00052330  0.33540103  1
  In  In49  1  0.67210297  0.00960514  -0.00869862  1
  In  In50  1  0.00323948  0.19544687  0.51969478  1
  In  In51  1  0.65513440  0.19254645  0.81668723  1
  In  In52  1  0.35553338  0.85318163  0.52135031  1
  In  In53  1  0.65660712  0.32374682  -0.01176454  1
  In  In54  1  0.35050340  0.19059708  0.49582468  1
  In  In55  1  0.81896539  0.50371688  0.32686229  1
  In  In56  1  0.00159646  0.33665618  0.33656934  1
  In  In57  1  0.36797919  0.47031630  0.81039374  1
  In  In58  1  0.80151371  0.30846699  0.17418119  1
  In  In59  1  0.63477876  0.65564794  0.00676419  1
  In  In60  1  0.00510283  0.01506694  -0.02439015  1
  In  In61  1  0.50532417  0.00143921  0.83391028  1
  In  In62  1  -0.01171457  0.15613136  0.15481801  1
  In  In63  1  0.79369900  0.01487050  0.48847690  1
  In  In64  1  0.49814520  0.33560015  0.50476416  1
  In  In65  1  0.19000976  0.46359003  0.00768494  1
  In  In66  1  -0.01122676  0.00502839  0.68263690  1
  In  In67  1  0.82351940  0.64312401  0.17090058  1
  In  In68  1  0.66265225  0.82389772  0.51909949  1
  In  In69  1  0.51616775  0.49402168  0.33828837  1
  In  In70  1  0.17759213  0.47596792  0.32348858  1
  In  In71  1  0.65792296  0.83954662  0.16572400  1
  Te  Te72  1  0.09802483  0.10678566  0.05972583  1
  Te  Te73  1  0.07589600  0.08757813  0.40729273  1
  Te  Te74  1  0.09885110  0.08832322  0.74447705  1
  Te  Te75  1  0.07758391  0.41580128  0.08821536  1
  Te  Te76  1  0.09131093  0.41185377  0.43468885  1
  Te  Te77  1  0.08018539  0.38701360  0.75032043  1
  Te  Te78  1  0.10263250  0.74491674  0.09015538  1
  Te  Te79  1  0.07168151  0.74584908  0.44392932  1
  Te  Te80  1  0.09105622  0.74655299  0.75736257  1
  Te  Te81  1  0.41300399  0.08948449  0.05848979  1
  Te  Te82  1  0.46205157  0.08172273  0.46712233  1
  Te  Te83  1  0.42053125  0.10235514  0.75691167  1
  Te  Te84  1  0.42072793  0.41097667  0.06231730  1
  Te  Te85  1  0.40473197  0.41657683  0.40663993  1
  Te  Te86  1  0.44895457  0.39456474  0.70876655  1
  Te  Te87  1  0.46886980  0.73226318  0.06633636  1
  Te  Te88  1  0.41923434  0.74290753  0.43190096  1
  Te  Te89  1  0.44337598  0.76744757  0.73454686  1
  Te  Te90  1  0.74906750  0.11265104  0.06638370  1
  Te  Te91  1  0.73481811  0.12160808  0.39969599  1
  Te  Te92  1  0.74817095  0.08211093  0.75622109  1
  Te  Te93  1  0.72236923  0.41724207  0.10167892  1
  Te  Te94  1  0.73868639  0.40383941  0.41067949  1
  Te  Te95  1  0.77062165  0.39884440  0.72011838  1
  Te  Te96  1  0.75796985  0.74993995  0.07690854  1
  Te  Te97  1  0.72367607  0.73924471  0.41168975  1
  Te  Te98  1  0.72337112  0.76667026  0.75399932  1
  Te  Te99  1  0.08032038  0.24716279  0.23965472  1
  Te  Te100  1  0.09846930  0.27713078  0.59828732  1
  Te  Te101  1  0.09786081  0.24361420  0.90686879  1
  Te  Te102  1  0.06947208  0.55468767  0.24379420  1
  Te  Te103  1  0.07846339  0.57248864  0.58048397  1
  Te  Te104  1  0.08611057  0.57705668  0.92580781  1
  Te  Te105  1  0.06976362  0.91075118  0.25533856  1
  Te  Te106  1  0.09606722  0.91199085  0.60931110  1
  Te  Te107  1  0.11777443  0.94244297  0.90053957  1
  Te  Te108  1  0.40855309  0.25397181  0.26445934  1
  Te  Te109  1  0.42204361  0.25674252  0.61016155  1
  Te  Te110  1  0.43126224  0.23017770  0.86527766  1
  Te  Te111  1  0.44345199  0.59198397  0.21644469  1
  Te  Te112  1  0.44792554  0.58331850  0.57979922  1
  Te  Te113  1  0.41650619  0.57270369  0.91130920  1
  Te  Te114  1  0.41307093  0.91679830  0.25572155  1
  Te  Te115  1  0.43745266  0.93774240  0.60984736  1
  Te  Te116  1  0.41900278  0.92229284  0.92831874  1
  Te  Te117  1  0.74292669  0.21604878  0.27295501  1
  Te  Te118  1  0.70084983  0.22757315  0.58096077  1
  Te  Te119  1  0.75855974  0.25914300  0.90044008  1
  Te  Te120  1  0.71653253  0.57792237  0.24849383  1
  Te  Te121  1  0.76310656  0.56785334  0.58867637  1
  Te  Te122  1  0.74419294  0.57599394  0.92077289  1
  Te  Te123  1  0.74949065  0.92059497  0.25749628  1
  Te  Te124  1  0.74982535  0.92162265  0.59799116  1
  Te  Te125  1  0.74136410  0.92402341  0.89008395  1
  Te  Te126  1  0.25198043  0.27182911  0.07531561  1
  Te  Te127  1  0.24882672  0.27613483  0.42975940  1
  Te  Te128  1  0.29107940  0.24144183  0.78949007  1
  Te  Te129  1  0.26313496  0.58872598  0.07523637  1
  Te  Te130  1  0.24774715  0.58079465  0.41358625  1
  Te  Te131  1  0.25690817  0.58205893  0.75234113  1
  Te  Te132  1  0.26036204  0.92186631  0.07854956  1
  Te  Te133  1  0.26037223  0.93262145  0.42114635  1
  Te  Te134  1  0.24337450  0.91288005  0.78833773  1
  Te  Te135  1  0.57459501  0.23718310  0.07811586  1
  Te  Te136  1  0.59357461  0.25751114  0.41953379  1
  Te  Te137  1  0.55242173  0.28698115  0.75960954  1
  Te  Te138  1  0.54720406  0.57953948  0.09579961  1
  Te  Te139  1  0.58529902  0.59550637  0.42024214  1
  Te  Te140  1  0.58708284  0.56795224  0.75385971  1
  Te  Te141  1  0.57403926  0.91639805  0.06553066  1
  Te  Te142  1  0.58053704  0.92182765  0.42869618  1
  Te  Te143  1  0.57943084  0.90983555  0.74205243  1
  Te  Te144  1  0.90213246  0.25023634  0.07286903  1
  Te  Te145  1  0.90495702  0.25419994  0.42038631  1
  Te  Te146  1  0.92548220  0.25087173  0.73060760  1
  Te  Te147  1  0.91897795  0.55116402  0.09404823  1
  Te  Te148  1  0.92217765  0.57927621  0.41819427  1
  Te  Te149  1  0.90172767  0.56975225  0.75415569  1
  Te  Te150  1  0.93446487  0.92614726  0.08677036  1
  Te  Te151  1  0.88503299  0.90526846  0.41865081  1
  Te  Te152  1  0.89897097  0.91653657  0.75874288  1
  Te  Te153  1  0.24821821  0.07604436  0.24571016  1
  Te  Te154  1  0.26250716  0.08924764  0.58396105  1
  Te  Te155  1  0.23256044  0.14273023  0.89933758  1
  Te  Te156  1  0.24553358  0.38466361  0.22885053  1
  Te  Te157  1  0.26328935  0.39364599  0.60377429  1
  Te  Te158  1  0.24909312  0.40420479  0.88364395  1
  Te  Te159  1  0.26418049  0.75670644  0.25349401  1
  Te  Te160  1  0.25841280  0.77719331  0.61288133  1
  Te  Te161  1  0.29415120  0.78552062  0.87322329  1
  Te  Te162  1  0.59074454  0.10262845  0.21870743  1
  Te  Te163  1  0.58513433  0.11851711  0.56823850  1
  Te  Te164  1  0.57817305  0.10647677  0.91898799  1
  Te  Te165  1  0.59842313  0.40431117  0.25467600  1
  Te  Te166  1  0.58054343  0.41472348  0.60522948  1
  Te  Te167  1  0.56978091  0.41703326  0.91019813  1
  Te  Te168  1  0.59557566  0.73774606  0.25260081  1
  Te  Te169  1  0.56044491  0.73929361  0.58770684  1
  Te  Te170  1  0.60283196  0.75855942  0.90685757  1
  Te  Te171  1  0.88773752  0.09953045  0.25592899  1
  Te  Te172  1  0.91780417  0.07560938  0.56499700  1
  Te  Te173  1  0.89396495  0.08704354  0.91318625  1
  Te  Te174  1  0.90205789  0.40519625  0.24386438  1
  Te  Te175  1  0.89691234  0.39253798  0.62567746  1
  Te  Te176  1  0.89752066  0.39202272  0.89838820  1
  Te  Te177  1  0.88183288  0.74512530  0.27365077  1
  Te  Te178  1  0.90107170  0.75856724  0.60612083  1
  Te  Te179  1  0.92030613  0.75312117  0.91697077  1
