# generated using pymatgen
data_In2Te3
_symmetry_space_group_name_H-M   'P 1'
_cell_length_a   19.00981737
_cell_length_b   19.04350679
_cell_length_c   19.01879875
_cell_angle_alpha   90.18414237
_cell_angle_beta   89.79613543
_cell_angle_gamma   89.88266983
_symmetry_Int_Tables_number   1
_chemical_formula_structural   In2Te3
_chemical_formula_sum   'In72 Te108'
_cell_volume   6884.96980032
_cell_formula_units_Z   36
loop_
 _symmetry_equiv_pos_site_id
 _symmetry_equiv_pos_as_xyz
  1  'x, y, z'
loop_
 _atom_site_type_symbol
 _atom_site_label
 _atom_site_symmetry_multiplicity
 _atom_site_fract_x
 _atom_site_fract_y
 _atom_site_fract_z
 _atom_site_occupancy
  In  In0  1  0.66350704  0.17615497  0.49633867  1
  In  In1  1  0.01313322  0.00091423  0.65862360  1
  In  In2  1  -0.01022260  -0.00723055  -0.01530651  1
  In  In3  1  0.35378771  0.85220490  0.84120617  1
  In  In4  1  0.69073286  0.00753118  -0.00240447  1
  In  In5  1  -0.02112779  0.64936568  0.64665698  1
  In  In6  1  -0.01089497  0.18015139  0.16213465  1
  In  In7  1  0.48535523  0.50640870  0.02159235  1
  In  In8  1  0.51310418  0.02646830  0.17974135  1
  In  In9  1  0.32672475  0.50570350  0.84072252  1
  In  In10  1  0.16009207  0.14643544  -0.02219793  1
  In  In11  1  0.82769224  0.66579955  0.16726220  1
  In  In12  1  0.33586510  0.34469250  0.32004659  1
  In  In13  1  0.34204687  0.16742632  0.85210935  1
  In  In14  1  0.48942048  0.51948143  0.32849618  1
  In  In15  1  0.51938496  -0.01019078  0.85280686  1
  In  In16  1  0.33371452  0.31101880  0.64892621  1
  In  In17  1  0.83520927  0.83554792  0.35467053  1
  In  In18  1  0.79816403  0.32249516  0.86852204  1
  In  In19  1  0.67239718  0.50500688  0.85881487  1
  In  In20  1  -0.01833359  0.15413589  0.82913205  1
  In  In21  1  0.65651776  0.83689471  0.17092697  1
  In  In22  1  0.15007758  0.64744713  0.17069441  1
  In  In23  1  0.66538758  0.70334314  0.31943521  1
  In  In24  1  0.15258971  0.67990692  0.50286073  1
  In  In25  1  0.49161539  0.84660594  0.65549091  1
  In  In26  1  0.66045900  0.34272023  0.63434751  1
  In  In27  1  0.48881376  0.16360767  0.66725297  1
  In  In28  1  0.18952773  0.01510283  0.48702184  1
  In  In29  1  0.66125347  0.65656183  0.68824132  1
  In  In30  1  0.53935116  0.30672099  0.15288122  1
  In  In31  1  0.15343647  0.51212407  -0.00449600  1
  In  In32  1  0.19752960  0.35653483  0.15591052  1
  In  In33  1  -0.05606843  0.78055629  0.86127445  1
  In  In34  1  -0.01641439  0.34986057  0.32722695  1
  In  In35  1  -0.01503730  0.33176325  0.66297271  1
  In  In36  1  0.82865540  0.00009926  0.51821971  1
  In  In37  1  0.15260859  0.85376209  0.28424603  1
  In  In38  1  0.34549827  0.70054512  0.03108244  1
  In  In39  1  0.47931911  0.66453152  0.49944148  1
  In  In40  1  0.83123754  0.50362414  0.01826078  1
  In  In41  1  0.83812366  0.02126837  0.17208478  1
  In  In42  1  0.84451145  0.83660681  0.67643444  1
  In  In43  1  0.51426460  0.33379992  0.82561548  1
  In  In44  1  0.33482082  0.66329755  0.68665892  1
  In  In45  1  0.15780855  0.17162153  0.33938443  1
  In  In46  1  0.34809955  0.31667981  -0.01624123  1
  In  In47  1  0.36286395  0.84713815  0.48550264  1
  In  In48  1  0.35390918  0.14816325  0.47450437  1
  In  In49  1  0.12505628  0.33828316  0.49167637  1
  In  In50  1  -0.01752495  0.34215732  0.01402230  1
  In  In51  1  0.66068325  0.47255518  0.49137419  1
  In  In52  1  0.35130019  0.16614748  0.18036981  1
  In  In53  1  0.82570845  -0.01493862  0.83362085  1
  In  In54  1  0.35433185  -0.00466544  0.31155299  1
  In  In55  1  0.00111637  0.84387453  0.50351548  1
  In  In56  1  -0.00818456  0.83715053  0.14784506  1
  In  In57  1  0.54126251  0.68753461  0.87644835  1
  In  In58  1  0.83215654  0.31874430  0.46606677  1
  In  In59  1  0.83452172  0.48957714  0.65431073  1
  In  In60  1  0.66574616  0.51909517  0.16494937  1
  In  In61  1  0.19231532  0.84504540  0.03681450  1
  In  In62  1  0.18158282  0.80290169  0.68769059  1
  In  In63  1  0.15968959  0.66317392  0.84331072  1
  In  In64  1  0.30942474  0.49735337  0.49973087  1
  In  In65  1  0.67550326  0.00277150  0.68027252  1
  In  In66  1  0.35260668  0.69273356  0.32940446  1
  In  In67  1  -0.02310305  0.64210595  0.35980928  1
  In  In68  1  0.17445150  -0.00902084  0.83310533  1
  In  In69  1  0.80087120  0.30897746  0.18782407  1
  In  In70  1  0.59948047  0.01318029  0.36379975  1
  In  In71  1  0.14537018  0.33644006  0.80259643  1
  Te  Te72  1  0.07253882  0.07785426  0.07833878  1
  Te  Te73  1  0.07869053  0.08112100  0.42289769  1
  Te  Te74  1  0.09539882  0.09012118  0.75103768  1
  Te  Te75  1  0.07667283  0.42742404  0.09468552  1
  Te  Te76  1  0.09796664  0.42658194  0.37955657  1
  Te  Te77  1  0.05129976  0.43072242  0.74788178  1
  Te  Te78  1  0.08580347  0.74380499  0.07237307  1
  Te  Te79  1  0.08078933  0.76499936  0.39982777  1
  Te  Te80  1  0.06076293  0.74163872  0.75144446  1
  Te  Te81  1  0.43342753  0.09865371  0.08125235  1
  Te  Te82  1  0.45422193  0.06276047  0.40007567  1
  Te  Te83  1  0.42162238  0.07198813  0.76540544  1
  Te  Te84  1  0.42257713  0.38891695  0.09276562  1
  Te  Te85  1  0.41659947  0.42436290  0.42141933  1
  Te  Te86  1  0.39852045  0.40242376  0.75609028  1
  Te  Te87  1  0.44974661  0.76267882  0.11043108  1
  Te  Te88  1  0.46348727  0.78419317  0.39013363  1
  Te  Te89  1  0.43402943  0.74627660  0.76341375  1
  Te  Te90  1  0.72687788  0.10219434  0.11012447  1
  Te  Te91  1  0.73510792  0.06610764  0.42087008  1
  Te  Te92  1  0.78832628  0.08248773  0.73042972  1
  Te  Te93  1  0.73796609  0.41002764  0.08781534  1
  Te  Te94  1  0.74107464  0.40426165  0.38610795  1
  Te  Te95  1  0.73670288  0.41635144  0.75186776  1
  Te  Te96  1  0.74263056  0.75214217  0.08093268  1
  Te  Te97  1  0.75155467  0.74362863  0.42979741  1
  Te  Te98  1  0.77270897  0.73148678  0.75270610  1
  Te  Te99  1  0.10344684  0.25699356  0.22711954  1
  Te  Te100  1  0.07340351  0.24345273  0.58780038  1
  Te  Te101  1  0.07117178  0.25262362  0.91616551  1
  Te  Te102  1  0.07217941  0.57296666  0.27137810  1
  Te  Te103  1  0.07592121  0.57344783  0.56604579  1
  Te  Te104  1  0.06122644  0.57591571  0.90399878  1
  Te  Te105  1  0.05611442  0.94391187  0.22566986  1
  Te  Te106  1  0.11138690  0.90233388  0.58885749  1
  Te  Te107  1  0.09776967  0.90295720  0.92790701  1
  Te  Te108  1  0.44156391  0.25212822  0.26248483  1
  Te  Te109  1  0.43550530  0.24929362  0.55488953  1
  Te  Te110  1  0.45769919  0.23164212  0.92470007  1
  Te  Te111  1  0.40907448  0.59617098  0.23377902  1
  Te  Te112  1  0.40839795  0.56961975  0.59343025  1
  Te  Te113  1  0.41064359  0.59893333  0.92399950  1
  Te  Te114  1  0.41211063  0.90631279  0.20409444  1
  Te  Te115  1  0.42280712  0.94520884  0.57442175  1
  Te  Te116  1  0.43995333  0.90608145  0.94378606  1
  Te  Te117  1  0.70187802  0.25006896  0.28788977  1
  Te  Te118  1  0.76606216  0.24800311  0.58187697  1
  Te  Te119  1  0.70370153  0.22866069  0.92840867  1
  Te  Te120  1  0.75170772  0.58673846  0.26987432  1
  Te  Te121  1  0.73207268  0.57266668  0.58194643  1
  Te  Te122  1  0.76081075  0.60032632  0.92877156  1
  Te  Te123  1  0.76172867  0.91421206  0.24933086  1
  Te  Te124  1  0.74001006  0.89984122  0.58718844  1
  Te  Te125  1  0.73559259  0.89247566  0.90720909  1
  Te  Te126  1  0.24843813  0.23667230  0.06706888  1
  Te  Te127  1  0.25466520  0.25714963  0.41811461  1
  Te  Te128  1  0.25085638  0.23815156  0.75400507  1
  Te  Te129  1  0.25723021  0.58479113  0.07607704  1
  Te  Te130  1  0.25578559  0.60996270  0.41505540  1
  Te  Te131  1  0.23080993  0.57048614  0.74349415  1
  Te  Te132  1  0.27992418  0.91851755  0.12410002  1
  Te  Te133  1  0.25479293  0.90377947  0.39430966  1
  Te  Te134  1  0.26659880  0.91793568  0.73609137  1
  Te  Te135  1  0.63482422  0.22826928  0.06939306  1
  Te  Te136  1  0.61914958  0.28681786  0.40811639  1
  Te  Te137  1  0.59596588  0.24572383  0.73434848  1
  Te  Te138  1  0.59053397  0.59670213  0.06572451  1
  Te  Te139  1  0.58645862  0.59550522  0.41734043  1
  Te  Te140  1  0.56774683  0.57451742  0.77417790  1
  Te  Te141  1  0.58711302  0.93586570  0.08120718  1
  Te  Te142  1  0.59308973  0.86991950  0.38428814  1
  Te  Te143  1  0.59299774  0.90006213  0.75367178  1
  Te  Te144  1  0.88569771  0.24537119  0.07338720  1
  Te  Te145  1  0.92618910  0.23071195  0.39206126  1
  Te  Te146  1  0.89752273  0.26190648  0.76776719  1
  Te  Te147  1  0.92873370  0.59461922  0.08390748  1
  Te  Te148  1  0.92545361  0.55230018  0.46022298  1
  Te  Te149  1  0.88457407  0.59431140  0.74606713  1
  Te  Te150  1  0.89060196  0.91883132  0.07061032  1
  Te  Te151  1  0.92627599  0.93998412  0.41622618  1
  Te  Te152  1  0.94608439  0.91519184  0.76553422  1
  Te  Te153  1  0.24717185  0.08308186  0.25031126  1
  Te  Te154  1  0.26607790  0.09563147  0.57918060  1
  Te  Te155  1  0.27078925  0.05607399  0.93005535  1
  Te  Te156  1  0.26287746  0.44802696  0.24749525  1
  Te  Te157  1  0.23156482  0.40283387  0.58749707  1
  Te  Te158  1  0.23858910  0.40446134  0.91585209  1
  Te  Te159  1  0.24526941  0.74714401  0.23428665  1
  Te  Te160  1  0.27867862  0.75100339  0.57467212  1
  Te  Te161  1  0.25591637  0.75583286  0.91295767  1
  Te  Te162  1  0.61595215  0.10958515  0.25107009  1
  Te  Te163  1  0.58614333  0.07946982  0.58609795  1
  Te  Te164  1  0.62477963  0.08788736  0.89038797  1
  Te  Te165  1  0.57388926  0.42775725  0.24228103  1
  Te  Te166  1  0.55576256  0.42929571  0.58364454  1
  Te  Te167  1  0.57622041  0.41692344  0.93501178  1
  Te  Te168  1  0.56305959  0.72457350  0.21183788  1
  Te  Te169  1  0.57456574  0.73881558  0.58933139  1
  Te  Te170  1  0.63716939  0.77540720  0.93990044  1
  Te  Te171  1  0.90286527  0.11734876  0.26435633  1
  Te  Te172  1  0.91208051  0.08911731  0.60094976  1
  Te  Te173  1  0.88934752  0.09037403  0.92856473  1
  Te  Te174  1  0.89777735  0.41081623  0.22760826  1
  Te  Te175  1  0.91741409  0.42112021  0.54446201  1
  Te  Te176  1  0.90567236  0.42012445  0.91149001  1
  Te  Te177  1  0.92508640  0.75075876  0.25498687  1
  Te  Te178  1  0.90193341  0.74932215  0.56390700  1
  Te  Te179  1  0.87930793  0.71003829  0.97148880  1
