# generated using pymatgen
data_In2Te3
_symmetry_space_group_name_H-M   'P 1'
_cell_length_a   18.92953304
_cell_length_b   18.93341932
_cell_length_c   18.95069995
_cell_angle_alpha   89.80894369
_cell_angle_beta   89.88939695
_cell_angle_gamma   90.10070762
_symmetry_Int_Tables_number   1
_chemical_formula_structural   In2Te3
_chemical_formula_sum   'In72 Te108'
_cell_volume   6791.88478456
_cell_formula_units_Z   36
loop_
 _symmetry_equiv_pos_site_id
 _symmetry_equiv_pos_as_xyz
  1  'x, y, z'
loop_
 _atom_site_type_symbol
 _atom_site_label
 _atom_site_symmetry_multiplicity
 _atom_site_fract_x
 _atom_site_fract_y
 _atom_site_fract_z
 _atom_site_occupancy
  In  In0  1  0.64875009  0.64491535  0.33588055  1
  In  In1  1  0.65918428  0.82490495  0.81475830  1
  In  In2  1  0.31723071  0.18867949  0.81171727  1
  In  In3  1  0.52880157  0.00421058  0.83464606  1
  In  In4  1  0.67789652  0.33816974  -0.00964974  1
  In  In5  1  0.85203372  0.19161197  0.65213561  1
  In  In6  1  0.48293550  0.14746480  -0.01091371  1
  In  In7  1  0.52877516  0.01772697  0.50802241  1
  In  In8  1  0.51252819  0.34249648  0.17874402  1
  In  In9  1  0.03578601  0.32608600  0.66911518  1
  In  In10  1  0.15839713  0.80747646  0.02033820  1
  In  In11  1  0.68651437  0.50662835  0.82882463  1
  In  In12  1  0.16113752  0.65024080  0.49616319  1
  In  In13  1  0.83966351  0.86816301  0.02483753  1
  In  In14  1  0.01280362  0.63935932  0.31495996  1
  In  In15  1  0.51612485  0.66594363  0.51319216  1
  In  In16  1  0.31273135  0.63768278  0.66933642  1
  In  In17  1  0.26193445  0.63724372  0.31051717  1
  In  In18  1  0.16337827  0.00837392  0.84720615  1
  In  In19  1  -0.00176003  0.35044995  0.00143624  1
  In  In20  1  0.32201592  0.47753576  0.82957085  1
  In  In21  1  -0.00121651  0.82321892  0.49479126  1
  In  In22  1  0.01003101  0.48539058  0.85356407  1
  In  In23  1  0.68408299  0.01046478  0.33534698  1
  In  In24  1  0.69672950  0.16423733  0.13983878  1
  In  In25  1  0.33815230  0.00862439  0.66856923  1
  In  In26  1  0.29228546  0.19467402  0.48082259  1
  In  In27  1  0.70591329  0.36627608  0.36709252  1
  In  In28  1  0.02532327  0.15484064  0.17584353  1
  In  In29  1  0.84223996  0.84927245  0.64893065  1
  In  In30  1  0.83024208  0.01220375  0.83098307  1
  In  In31  1  0.47302612  0.65699031  0.16298085  1
  In  In32  1  0.00786167  0.18806792  0.84573134  1
  In  In33  1  0.17055114  -0.01652082  0.14730999  1
  In  In34  1  0.68516444  0.64312343  0.63779046  1
  In  In35  1  0.68393314  0.84390302  0.51563116  1
  In  In36  1  0.48657567  -0.02761280  0.19505571  1
  In  In37  1  0.30588471  0.49358278  0.18623346  1
  In  In38  1  0.82436908  0.49423544  0.66733694  1
  In  In39  1  0.32066077  0.35402926  0.65638455  1
  In  In40  1  0.31757023  0.67906265  0.02315670  1
  In  In41  1  0.86269013  0.34175887  0.19649406  1
  In  In42  1  0.68351508  0.48317765  0.17155250  1
  In  In43  1  0.34034751  -0.01361286  0.31505266  1
  In  In44  1  -0.01117531  0.01543155  0.67441128  1
  In  In45  1  0.86621346  0.63453978  0.13969627  1
  In  In46  1  0.52316374  0.21775939  0.69784620  1
  In  In47  1  0.00122562  -0.02498643  0.29652712  1
  In  In48  1  0.83389569  0.16333885  -0.00851701  1
  In  In49  1  0.29923367  0.16483532  0.14550683  1
  In  In50  1  0.50120584  0.51021733  0.01696369  1
  In  In51  1  0.48841668  0.86305435  0.69279242  1
  In  In52  1  0.86352941  0.22210889  0.33709117  1
  In  In53  1  0.49263825  0.68030615  0.84586382  1
  In  In54  1  0.31044020  0.31728143  0.34957323  1
  In  In55  1  0.84791081  0.79503038  0.32995282  1
  In  In56  1  0.01951941  0.80226842  0.85020489  1
  In  In57  1  0.00098133  0.68241902  0.66216298  1
  In  In58  1  0.00075426  0.48823213  0.47742348  1
  In  In59  1  0.48177840  0.33067300  0.50108735  1
  In  In60  1  0.32085973  0.82107818  0.48482951  1
  In  In61  1  0.46868665  0.84600745  0.32249427  1
  In  In62  1  0.51205829  0.49106629  0.65958232  1
  In  In63  1  0.31464585  0.32404391  -0.01496057  1
  In  In64  1  0.68796493  0.17946467  0.50561110  1
  In  In65  1  0.49217827  0.16681791  0.32933811  1
  In  In66  1  0.65966083  0.84134122  0.15906657  1
  In  In67  1  0.15829606  0.00350097  0.50874477  1
  In  In68  1  0.68115883  0.67482823  -0.02673137  1
  In  In69  1  0.31631519  0.85420362  0.85180425  1
  In  In70  1  0.84804313  0.67166063  0.85198500  1
  In  In71  1  0.15357934  0.18544824  0.36078905  1
  Te  Te72  1  0.09957958  0.08607011  0.07078801  1
  Te  Te73  1  0.07092246  0.06618252  0.40275933  1
  Te  Te74  1  0.08834293  0.09952716  0.75093728  1
  Te  Te75  1  0.04806276  0.43584955  0.11474398  1
  Te  Te76  1  0.01895850  0.38394109  0.36882055  1
  Te  Te77  1  0.10821414  0.41319956  0.76684282  1
  Te  Te78  1  0.10249283  0.67898139  0.07482116  1
  Te  Te79  1  0.08746158  0.74381166  0.40301179  1
  Te  Te80  1  0.10247062  0.74696863  0.74433653  1
  Te  Te81  1  0.41376027  0.07502502  0.10383222  1
  Te  Te82  1  0.41521760  0.07492533  0.42229965  1
  Te  Te83  1  0.43180570  0.09428305  0.75009795  1
  Te  Te84  1  0.40919576  0.41600898  0.09211184  1
  Te  Te85  1  0.40866414  0.41037598  0.40256909  1
  Te  Te86  1  0.42897436  0.40350880  0.75218024  1
  Te  Te87  1  0.42922003  0.76088488  0.07093916  1
  Te  Te88  1  0.41908805  0.73227789  0.41430236  1
  Te  Te89  1  0.40228279  0.74726398  0.74343395  1
  Te  Te90  1  0.78129660  0.05201422  0.08532645  1
  Te  Te91  1  0.77428539  0.10894527  0.40282925  1
  Te  Te92  1  0.76707838  0.10910670  0.74293913  1
  Te  Te93  1  0.77675770  0.40618461  0.08266478  1
  Te  Te94  1  0.80549328  0.46390963  0.40957885  1
  Te  Te95  1  0.72849461  0.39926009  0.73567418  1
  Te  Te96  1  0.75764559  0.74544752  0.08874220  1
  Te  Te97  1  0.73640511  0.73943979  0.42067428  1
  Te  Te98  1  0.75901794  0.73669796  0.74171564  1
  Te  Te99  1  0.07828425  0.26600845  0.26095263  1
  Te  Te100  1  0.05861715  0.22604911  0.55957967  1
  Te  Te101  1  0.09713563  0.26024304  0.93856833  1
  Te  Te102  1  0.08046724  0.52870601  0.24286758  1
  Te  Te103  1  0.07240193  0.57091386  0.58878257  1
  Te  Te104  1  0.05010998  0.60017638  0.94164138  1
  Te  Te105  1  0.09971258  0.88586077  0.23290804  1
  Te  Te106  1  0.07226403  0.91123834  0.59305294  1
  Te  Te107  1  0.08228671  0.91171525  0.93307719  1
  Te  Te108  1  0.40427863  0.24894659  0.23681849  1
  Te  Te109  1  0.39948528  0.23448654  0.58477901  1
  Te  Te110  1  0.42329324  0.25811331  0.90507074  1
  Te  Te111  1  0.40231050  0.57881688  0.26802471  1
  Te  Te112  1  0.41174561  0.57053715  0.57772590  1
  Te  Te113  1  0.40583391  0.58332357  0.92369585  1
  Te  Te114  1  0.34607429  0.85693417  0.23142316  1
  Te  Te115  1  0.41422485  0.91544191  0.56458751  1
  Te  Te116  1  0.42527782  0.93059551  0.90990719  1
  Te  Te117  1  0.73387728  0.26390644  0.24915454  1
  Te  Te118  1  0.77095538  0.28224663  0.56700108  1
  Te  Te119  1  0.73954447  0.23624144  0.90028365  1
  Te  Te120  1  0.75893236  0.59324644  0.24235005  1
  Te  Te121  1  0.74321448  0.53953228  0.54913329  1
  Te  Te122  1  0.77747065  0.56448875  0.93575514  1
  Te  Te123  1  0.75520567  0.89969228  0.26117957  1
  Te  Te124  1  0.76956092  0.94884159  0.56934767  1
  Te  Te125  1  0.75107079  0.90659625  0.90791681  1
  Te  Te126  1  0.21409044  0.26177921  0.07516078  1
  Te  Te127  1  0.18015115  0.30325912  0.48779599  1
  Te  Te128  1  0.22318841  0.27881546  0.74125323  1
  Te  Te129  1  0.22575875  0.58251864  0.09287901  1
  Te  Te130  1  0.23593390  0.54474312  0.42290146  1
  Te  Te131  1  0.22359864  0.55671784  0.75260063  1
  Te  Te132  1  0.25584728  0.91414883  0.04987773  1
  Te  Te133  1  0.23582355  0.91868659  0.40906357  1
  Te  Te134  1  0.23890022  0.92131601  0.74032276  1
  Te  Te135  1  0.57927175  0.25234775  0.07673465  1
  Te  Te136  1  0.58656231  0.24963003  0.41170885  1
  Te  Te137  1  0.63004999  0.27282257  0.77862414  1
  Te  Te138  1  0.60371288  0.59353260  0.09022381  1
  Te  Te139  1  0.58047911  0.56049920  0.43438352  1
  Te  Te140  1  0.58303273  0.59914739  0.75489981  1
  Te  Te141  1  0.58129572  0.94137062  0.08728842  1
  Te  Te142  1  0.58193431  0.91417549  0.40838997  1
  Te  Te143  1  0.61509393  0.93938880  0.72590504  1
  Te  Te144  1  0.91847156  0.24130884  0.09157689  1
  Te  Te145  1  0.95696059  0.26304758  0.44558711  1
  Te  Te146  1  0.92139984  0.27961536  0.76331817  1
  Te  Te147  1  0.95399879  0.54893704  0.05365856  1
  Te  Te148  1  0.91013392  0.59026147  0.41362379  1
  Te  Te149  1  0.92067564  0.58093335  0.75390756  1
  Te  Te150  1  0.90941281  0.96669379  0.10413766  1
  Te  Te151  1  0.91221321  0.90970164  0.40588056  1
  Te  Te152  1  0.92532078  0.89956611  0.76478146  1
  Te  Te153  1  0.24255903  0.09511065  0.26816611  1
  Te  Te154  1  0.24214263  0.09743907  0.59184621  1
  Te  Te155  1  0.26833369  0.09056878  0.90888650  1
  Te  Te156  1  0.22660430  0.38527074  0.24937195  1
  Te  Te157  1  0.24459829  0.42516221  0.55152861  1
  Te  Te158  1  0.23648712  0.43979309  0.94265135  1
  Te  Te159  1  0.23396437  0.75044124  0.22434756  1
  Te  Te160  1  0.23890506  0.74558869  0.58590153  1
  Te  Te161  1  0.24040934  0.73608620  0.90588869  1
  Te  Te162  1  0.58903203  0.08689356  0.24351349  1
  Te  Te163  1  0.59133283  0.11326841  0.60392251  1
  Te  Te164  1  0.60234089  0.08704232  0.93092064  1
  Te  Te165  1  0.58999842  0.42623450  0.27610339  1
  Te  Te166  1  0.58805714  0.39628384  0.57849653  1
  Te  Te167  1  0.58272217  0.43261253  0.91736972  1
  Te  Te168  1  0.57127780  0.75128163  0.24945051  1
  Te  Te169  1  0.58102386  0.76728799  0.60555836  1
  Te  Te170  1  0.57383175  0.77511413  0.93131840  1
  Te  Te171  1  0.91348597  0.09780480  0.26124024  1
  Te  Te172  1  0.91533160  0.08514467  0.56973505  1
  Te  Te173  1  0.93507627  0.07574212  0.91958309  1
  Te  Te174  1  0.93843346  0.45838577  0.25380238  1
  Te  Te175  1  0.93571838  0.41820482  0.59750785  1
  Te  Te176  1  0.90305012  0.39110915  0.89491702  1
  Te  Te177  1  0.93908902  0.74003556  0.22105836  1
  Te  Te178  1  0.89618857  0.73454697  0.56592317  1
  Te  Te179  1  0.91922841  0.75620242  0.95481065  1
