# generated using pymatgen
data_In2Te3
_symmetry_space_group_name_H-M   'P 1'
_cell_length_a   18.98151755
_cell_length_b   18.96636924
_cell_length_c   18.97785277
_cell_angle_alpha   89.90674733
_cell_angle_beta   90.22112040
_cell_angle_gamma   90.06197760
_symmetry_Int_Tables_number   1
_chemical_formula_structural   In2Te3
_chemical_formula_sum   'In72 Te108'
_cell_volume   6832.16182494
_cell_formula_units_Z   36
loop_
 _symmetry_equiv_pos_site_id
 _symmetry_equiv_pos_as_xyz
  1  'x, y, z'
loop_
 _atom_site_type_symbol
 _atom_site_label
 _atom_site_symmetry_multiplicity
 _atom_site_fract_x
 _atom_site_fract_y
 _atom_site_fract_z
 _atom_site_occupancy
  In  In0  1  0.67585938  -0.00282530  0.00749611  1
  In  In1  1  0.83347354  0.66090892  0.81644117  1
  In  In2  1  0.00056434  0.01975991  0.65187255  1
  In  In3  1  -0.00210298  0.84352050  0.82438020  1
  In  In4  1  0.85204855  0.02688312  0.82514959  1
  In  In5  1  0.50982904  0.85670964  0.34327338  1
  In  In6  1  -0.00737318  0.68028099  0.35356864  1
  In  In7  1  0.80693135  0.14303165  0.36022440  1
  In  In8  1  -0.02257821  0.84138789  0.18178724  1
  In  In9  1  0.84294834  0.00037139  0.15906453  1
  In  In10  1  0.34708614  0.34917314  0.32454710  1
  In  In11  1  0.69275289  0.51522173  0.82359158  1
  In  In12  1  0.14925352  0.47202729  0.35502701  1
  In  In13  1  0.31408625  0.81820452  0.47921761  1
  In  In14  1  0.00278291  0.19158568  0.51923033  1
  In  In15  1  0.33620433  0.16162221  0.17185605  1
  In  In16  1  0.65503060  0.51451916  0.18883269  1
  In  In17  1  0.14351987  0.45906540  0.68209102  1
  In  In18  1  0.69498625  0.00668739  0.65396109  1
  In  In19  1  0.31063815  0.00388884  -0.00933934  1
  In  In20  1  0.83319679  0.65191789  0.49061899  1
  In  In21  1  0.32689941  0.48105627  0.82010616  1
  In  In22  1  0.16549539  0.31622508  0.16650625  1
  In  In23  1  0.49482615  0.00315721  0.83568401  1
  In  In24  1  0.19046418  0.50001944  -0.01258288  1
  In  In25  1  0.81522745  0.30884189  0.20295993  1
  In  In26  1  0.14251634  0.18080963  0.00016674  1
  In  In27  1  0.51817795  0.14348229  0.35268799  1
  In  In28  1  0.67972837  0.67473695  0.33473819  1
  In  In29  1  0.86036091  0.47117650  0.66343013  1
  In  In30  1  0.49268088  0.66570996  0.18611699  1
  In  In31  1  -0.00418608  0.48375155  0.19196670  1
  In  In32  1  0.14778046  0.62337484  0.52252974  1
  In  In33  1  0.66224904  0.67443061  0.67022681  1
  In  In34  1  0.32765562  0.64065687  0.31750484  1
  In  In35  1  0.16353264  0.64700833  0.14301198  1
  In  In36  1  0.81886009  0.32820933  0.50009514  1
  In  In37  1  0.67379107  0.87398231  0.82052612  1
  In  In38  1  0.35428920  0.01398291  0.65512815  1
  In  In39  1  0.86145795  0.30478495  0.82134353  1
  In  In40  1  0.33962761  0.80221315  0.83852356  1
  In  In41  1  0.49735263  0.35490640  0.81776893  1
  In  In42  1  0.36104477  0.65269409  0.67898380  1
  In  In43  1  0.85089175  0.15220659  0.00472312  1
  In  In44  1  0.15361541  0.82844976  0.32611628  1
  In  In45  1  0.15060606  0.02108487  0.80392937  1
  In  In46  1  0.17526180  0.82689010  0.68568164  1
  In  In47  1  0.83024408  0.84219953  0.35493042  1
  In  In48  1  0.00735808  0.17172084  0.17015079  1
  In  In49  1  0.52430201  0.82399824  0.01907812  1
  In  In50  1  0.50699006  0.30303188  0.48198750  1
  In  In51  1  0.14479038  0.67101994  0.83795813  1
  In  In52  1  0.49686171  0.00971391  0.49118739  1
  In  In53  1  0.36702986  0.84459596  0.18010124  1
  In  In54  1  0.65948353  0.32022654  0.00198952  1
  In  In55  1  0.49470525  0.50278539  0.01588511  1
  In  In56  1  -0.00089848  0.34226586  -0.02202743  1
  In  In57  1  0.51744840  0.65781245  0.83757780  1
  In  In58  1  0.15602882  0.16493999  0.31981859  1
  In  In59  1  -0.02770392  0.84530554  0.51317339  1
  In  In60  1  0.69825079  0.82830279  0.13958707  1
  In  In61  1  0.00389338  0.65471644  -0.01078732  1
  In  In62  1  0.17494156  0.84151081  -0.01259927  1
  In  In63  1  0.49426190  0.17939495  -0.02027251  1
  In  In64  1  0.50521296  0.66201366  0.51551278  1
  In  In65  1  0.67038652  0.30188905  0.64601620  1
  In  In66  1  0.50209489  0.17019433  0.67916974  1
  In  In67  1  0.82494702  0.51083226  0.02418356  1
  In  In68  1  0.52092444  0.34720631  0.16352701  1
  In  In69  1  0.66620067  0.49625907  0.49229617  1
  In  In70  1  0.30473986  0.19397396  0.51681306  1
  In  In71  1  0.18511672  0.01700703  0.50024656  1
  Te  Te72  1  0.08744170  0.08007647  0.09047052  1
  Te  Te73  1  0.07690831  0.09315856  0.42867138  1
  Te  Te74  1  0.06027655  0.12157572  0.74184136  1
  Te  Te75  1  0.08371744  0.42233163  0.08357061  1
  Te  Te76  1  0.03635108  0.44242989  0.44284268  1
  Te  Te77  1  0.04606357  0.36633274  0.75715522  1
  Te  Te78  1  0.08038979  0.75894278  0.07902236  1
  Te  Te79  1  0.09419123  0.74965999  0.44351668  1
  Te  Te80  1  0.06014133  0.74116856  0.73244060  1
  Te  Te81  1  0.41371259  0.08165290  0.06803460  1
  Te  Te82  1  0.39131258  0.10054772  0.43201566  1
  Te  Te83  1  0.40102830  0.10260852  0.76975672  1
  Te  Te84  1  0.41601891  0.39479705  0.07375953  1
  Te  Te85  1  0.42143321  0.41219073  0.43339003  1
  Te  Te86  1  0.40998156  0.41776677  0.71751639  1
  Te  Te87  1  0.41317694  0.74067775  0.07915146  1
  Te  Te88  1  0.41692222  0.74403578  0.39640776  1
  Te  Te89  1  0.44652870  0.75953180  0.74321628  1
  Te  Te90  1  0.74420940  0.09850448  0.09738710  1
  Te  Te91  1  0.72841658  0.03454149  0.42590194  1
  Te  Te92  1  0.75103675  0.10193395  0.75061745  1
  Te  Te93  1  0.74110958  0.40652420  0.09939215  1
  Te  Te94  1  0.75422371  0.42052288  0.40430795  1
  Te  Te95  1  0.75036717  0.39688704  0.74715736  1
  Te  Te96  1  0.74597844  0.72325174  0.05548685  1
  Te  Te97  1  0.73794714  0.76135295  0.44442988  1
  Te  Te98  1  0.75468207  0.76976895  0.74354410  1
  Te  Te99  1  0.06270990  0.27442622  0.26776565  1
  Te  Te100  1  0.12069534  0.27362368  0.56099643  1
  Te  Te101  1  0.09999676  0.27687462  0.89210235  1
  Te  Te102  1  0.08844916  0.59508991  0.26359064  1
  Te  Te103  1  0.06011043  0.56933854  0.62584773  1
  Te  Te104  1  0.07435999  0.55333322  0.90269726  1
  Te  Te105  1  0.06364744  0.92787744  0.26504174  1
  Te  Te106  1  0.10182256  0.91653335  0.58708615  1
  Te  Te107  1  0.08355386  0.93412108  0.90987526  1
  Te  Te108  1  0.43296645  0.24206902  0.25802641  1
  Te  Te109  1  0.41261857  0.26198238  0.59875195  1
  Te  Te110  1  0.41128152  0.27280187  0.90394884  1
  Te  Te111  1  0.41967333  0.55426521  0.24569529  1
  Te  Te112  1  0.40860502  0.56743586  0.57129645  1
  Te  Te113  1  0.41460850  0.57530936  0.90878958  1
  Te  Te114  1  0.42174750  0.95393312  0.26832420  1
  Te  Te115  1  0.40601729  0.90686946  0.56514735  1
  Te  Te116  1  0.41908388  0.90564338  0.92760429  1
  Te  Te117  1  0.71555632  0.22950872  0.27764934  1
  Te  Te118  1  0.77520958  0.21613362  0.58884669  1
  Te  Te119  1  0.76048458  0.24313130  0.92099601  1
  Te  Te120  1  0.76403096  0.58745919  0.25462490  1
  Te  Te121  1  0.75381922  0.56902256  0.59929169  1
  Te  Te122  1  0.74347158  0.60803904  0.93676708  1
  Te  Te123  1  0.75145356  0.91798527  0.24794076  1
  Te  Te124  1  0.79541224  0.96738156  0.55057581  1
  Te  Te125  1  0.77470180  0.92659417  0.91936945  1
  Te  Te126  1  0.25965992  0.24916685  0.07222230  1
  Te  Te127  1  0.24412138  0.26235855  0.39595156  1
  Te  Te128  1  0.20532488  0.31713216  0.69247912  1
  Te  Te129  1  0.27159945  0.56611190  0.09000787  1
  Te  Te130  1  0.24668160  0.56650401  0.42427524  1
  Te  Te131  1  0.24313584  0.59098085  0.75162840  1
  Te  Te132  1  0.25396776  0.91073866  0.09604946  1
  Te  Te133  1  0.24934769  0.92722309  0.39674241  1
  Te  Te134  1  0.26898068  0.91643245  0.76364597  1
  Te  Te135  1  0.58355406  0.22764348  0.09395610  1
  Te  Te136  1  0.61953845  0.23309149  0.41531353  1
  Te  Te137  1  0.59507096  0.25018927  0.76723971  1
  Te  Te138  1  0.58617824  0.60184603  0.08464446  1
  Te  Te139  1  0.57912328  0.58725077  0.40704861  1
  Te  Te140  1  0.57905821  0.56486105  0.73551456  1
  Te  Te141  1  0.57820010  0.93391580  0.10349475  1
  Te  Te142  1  0.60732063  0.92783865  0.43134743  1
  Te  Te143  1  0.57363324  0.93738149  0.72595907  1
  Te  Te144  1  0.91792169  0.27031390  0.08636117  1
  Te  Te145  1  0.90977609  0.24329547  0.40997303  1
  Te  Te146  1  0.95069440  0.25739322  0.71532844  1
  Te  Te147  1  0.92782665  0.58949232  0.10280288  1
  Te  Te148  1  0.93054999  0.56324602  0.42188865  1
  Te  Te149  1  0.92627625  0.56364758  0.75777174  1
  Te  Te150  1  0.91583456  0.91148276  0.06963540  1
  Te  Te151  1  0.94804770  0.92472298  0.39284443  1
  Te  Te152  1  0.91242546  0.92429838  0.72987053  1
  Te  Te153  1  0.23274905  0.07741957  0.23260571  1
  Te  Te154  1  0.23652539  0.09990390  0.61700286  1
  Te  Te155  1  0.23469878  0.09954898  0.90249026  1
  Te  Te156  1  0.24100959  0.42317600  0.24309607  1
  Te  Te157  1  0.21367143  0.39907496  0.56176173  1
  Te  Te158  1  0.24363702  0.39226618  0.90335522  1
  Te  Te159  1  0.25316917  0.75087940  0.24039556  1
  Te  Te160  1  0.25322380  0.73635536  0.59304121  1
  Te  Te161  1  0.25129630  0.72346442  0.93299126  1
  Te  Te162  1  0.55158477  0.03772273  0.25865622  1
  Te  Te163  1  0.58545282  0.09157857  0.58317685  1
  Te  Te164  1  0.59518374  0.08483872  0.91302310  1
  Te  Te165  1  0.59179900  0.41302045  0.27239345  1
  Te  Te166  1  0.58314193  0.40196175  0.57616032  1
  Te  Te167  1  0.60047383  0.43465839  0.91965991  1
  Te  Te168  1  0.59072468  0.76808151  0.24618690  1
  Te  Te169  1  0.58491825  0.76290940  0.58319381  1
  Te  Te170  1  0.60081058  0.76710180  0.90291661  1
  Te  Te171  1  0.91006729  0.09450404  0.25536819  1
  Te  Te172  1  0.89674923  0.08893337  0.56679861  1
  Te  Te173  1  0.94755561  0.10264010  0.90817679  1
  Te  Te174  1  0.89480567  0.41252092  0.27064615  1
  Te  Te175  1  0.94012521  0.39986631  0.55972055  1
  Te  Te176  1  0.88850229  0.42570894  0.91666172  1
  Te  Te177  1  0.89312035  0.74208758  0.25770138  1
  Te  Te178  1  0.90193739  0.74134870  0.58559629  1
  Te  Te179  1  0.91594134  0.74961194  0.91063704  1
