# generated using pymatgen
data_In2Te3
_symmetry_space_group_name_H-M   'P 1'
_cell_length_a   18.83965190
_cell_length_b   18.84442204
_cell_length_c   18.84150176
_cell_angle_alpha   90.06221320
_cell_angle_beta   89.95929100
_cell_angle_gamma   90.03849119
_symmetry_Int_Tables_number   1
_chemical_formula_structural   In2Te3
_chemical_formula_sum   'In72 Te108'
_cell_volume   6689.14712199
_cell_formula_units_Z   36
loop_
 _symmetry_equiv_pos_site_id
 _symmetry_equiv_pos_as_xyz
  1  'x, y, z'
loop_
 _atom_site_type_symbol
 _atom_site_label
 _atom_site_symmetry_multiplicity
 _atom_site_fract_x
 _atom_site_fract_y
 _atom_site_fract_z
 _atom_site_occupancy
  In  In0  1  0.19470011  0.84377244  0.00356509  1
  In  In1  1  0.00275735  0.48990045  0.80847854  1
  In  In2  1  0.15404187  0.00409676  0.82899136  1
  In  In3  1  0.15542907  0.84203835  0.66423908  1
  In  In4  1  0.66209523  0.16270705  0.16757134  1
  In  In5  1  0.85604547  0.17069193  0.64196708  1
  In  In6  1  0.31592067  0.02855402  0.31293790  1
  In  In7  1  0.32286526  0.33178353  0.67560594  1
  In  In8  1  0.01248295  0.18665068  0.18172789  1
  In  In9  1  0.49941815  0.81389827  0.31586079  1
  In  In10  1  0.66241409  0.00530095  0.64289685  1
  In  In11  1  0.82388885  -0.00513921  0.16735641  1
  In  In12  1  0.17848820  0.67098360  0.18311553  1
  In  In13  1  0.17358664  0.34970742  0.81601973  1
  In  In14  1  -0.00902161  0.85446337  0.49560230  1
  In  In15  1  0.30500677  -0.00052511  0.67042078  1
  In  In16  1  0.33801962  0.50790122  0.17477391  1
  In  In17  1  0.81257063  0.65948623  0.16988216  1
  In  In18  1  0.33366010  0.18321306  0.84861070  1
  In  In19  1  0.34559020  0.49895293  0.48196033  1
  In  In20  1  0.15289965  0.49046994  0.01926242  1
  In  In21  1  0.82336305  0.50918241  0.01366607  1
  In  In22  1  0.17482322  0.68277731  0.83391496  1
  In  In23  1  0.15203032  0.32869385  0.50016873  1
  In  In24  1  0.66212086  0.15327924  0.84269147  1
  In  In25  1  0.34706826  0.64164484  0.34957973  1
  In  In26  1  0.68334306  0.00687279  0.33068166  1
  In  In27  1  0.51134160  0.49001950  0.32472521  1
  In  In28  1  0.34835087  0.83806023  0.15234808  1
  In  In29  1  0.82305063  0.49994931  0.65060316  1
  In  In30  1  -0.01907391  0.69764054  -0.04171552  1
  In  In31  1  0.67302613  -0.02823375  -0.01394562  1
  In  In32  1  0.65868249  0.64671722  0.32733006  1
  In  In33  1  0.51786518  0.16557237  0.65920575  1
  In  In34  1  0.48307305  0.00736685  0.48723250  1
  In  In35  1  0.66163028  0.33996526  0.00174828  1
  In  In36  1  0.00929062  0.51017670  0.52769936  1
  In  In37  1  0.33047598  0.66506806  0.68139433  1
  In  In38  1  0.34237843  0.83356809  0.47851033  1
  In  In39  1  0.52125910  0.49876144  0.00626906  1
  In  In40  1  0.01371727  0.16231863  0.47349557  1
  In  In41  1  -0.00834393  0.14652185  0.83313103  1
  In  In42  1  0.50226560  -0.00735606  0.83901367  1
  In  In43  1  0.84115294  0.85259724  0.32408330  1
  In  In44  1  0.65350817  0.66748484  0.00974454  1
  In  In45  1  0.35375693  0.01408814  0.04122961  1
  In  In46  1  0.80852951  0.35771593  0.47011423  1
  In  In47  1  -0.02662872  0.00698720  -0.00472714  1
  In  In48  1  -0.01715079  0.47686852  0.16321565  1
  In  In49  1  -0.01080938  0.33435953  0.00893007  1
  In  In50  1  0.67251294  0.33204951  0.65702018  1
  In  In51  1  0.51376216  0.65374018  0.82615368  1
  In  In52  1  -0.00027636  0.66291328  0.35152031  1
  In  In53  1  0.33558786  0.16131186  0.50644976  1
  In  In54  1  0.50106613  0.47251337  0.66473687  1
  In  In55  1  0.82428334  0.16903536  0.33392377  1
  In  In56  1  0.81123443  0.31366965  0.18475077  1
  In  In57  1  0.66448016  0.82452885  0.51275509  1
  In  In58  1  0.35075855  0.29433404  0.29196657  1
  In  In59  1  0.51528393  0.82659863  0.67887599  1
  In  In60  1  0.82169134  0.66793377  0.82098321  1
  In  In61  1  0.16539900  0.85339163  0.34469444  1
  In  In62  1  0.50898883  0.83301092  0.00415233  1
  In  In63  1  0.18528460  0.49069497  0.35082646  1
  In  In64  1  0.81958716  0.31302203  0.81535263  1
  In  In65  1  0.33251759  0.52335299  0.82316373  1
  In  In66  1  0.16791930  0.17560748  0.01060530  1
  In  In67  1  0.82615014  0.65606093  0.50827928  1
  In  In68  1  0.34652796  0.32149736  0.01986110  1
  In  In69  1  0.03044679  0.84957963  0.17275925  1
  In  In70  1  -0.02245702  0.82986141  0.82723454  1
  In  In71  1  0.83621883  0.83218909  0.67564198  1
  Te  Te72  1  0.07288455  0.08208068  0.08355507  1
  Te  Te73  1  0.11392151  0.10396127  0.37116520  1
  Te  Te74  1  0.06466466  0.06674405  0.73167271  1
  Te  Te75  1  0.09523541  0.38187045  0.10801733  1
  Te  Te76  1  0.06744849  0.42074834  0.41278806  1
  Te  Te77  1  0.08101373  0.40556379  0.71550525  1
  Te  Te78  1  0.09225552  0.74469597  0.07916047  1
  Te  Te79  1  0.09053168  0.75269252  0.43271887  1
  Te  Te80  1  0.06961091  0.74209013  0.74221944  1
  Te  Te81  1  0.39844112  0.12500844  0.12722521  1
  Te  Te82  1  0.42300916  0.10795567  0.39147139  1
  Te  Te83  1  0.41833847  0.08372878  0.74489866  1
  Te  Te84  1  0.43379347  0.41515448  0.10237996  1
  Te  Te85  1  0.41787134  0.38694472  0.40333708  1
  Te  Te86  1  0.41383108  0.40540984  0.77356022  1
  Te  Te87  1  0.42764893  0.73711178  0.08322921  1
  Te  Te88  1  0.44267527  0.73081048  0.43158674  1
  Te  Te89  1  0.41418665  0.75706521  0.76931944  1
  Te  Te90  1  0.74740996  0.08156785  0.07166721  1
  Te  Te91  1  0.75780973  0.08078722  0.43337832  1
  Te  Te92  1  0.74701405  0.09925272  0.72842141  1
  Te  Te93  1  0.73948649  0.42359274  0.10563624  1
  Te  Te94  1  0.72599258  0.43650071  0.37301687  1
  Te  Te95  1  0.74029708  0.42690877  0.75721305  1
  Te  Te96  1  0.74612297  0.75731969  0.08422714  1
  Te  Te97  1  0.75832758  0.75304992  0.40590956  1
  Te  Te98  1  0.73358914  0.73573687  0.72289304  1
  Te  Te99  1  0.10287787  0.23577184  0.29116552  1
  Te  Te100  1  0.08453109  0.22998533  0.58561055  1
  Te  Te101  1  0.08250012  0.25612737  0.91176416  1
  Te  Te102  1  0.08447390  0.57210662  0.25127832  1
  Te  Te103  1  0.10356641  0.57543605  0.61776753  1
  Te  Te104  1  0.08403188  0.57582355  0.91315770  1
  Te  Te105  1  0.07617861  0.94729844  0.27268820  1
  Te  Te106  1  0.08287764  0.93657172  0.57876989  1
  Te  Te107  1  0.07773029  0.90741692  0.92540969  1
  Te  Te108  1  0.46595128  0.23392824  0.21847772  1
  Te  Te109  1  0.42585835  0.26148888  0.58394125  1
  Te  Te110  1  0.43661990  0.24974071  0.92746406  1
  Te  Te111  1  0.43988562  0.59968826  0.23851878  1
  Te  Te112  1  0.41822212  0.57923338  0.59041877  1
  Te  Te113  1  0.42020077  0.58733180  0.92760097  1
  Te  Te114  1  0.41932364  0.92688411  0.25389656  1
  Te  Te115  1  0.42134275  0.91758695  0.59434187  1
  Te  Te116  1  0.40513488  0.92052985  0.93045453  1
  Te  Te117  1  0.70543328  0.25408245  0.28868341  1
  Te  Te118  1  0.75071208  0.24704745  0.55954680  1
  Te  Te119  1  0.75464099  0.24055472  0.92945632  1
  Te  Te120  1  0.76905983  0.55943669  0.26953749  1
  Te  Te121  1  0.72522275  0.56113506  0.55819016  1
  Te  Te122  1  0.73713886  0.57962060  0.91302061  1
  Te  Te123  1  0.72687789  0.89770263  0.23361717  1
  Te  Te124  1  0.76599055  0.92066305  0.57026581  1
  Te  Te125  1  0.78301194  0.92811956  0.89818991  1
  Te  Te126  1  0.26611144  0.23012739  0.11035415  1
  Te  Te127  1  0.26616849  0.26604437  0.41928538  1
  Te  Te128  1  0.23346937  0.22741660  0.74363569  1
  Te  Te129  1  0.25349466  0.58936504  0.07757572  1
  Te  Te130  1  0.23340695  0.60133554  0.44202414  1
  Te  Te131  1  0.21688705  0.56738912  0.72830721  1
  Te  Te132  1  0.23941072  0.93866194  0.11301909  1
  Te  Te133  1  0.25405337  0.94558516  0.42920891  1
  Te  Te134  1  0.25016009  0.90041938  0.77118564  1
  Te  Te135  1  0.57359200  0.25814589  0.09193708  1
  Te  Te136  1  0.53835817  0.30181761  0.45185563  1
  Te  Te137  1  0.58557312  0.25701319  0.75928001  1
  Te  Te138  1  0.60525282  0.56725096  0.10683022  1
  Te  Te139  1  0.57550869  0.57635507  0.42736599  1
  Te  Te140  1  0.58948484  0.56930094  0.73198611  1
  Te  Te141  1  0.56939624  0.94037003  0.08559018  1
  Te  Te142  1  0.57912763  0.90934780  0.41763901  1
  Te  Te143  1  0.60819024  0.91954926  0.75720357  1
  Te  Te144  1  0.90299125  0.23670302  0.08466117  1
  Te  Te145  1  0.91489944  0.26447241  0.40954206  1
  Te  Te146  1  0.93665410  0.25739070  0.74057447  1
  Te  Te147  1  0.93161177  0.59590882  0.07825616  1
  Te  Te148  1  0.90997975  0.56338369  0.41933384  1
  Te  Te149  1  0.91763570  0.58964545  0.73120334  1
  Te  Te150  1  0.91524077  0.90109652  0.08746277  1
  Te  Te151  1  0.91798720  0.94786557  0.40573363  1
  Te  Te152  1  0.92082857  0.93493711  0.74169358  1
  Te  Te153  1  0.21689224  0.12449681  0.25083937  1
  Te  Te154  1  0.23052498  0.08631819  0.57923622  1
  Te  Te155  1  0.25304655  0.07599243  0.92488477  1
  Te  Te156  1  0.25220027  0.40491951  0.24515090  1
  Te  Te157  1  0.25248761  0.42027888  0.57548511  1
  Te  Te158  1  0.25451149  0.41645261  0.92762221  1
  Te  Te159  1  0.26646415  0.75889231  0.27104300  1
  Te  Te160  1  0.26019231  0.76119314  0.58466472  1
  Te  Te161  1  0.26942413  0.74095134  0.92954278  1
  Te  Te162  1  0.57830932  0.08689675  0.26501179  1
  Te  Te163  1  0.59162082  0.09885225  0.54433016  1
  Te  Te164  1  0.56738312  0.08480291  0.93921778  1
  Te  Te165  1  0.61096752  0.38943005  0.27925825  1
  Te  Te166  1  0.58591899  0.40379516  0.55280872  1
  Te  Te167  1  0.59081203  0.42148476  0.90207395  1
  Te  Te168  1  0.59485384  0.74037029  0.23226693  1
  Te  Te169  1  0.59511423  0.72902881  0.60157105  1
  Te  Te170  1  0.59581900  0.75983305  0.90205863  1
  Te  Te171  1  0.91605775  0.08594804  0.24625946  1
  Te  Te172  1  0.92314293  0.07309625  0.55320463  1
  Te  Te173  1  0.88039608  0.06805253  0.89662140  1
  Te  Te174  1  0.92055900  0.38366326  0.25717189  1
  Te  Te175  1  0.91137067  0.40240473  0.57660191  1
  Te  Te176  1  0.90606416  0.42111013  0.91458796  1
  Te  Te177  1  0.93054889  0.74795225  0.24551227  1
  Te  Te178  1  0.92353702  0.74659876  0.58168258  1
  Te  Te179  1  0.85290920  0.78681462  0.91624840  1
