# generated using pymatgen
data_In2Te3
_symmetry_space_group_name_H-M   'P 1'
_cell_length_a   18.78494068
_cell_length_b   18.78769417
_cell_length_c   18.78731916
_cell_angle_alpha   90.06540191
_cell_angle_beta   90.01766876
_cell_angle_gamma   90.03055005
_symmetry_Int_Tables_number   1
_chemical_formula_structural   In2Te3
_chemical_formula_sum   'In72 Te108'
_cell_volume   6630.52257340
_cell_formula_units_Z   36
loop_
 _symmetry_equiv_pos_site_id
 _symmetry_equiv_pos_as_xyz
  1  'x, y, z'
loop_
 _atom_site_type_symbol
 _atom_site_label
 _atom_site_symmetry_multiplicity
 _atom_site_fract_x
 _atom_site_fract_y
 _atom_site_fract_z
 _atom_site_occupancy
  In  In0  1  0.01221229  0.18784051  0.15643675  1
  In  In1  1  0.66187591  0.65453653  0.00921003  1
  In  In2  1  0.18870529  -0.01599065  0.84486642  1
  In  In3  1  0.49662247  0.66730047  0.83072431  1
  In  In4  1  -0.00073059  0.16468384  0.84353291  1
  In  In5  1  0.00392412  0.14622531  0.49272675  1
  In  In6  1  0.18063017  -0.00359132  0.50029549  1
  In  In7  1  0.32133561  0.17997987  0.49518186  1
  In  In8  1  0.36672364  0.19322107  0.16861678  1
  In  In9  1  0.68137300  0.80810016  0.51405567  1
  In  In10  1  0.02565867  0.34940156  0.01855200  1
  In  In11  1  0.33057662  0.50083391  0.81730880  1
  In  In12  1  0.00017702  -0.05108619  0.71865365  1
  In  In13  1  0.49903316  0.35857173  0.48104257  1
  In  In14  1  0.34687981  0.67146630  0.66592914  1
  In  In15  1  0.63439233  0.19921453  0.14891972  1
  In  In16  1  0.34971154  0.34066380  0.00833054  1
  In  In17  1  0.84375754  -0.00210646  0.17118129  1
  In  In18  1  0.01824272  -0.01965002  -0.01763456  1
  In  In19  1  0.16384867  0.64610815  0.48825055  1
  In  In20  1  -0.01966853  0.38731914  0.28553780  1
  In  In21  1  0.18406076  0.34981692  0.46914696  1
  In  In22  1  0.65703874  0.15591162  0.83325308  1
  In  In23  1  -0.00601715  0.34050104  0.65253954  1
  In  In24  1  0.32197466  0.00364589  0.33716411  1
  In  In25  1  0.02089094  -0.00106062  0.34075886  1
  In  In26  1  0.82201072  0.19645349  0.33214826  1
  In  In27  1  0.01468051  0.80203491  0.49526351  1
  In  In28  1  0.33765306  0.81908120  0.16020322  1
  In  In29  1  0.33462561  0.49986297  0.47717497  1
  In  In30  1  0.14729397  0.31820356  0.82048947  1
  In  In31  1  0.65374349  0.51447977  0.82583241  1
  In  In32  1  0.17574599  0.68780087  0.84047208  1
  In  In33  1  0.18504577  -0.01831980  0.16431940  1
  In  In34  1  0.84659219  0.79345298  0.33173599  1
  In  In35  1  0.81177880  0.17480616  0.65383905  1
  In  In36  1  0.20440566  0.33598328  0.20837427  1
  In  In37  1  0.51879887  0.66608253  0.49475303  1
  In  In38  1  0.32490149  0.66968225  0.02102755  1
  In  In39  1  0.81868549  0.34880147  0.48056413  1
  In  In40  1  0.32114631  0.16320830  0.83679840  1
  In  In41  1  0.51178717  0.81552225  0.33234964  1
  In  In42  1  -0.00850690  0.51287726  0.83237505  1
  In  In43  1  0.65706449  0.50879404  0.49969442  1
  In  In44  1  0.66515601  0.80166309  0.16368558  1
  In  In45  1  0.66942190  0.80796031  0.83504652  1
  In  In46  1  0.65012131  0.36299442  0.32644086  1
  In  In47  1  0.81415357  0.48268698  0.05008332  1
  In  In48  1  0.80314715  0.34379804  0.84135558  1
  In  In49  1  0.66111497  -0.00552463  0.00966255  1
  In  In50  1  0.49052139  0.01119125  0.14613336  1
  In  In51  1  0.66393827  -0.01042240  0.66551986  1
  In  In52  1  0.48484186  0.35028109  0.83311952  1
  In  In53  1  0.67132065  0.18972379  0.49479324  1
  In  In54  1  0.47769360  -0.01070980  0.50067873  1
  In  In55  1  0.18519380  0.16731917  0.66891142  1
  In  In56  1  0.82061258  -0.01375408  0.51230926  1
  In  In57  1  0.35209221  0.65506323  0.29386635  1
  In  In58  1  0.00305739  0.50103373  0.50265892  1
  In  In59  1  0.49352895  0.18027093  0.67754508  1
  In  In60  1  0.81249133  0.80327123  -0.00721287  1
  In  In61  1  0.64710438  0.00038141  0.30988320  1
  In  In62  1  0.34026594  0.86115113  0.50442571  1
  In  In63  1  0.83646853  0.66967219  0.82632252  1
  In  In64  1  -0.00635299  0.67821023  0.00804676  1
  In  In65  1  0.83832639  0.66230730  0.50053497  1
  In  In66  1  0.86070594  0.17192562  0.00941063  1
  In  In67  1  0.50482928  0.49974302  0.03059238  1
  In  In68  1  0.16777294  0.83240445  0.68256367  1
  In  In69  1  0.18263369  0.49746743  0.02634315  1
  In  In70  1  -0.00015765  0.79218985  0.15444366  1
  In  In71  1  0.47754338  -0.02115255  0.87110782  1
  Te  Te72  1  0.08203985  0.07264409  0.08828793  1
  Te  Te73  1  0.11825000  0.09820118  0.40353060  1
  Te  Te74  1  0.08372078  0.08201961  0.74569997  1
  Te  Te75  1  0.08682656  0.43194378  0.13425299  1
  Te  Te76  1  0.08252663  0.43246047  0.39033199  1
  Te  Te77  1  0.08514342  0.42884547  0.73766287  1
  Te  Te78  1  0.11102562  0.74793906  0.06577848  1
  Te  Te79  1  0.08944028  0.73165631  0.39117223  1
  Te  Te80  1  0.07396821  0.73746418  0.74413821  1
  Te  Te81  1  0.40155395  0.09339890  0.06370846  1
  Te  Te82  1  0.42012227  0.09512820  0.41001466  1
  Te  Te83  1  0.42185755  0.07605670  0.75998864  1
  Te  Te84  1  0.40191941  0.43056680  0.11717316  1
  Te  Te85  1  0.39330387  0.39897558  0.37812051  1
  Te  Te86  1  0.42447911  0.43189613  0.72717823  1
  Te  Te87  1  0.43665768  0.72761692  0.09942733  1
  Te  Te88  1  0.40102335  0.74515967  0.41496058  1
  Te  Te89  1  0.40253050  0.76510362  0.76770423  1
  Te  Te90  1  0.74508164  0.08954871  0.09839152  1
  Te  Te91  1  0.75146690  0.08264424  0.41211155  1
  Te  Te92  1  0.75820743  0.07338938  0.75456307  1
  Te  Te93  1  0.70189680  0.39123207  0.08053571  1
  Te  Te94  1  0.75748093  0.45286397  0.39153121  1
  Te  Te95  1  0.75773424  0.44431062  0.74603788  1
  Te  Te96  1  0.78255413  0.71126155  0.11609435  1
  Te  Te97  1  0.72960745  0.72400137  0.39714829  1
  Te  Te98  1  0.72403310  0.71087706  0.73624789  1
  Te  Te99  1  0.08074959  0.26409784  0.26590107  1
  Te  Te100  1  0.09256792  0.24769017  0.57641677  1
  Te  Te101  1  0.09381549  0.23670219  0.93860567  1
  Te  Te102  1  0.03902885  0.55958415  0.20884546  1
  Te  Te103  1  0.07813081  0.59072214  0.59441390  1
  Te  Te104  1  0.09546222  0.57939985  0.92699683  1
  Te  Te105  1  0.07581303  0.90366963  0.23824771  1
  Te  Te106  1  0.07197398  0.92518165  0.57952079  1
  Te  Te107  1  0.10586161  0.88337076  0.91543079  1
  Te  Te108  1  0.41518318  0.28480052  0.27130200  1
  Te  Te109  1  0.41696711  0.26518527  0.57747707  1
  Te  Te110  1  0.42485444  0.24127991  0.92048676  1
  Te  Te111  1  0.43279102  0.54372662  0.23479492  1
  Te  Te112  1  0.42472689  0.57578976  0.57575770  1
  Te  Te113  1  0.41214123  0.57218746  0.92586822  1
  Te  Te114  1  0.42676606  0.91974376  0.25867532  1
  Te  Te115  1  0.44065771  0.89637053  0.60929408  1
  Te  Te116  1  0.38218429  0.89520771  0.94714100  1
  Te  Te117  1  0.74056302  0.27571753  0.23545082  1
  Te  Te118  1  0.73205120  0.28888896  0.59330529  1
  Te  Te119  1  0.74486980  0.23691509  0.93260128  1
  Te  Te120  1  0.79424831  0.60215497  0.22391922  1
  Te  Te121  1  0.73414950  0.60086502  0.58835024  1
  Te  Te122  1  0.76732943  0.57530493  0.93079070  1
  Te  Te123  1  0.75226390  0.90309935  0.25191937  1
  Te  Te124  1  0.76723245  0.88780041  0.61451054  1
  Te  Te125  1  0.74863351  0.91819639  0.91167823  1
  Te  Te126  1  0.24616337  0.25829695  0.08583541  1
  Te  Te127  1  0.26294401  0.25745506  0.38151474  1
  Te  Te128  1  0.26960626  0.27173257  0.74057862  1
  Te  Te129  1  0.24648420  0.59139526  0.12332321  1
  Te  Te130  1  0.24034023  0.57022541  0.37517328  1
  Te  Te131  1  0.23810427  0.59108347  0.73760786  1
  Te  Te132  1  0.27433146  0.91551420  0.06222766  1
  Te  Te133  1  0.23253538  0.89653095  0.39771866  1
  Te  Te134  1  0.26854395  0.92522648  0.73584792  1
  Te  Te135  1  0.56794047  0.31022660  0.07883395  1
  Te  Te136  1  0.57342770  0.25053609  0.39814931  1
  Te  Te137  1  0.59331584  0.26714175  0.75316913  1
  Te  Te138  1  0.61483263  0.55917944  0.11558067  1
  Te  Te139  1  0.56503872  0.56514486  0.39431486  1
  Te  Te140  1  0.57584936  0.59456257  0.72920005  1
  Te  Te141  1  0.57263198  0.89725502  0.08504503  1
  Te  Te142  1  0.59608641  0.91564664  0.42831001  1
  Te  Te143  1  0.58201651  0.91781626  0.77204816  1
  Te  Te144  1  0.90832920  0.28360105  0.10042630  1
  Te  Te145  1  0.92959517  0.26014451  0.42080324  1
  Te  Te146  1  0.91274897  0.25185255  0.75118035  1
  Te  Te147  1  0.94570283  0.55828047  0.09015161  1
  Te  Te148  1  0.92315436  0.58363188  0.40797740  1
  Te  Te149  1  0.91982982  0.59162280  0.73118957  1
  Te  Te150  1  0.91025210  0.90235216  0.07500465  1
  Te  Te151  1  0.91287098  0.91410679  0.41121216  1
  Te  Te152  1  0.89228622  0.88025535  0.78639000  1
  Te  Te153  1  0.25801369  0.09475218  0.23548475  1
  Te  Te154  1  0.27626607  0.07034365  0.59351716  1
  Te  Te155  1  0.24102426  0.08827505  0.93488556  1
  Te  Te156  1  0.25940432  0.46193141  0.26300325  1
  Te  Te157  1  0.24862578  0.42790221  0.57465462  1
  Te  Te158  1  0.24386191  0.40973029  0.91092402  1
  Te  Te159  1  0.24018802  0.73715244  0.23780027  1
  Te  Te160  1  0.24665613  0.75256696  0.57231308  1
  Te  Te161  1  0.29113241  0.76292287  0.90384479  1
  Te  Te162  1  0.56062101  0.10638644  0.24681689  1
  Te  Te163  1  0.58617545  0.09310156  0.57973340  1
  Te  Te164  1  0.56724762  0.08960291  0.93683950  1
  Te  Te165  1  0.56812358  0.46429238  0.25166176  1
  Te  Te166  1  0.58590526  0.41205738  0.58727698  1
  Te  Te167  1  0.58507876  0.42085135  0.92483649  1
  Te  Te168  1  0.58091717  0.71536376  0.24975571  1
  Te  Te169  1  0.56133132  0.76974823  0.59318941  1
  Te  Te170  1  0.56971855  0.75167488  0.93709637  1
  Te  Te171  1  0.92062077  0.09591756  0.25989733  1
  Te  Te172  1  0.91460841  0.07619646  0.59502269  1
  Te  Te173  1  0.90854637  0.06369135  0.91340416  1
  Te  Te174  1  0.85963231  0.46341244  0.23750776  1
  Te  Te175  1  0.89302494  0.43174228  0.58619063  1
  Te  Te176  1  0.92350485  0.40524905  0.91869776  1
  Te  Te177  1  0.94197975  0.69973733  0.26130101  1
  Te  Te178  1  0.91605334  0.75261308  0.59068127  1
  Te  Te179  1  0.93307850  0.77263148  0.89508765  1
