# generated using pymatgen
data_In2Te3
_symmetry_space_group_name_H-M   'P 1'
_cell_length_a   18.79798279
_cell_length_b   18.79120687
_cell_length_c   18.79564771
_cell_angle_alpha   89.94799547
_cell_angle_beta   90.06769005
_cell_angle_gamma   89.98243687
_symmetry_Int_Tables_number   1
_chemical_formula_structural   In2Te3
_chemical_formula_sum   'In72 Te108'
_cell_volume   6639.30645438
_cell_formula_units_Z   36
loop_
 _symmetry_equiv_pos_site_id
 _symmetry_equiv_pos_as_xyz
  1  'x, y, z'
loop_
 _atom_site_type_symbol
 _atom_site_label
 _atom_site_symmetry_multiplicity
 _atom_site_fract_x
 _atom_site_fract_y
 _atom_site_fract_z
 _atom_site_occupancy
  In  In0  1  0.84949842  0.49521917  -0.00593228  1
  In  In1  1  -0.01075438  0.19784325  0.47792114  1
  In  In2  1  0.32291921  0.16066750  0.83423760  1
  In  In3  1  0.31913107  0.50116818  0.17855936  1
  In  In4  1  0.48203658  0.17529875  0.66639453  1
  In  In5  1  -0.00502733  0.32894572  0.00618145  1
  In  In6  1  0.16122492  0.48560526  0.33988462  1
  In  In7  1  0.66783336  0.69849048  0.01823094  1
  In  In8  1  0.01745762  0.33374395  0.67495757  1
  In  In9  1  0.69694076  0.53302319  0.17728025  1
  In  In10  1  0.00891218  0.01925516  0.65362630  1
  In  In11  1  0.49579505  0.32329521  0.85169533  1
  In  In12  1  0.66902328  0.51219045  0.81971337  1
  In  In13  1  0.34406740  0.02053994  0.33286500  1
  In  In14  1  0.17975787  -0.00821348  0.16564790  1
  In  In15  1  -0.00149946  0.01964608  0.32154994  1
  In  In16  1  0.84350206  0.00949647  0.51169158  1
  In  In17  1  0.47826677  0.32683666  0.51279884  1
  In  In18  1  0.15439072  0.32908648  0.82043652  1
  In  In19  1  0.01013553  0.81598746  0.51354156  1
  In  In20  1  0.48633700  0.69364449  0.17677998  1
  In  In21  1  0.48773297  0.85760631  0.67114396  1
  In  In22  1  0.00464091  0.63626605  0.65070201  1
  In  In23  1  0.82039166  0.48833323  0.65800349  1
  In  In24  1  0.49304507  0.32574822  0.17317339  1
  In  In25  1  0.34037529  0.85174745  0.15368762  1
  In  In26  1  0.82725116  0.84770997  0.31281885  1
  In  In27  1  0.51256329  0.12034852  0.00126805  1
  In  In28  1  0.33267515  0.49199371  0.81338109  1
  In  In29  1  -0.00120913  0.16106753  0.81643840  1
  In  In30  1  0.51406227  0.87363871  0.01840794  1
  In  In31  1  0.66853055  0.14270434  0.13907666  1
  In  In32  1  0.64356234  -0.00231689  0.32607312  1
  In  In33  1  0.67280036  0.32852585  0.34564993  1
  In  In34  1  -0.01968293  0.81821141  0.15609053  1
  In  In35  1  0.17494430  0.14092502  0.64350883  1
  In  In36  1  -0.01511712  0.17629566  0.17844800  1
  In  In37  1  0.68113324  0.68487362  0.67911771  1
  In  In38  1  0.70335250  0.28854632  -0.02624884  1
  In  In39  1  0.32669190  0.64141870  0.34405012  1
  In  In40  1  0.68715160  0.48212966  0.47479550  1
  In  In41  1  0.82863772  0.35067936  0.17621146  1
  In  In42  1  0.81563599  0.84845136  0.00496719  1
  In  In43  1  0.01462762  0.66250659  0.01159206  1
  In  In44  1  0.17719276  0.49093302  -0.00741802  1
  In  In45  1  0.16505314  0.67229921  0.83589020  1
  In  In46  1  0.15449390  0.66646544  0.16238420  1
  In  In47  1  0.00545007  0.84617579  0.85174760  1
  In  In48  1  0.66867909  0.16993013  0.49539037  1
  In  In49  1  0.34843549  0.31219602  0.34052313  1
  In  In50  1  0.50420444  0.45431427  0.35928605  1
  In  In51  1  0.66919597  0.00567067  0.69367830  1
  In  In52  1  0.45181314  0.49330246  0.64593478  1
  In  In53  1  0.49293287  0.68409946  0.83325615  1
  In  In54  1  0.83669074  0.82259931  0.66461012  1
  In  In55  1  -0.00663629  0.48756993  0.16969758  1
  In  In56  1  0.01711014  -0.01327952  -0.00603187  1
  In  In57  1  0.34028920  0.84388375  0.50430953  1
  In  In58  1  0.49402414  0.65004154  0.51549059  1
  In  In59  1  0.81785162  0.00290102  0.84429124  1
  In  In60  1  0.16763436  0.81865576  0.34853276  1
  In  In61  1  0.68756722  0.66103379  0.31204087  1
  In  In62  1  0.82843842  0.67905779  0.80494674  1
  In  In63  1  0.20445718  0.18294330  0.03029825  1
  In  In64  1  -0.00169866  0.50121679  0.47872314  1
  In  In65  1  0.65144847  0.84813891  0.46385558  1
  In  In66  1  0.18564938  0.83503261  0.67729389  1
  In  In67  1  0.16122872  0.17869885  0.34888291  1
  In  In68  1  0.47897111  0.49482417  0.01633887  1
  In  In69  1  0.65513512  0.31208948  0.66265156  1
  In  In70  1  0.34281511  0.84370278  0.84259030  1
  In  In71  1  0.48530193  0.85836652  0.31497066  1
  Te  Te72  1  0.08053106  0.09194931  0.09345417  1
  Te  Te73  1  0.07990462  0.08030129  0.43358626  1
  Te  Te74  1  0.10530272  0.06901490  0.76103050  1
  Te  Te75  1  0.09632270  0.40604992  0.09043969  1
  Te  Te76  1  0.08181590  0.39066895  0.42147008  1
  Te  Te77  1  0.11214705  0.43802550  0.72747743  1
  Te  Te78  1  0.09928334  0.77553734  0.06971820  1
  Te  Te79  1  0.08243650  0.72416521  0.42223915  1
  Te  Te80  1  0.05928485  0.75317682  0.74274032  1
  Te  Te81  1  0.41511615  0.07281941  0.09955049  1
  Te  Te82  1  0.44919030  0.07537629  0.41884726  1
  Te  Te83  1  0.41668368  0.07673877  0.75502598  1
  Te  Te84  1  0.38508690  0.39303842  0.07996109  1
  Te  Te85  1  0.37691439  0.43378137  0.43772831  1
  Te  Te86  1  0.40714642  0.37406414  0.73779278  1
  Te  Te87  1  0.41542593  0.75590163  0.06049900  1
  Te  Te88  1  0.42661325  0.74841275  0.40780897  1
  Te  Te89  1  0.40093888  0.74750392  0.73054367  1
  Te  Te90  1  0.75185118  0.06363897  0.04868028  1
  Te  Te91  1  0.75000299  0.07314466  0.40830031  1
  Te  Te92  1  0.76677900  0.10774361  0.74623705  1
  Te  Te93  1  0.73768933  0.42177363  0.06812698  1
  Te  Te94  1  0.79273261  0.39242377  0.41489109  1
  Te  Te95  1  0.74543263  0.39813846  0.75788153  1
  Te  Te96  1  0.77761529  0.74441315  0.10464696  1
  Te  Te97  1  0.75654598  0.75232267  0.41603066  1
  Te  Te98  1  0.73260606  0.79380213  0.77427943  1
  Te  Te99  1  0.06852931  0.26434875  0.26691301  1
  Te  Te100  1  0.09762245  0.25348385  0.57293762  1
  Te  Te101  1  0.09053169  0.23525750  0.92674259  1
  Te  Te102  1  0.07246429  0.58464785  0.25812237  1
  Te  Te103  1  0.10104135  0.55272139  0.57704920  1
  Te  Te104  1  0.07268764  0.56715975  0.91066027  1
  Te  Te105  1  0.08138886  0.90878401  0.25136875  1
  Te  Te106  1  0.09752701  0.92092256  0.57964164  1
  Te  Te107  1  0.11797622  0.92080572  0.90866646  1
  Te  Te108  1  0.42282574  0.22041132  0.24964090  1
  Te  Te109  1  0.38668139  0.21791962  0.55711034  1
  Te  Te110  1  0.41647696  0.22759214  0.93727246  1
  Te  Te111  1  0.43464085  0.56574603  0.25619093  1
  Te  Te112  1  0.37160290  0.60861168  0.58664421  1
  Te  Te113  1  0.40896532  0.58274752  0.91216512  1
  Te  Te114  1  0.43514881  0.96216857  0.20763957  1
  Te  Te115  1  0.39050837  0.95171412  0.60022262  1
  Te  Te116  1  0.42577161  0.94230376  0.92099844  1
  Te  Te117  1  0.73837663  0.24417245  0.23787449  1
  Te  Te118  1  0.75845817  0.26564020  0.56583305  1
  Te  Te119  1  0.76262011  0.19480728  0.87915077  1
  Te  Te120  1  0.79910825  0.55901288  0.28682576  1
  Te  Te121  1  0.73989649  0.58836758  0.57570624  1
  Te  Te122  1  0.74768243  0.59913728  0.91775581  1
  Te  Te123  1  0.73341403  0.92814261  0.22509985  1
  Te  Te124  1  0.74108812  0.91555578  0.57971962  1
  Te  Te125  1  0.70963943  0.95493777  0.94507975  1
  Te  Te126  1  0.27150081  0.27915270  0.11544050  1
  Te  Te127  1  0.26802796  0.23178816  0.43971530  1
  Te  Te128  1  0.24643879  0.24467747  0.73198938  1
  Te  Te129  1  0.25665882  0.59420349  0.07427425  1
  Te  Te130  1  0.22206954  0.58714670  0.43203504  1
  Te  Te131  1  0.23350991  0.57856478  0.74309920  1
  Te  Te132  1  0.26533575  0.93794448  0.05722055  1
  Te  Te133  1  0.24981372  0.93029476  0.41327672  1
  Te  Te134  1  0.26512229  0.93454505  0.75100577  1
  Te  Te135  1  0.58255504  0.25843555  0.06279762  1
  Te  Te136  1  0.56338653  0.24681172  0.41333670  1
  Te  Te137  1  0.58464064  0.23021837  0.76962594  1
  Te  Te138  1  0.57537741  0.59229214  0.08650433  1
  Te  Te139  1  0.58568466  0.58548119  0.40821020  1
  Te  Te140  1  0.56831048  0.59093098  0.73490814  1
  Te  Te141  1  0.61682122  0.89750531  0.12273255  1
  Te  Te142  1  0.53458514  0.94986590  0.43700360  1
  Te  Te143  1  0.56281793  0.93643452  0.77528954  1
  Te  Te144  1  0.89034599  0.24722570  0.07959387  1
  Te  Te145  1  0.86879196  0.25402847  0.41544497  1
  Te  Te146  1  0.91402401  0.26637638  0.75870721  1
  Te  Te147  1  0.90868943  0.59241706  0.09625162  1
  Te  Te148  1  0.89167855  0.57757915  0.41197231  1
  Te  Te149  1  0.91401699  0.56563650  0.75358459  1
  Te  Te150  1  0.90906920  0.93553001  0.09090879  1
  Te  Te151  1  0.92418738  0.91414814  0.42282939  1
  Te  Te152  1  0.91802562  0.92736985  0.74405363  1
  Te  Te153  1  0.24619116  0.10137526  0.24715747  1
  Te  Te154  1  0.26499208  0.04383139  0.58101215  1
  Te  Te155  1  0.25710347  0.07791272  0.94186495  1
  Te  Te156  1  0.24620599  0.39034272  0.25274162  1
  Te  Te157  1  0.32109297  0.43702168  0.59401600  1
  Te  Te158  1  0.26105446  0.39566086  0.90887147  1
  Te  Te159  1  0.26537129  0.74648534  0.24587774  1
  Te  Te160  1  0.23654251  0.75579683  0.56326264  1
  Te  Te161  1  0.25261419  0.75319828  0.92107621  1
  Te  Te162  1  0.57341102  0.10118393  0.24587263  1
  Te  Te163  1  0.58641281  0.08664920  0.59375654  1
  Te  Te164  1  0.59198095  0.04810312  0.89901299  1
  Te  Te165  1  0.59904131  0.42322563  0.24063453  1
  Te  Te166  1  0.58255833  0.42601719  0.57956059  1
  Te  Te167  1  0.58012041  0.43247557  0.91923787  1
  Te  Te168  1  0.59624600  0.77176373  0.24770701  1
  Te  Te169  1  0.58247742  0.76276326  0.58171375  1
  Te  Te170  1  0.58347022  0.77247447  0.91647878  1
  Te  Te171  1  0.89013110  0.09041285  0.25345066  1
  Te  Te172  1  0.91299541  0.11835739  0.59126556  1
  Te  Te173  1  0.92131738  0.08309290  0.92346010  1
  Te  Te174  1  0.94798810  0.37891083  0.26295130  1
  Te  Te175  1  0.92145961  0.40936968  0.58111104  1
  Te  Te176  1  0.92173894  0.40606177  0.90233644  1
  Te  Te177  1  0.92699255  0.74612990  0.27198906  1
  Te  Te178  1  0.90336019  0.72267470  0.57214925  1
  Te  Te179  1  0.91076268  0.74901301  0.92301636  1
