# generated using pymatgen
data_In2Te3
_symmetry_space_group_name_H-M   'P 1'
_cell_length_a   18.92849424
_cell_length_b   18.93400171
_cell_length_c   18.92873973
_cell_angle_alpha   90.09794829
_cell_angle_beta   90.06443267
_cell_angle_gamma   90.14331069
_symmetry_Int_Tables_number   1
_chemical_formula_structural   In2Te3
_chemical_formula_sum   'In72 Te108'
_cell_volume   6783.87612644
_cell_formula_units_Z   36
loop_
 _symmetry_equiv_pos_site_id
 _symmetry_equiv_pos_as_xyz
  1  'x, y, z'
loop_
 _atom_site_type_symbol
 _atom_site_label
 _atom_site_symmetry_multiplicity
 _atom_site_fract_x
 _atom_site_fract_y
 _atom_site_fract_z
 _atom_site_occupancy
  In  In0  1  -0.01105393  0.84448792  0.47842624  1
  In  In1  1  0.67215546  0.18360980  0.17938646  1
  In  In2  1  0.51544330  0.83126867  0.32844688  1
  In  In3  1  0.66860404  0.50292040  0.83700479  1
  In  In4  1  0.33864242  0.15549593  0.15895120  1
  In  In5  1  0.66187626  -0.00028213  0.34457755  1
  In  In6  1  -0.00495018  -0.00837178  0.31978491  1
  In  In7  1  0.33107676  0.15951090  0.49042142  1
  In  In8  1  0.16344663  -0.00526432  0.82175365  1
  In  In9  1  -0.02714348  0.31589192  0.65338514  1
  In  In10  1  -0.00039914  0.17012877  0.50372839  1
  In  In11  1  0.35048049  0.32904631  0.33052418  1
  In  In12  1  0.65228106  0.33209017  0.65272304  1
  In  In13  1  0.52397235  0.69505763  0.17803600  1
  In  In14  1  0.83784074  0.66755683  0.49649282  1
  In  In15  1  0.33781791  0.32991589  0.66805160  1
  In  In16  1  0.68263529  0.65801997  0.01041686  1
  In  In17  1  -0.00501147  -0.00270849  0.00296939  1
  In  In18  1  0.83032132  0.18130532  -0.00357719  1
  In  In19  1  0.16406448  0.33242823  0.81852026  1
  In  In20  1  0.67154099  0.00918775  0.65404118  1
  In  In21  1  0.50413493  0.15009255  0.34230505  1
  In  In22  1  0.68710076  0.36956580  0.01762839  1
  In  In23  1  0.32195967  0.01052474  0.65392575  1
  In  In24  1  -0.01360978  0.66508850  0.33341470  1
  In  In25  1  0.69225706  0.82134115  0.84621963  1
  In  In26  1  -0.02468852  0.16087214  0.12739698  1
  In  In27  1  0.51084739  0.48168791  0.66781131  1
  In  In28  1  0.63423059  -0.02908030  0.01793315  1
  In  In29  1  0.17327942  0.15661884  -0.03172914  1
  In  In30  1  0.16106746  0.17172687  0.33050179  1
  In  In31  1  0.52497071  0.50080103  0.32840154  1
  In  In32  1  0.49279794  0.49885299  0.00938494  1
  In  In33  1  -0.02481067  0.51866022  0.13974631  1
  In  In34  1  0.16712587  0.67554317  0.15922349  1
  In  In35  1  0.49046301  0.85451036  0.65035098  1
  In  In36  1  0.83083457  0.34366054  0.49471958  1
  In  In37  1  0.81793420  0.83609357  0.67822927  1
  In  In38  1  0.17820306  -0.03336349  0.18168001  1
  In  In39  1  0.82898492  0.50889958  0.65497571  1
  In  In40  1  0.67776548  0.17160269  0.81191769  1
  In  In41  1  0.16431507  0.51790775  0.01100925  1
  In  In42  1  0.17480701  0.83980811  0.64822688  1
  In  In43  1  -0.01823278  -0.01411610  0.65402780  1
  In  In44  1  -0.01138701  0.82186648  0.84657883  1
  In  In45  1  0.82747363  0.67082641  0.15882005  1
  In  In46  1  0.68949360  0.36266535  0.32487160  1
  In  In47  1  0.83460355  0.83590510  0.01450199  1
  In  In48  1  0.34008915  0.14712985  0.82408290  1
  In  In49  1  0.32859017  0.67778436  0.66598691  1
  In  In50  1  0.50637985  0.15777441  0.00623984  1
  In  In51  1  0.32077769  0.80197782  0.87301446  1
  In  In52  1  0.33423455  0.64802970  0.34451175  1
  In  In53  1  0.66446220  0.15320103  0.49939368  1
  In  In54  1  0.48716106  -0.02762979  0.84462525  1
  In  In55  1  0.34189583  0.82015418  0.15983618  1
  In  In56  1  0.33794163  0.34495515  0.00661435  1
  In  In57  1  0.49514323  0.34209735  0.49936560  1
  In  In58  1  0.67338347  0.81883591  0.48902629  1
  In  In59  1  -0.00901871  0.16987694  0.80266421  1
  In  In60  1  0.17061682  0.50158606  0.34504344  1
  In  In61  1  0.01501539  0.65722187  0.66774513  1
  In  In62  1  -0.03183107  0.34214972  0.00153276  1
  In  In63  1  -0.00188008  0.50612465  0.86553591  1
  In  In64  1  0.81595337  -0.00882346  0.17235954  1
  In  In65  1  -0.00801526  0.36844259  0.32446295  1
  In  In66  1  0.16643620  0.49610164  0.65482944  1
  In  In67  1  0.50307780  0.66087788  0.49783503  1
  In  In68  1  0.50098941  0.64977266  0.84491464  1
  In  In69  1  0.18504792  0.85853620  0.36908419  1
  In  In70  1  0.16773611  0.33752016  0.19180612  1
  In  In71  1  0.33273201  0.51027076  0.80600778  1
  Te  Te72  1  0.09760572  0.07961631  0.08566369  1
  Te  Te73  1  0.08154232  0.07424992  0.41337013  1
  Te  Te74  1  0.08459685  0.08179489  0.72710559  1
  Te  Te75  1  0.08018538  0.40721496  0.08609386  1
  Te  Te76  1  0.09621986  0.39940483  0.42078586  1
  Te  Te77  1  0.06726378  0.42284141  0.75034709  1
  Te  Te78  1  0.10619745  0.75464982  0.05349775  1
  Te  Te79  1  0.08581329  0.74746912  0.41740789  1
  Te  Te80  1  0.08947800  0.76249879  0.75039557  1
  Te  Te81  1  0.41603053  0.06303350  0.07364670  1
  Te  Te82  1  0.40236777  0.05986089  0.40364890  1
  Te  Te83  1  0.43650842  0.07012019  0.73798425  1
  Te  Te84  1  0.42570660  0.40769163  0.10399880  1
  Te  Te85  1  0.41461962  0.43750901  0.41613581  1
  Te  Te86  1  0.42966021  0.40116732  0.76758862  1
  Te  Te87  1  0.41769624  0.72249388  0.08014309  1
  Te  Te88  1  0.41683932  0.75386028  0.41629742  1
  Te  Te89  1  0.42750488  0.75344115  0.75927237  1
  Te  Te90  1  0.73885552  0.08621159  0.07227147  1
  Te  Te91  1  0.75802375  0.09381145  0.40384726  1
  Te  Te92  1  0.76705195  0.08219152  0.73815667  1
  Te  Te93  1  0.76603531  0.44158410  0.12203421  1
  Te  Te94  1  0.75283321  0.44741110  0.42567781  1
  Te  Te95  1  0.74584693  0.41444109  0.74153606  1
  Te  Te96  1  0.72575894  0.77346882  0.09966700  1
  Te  Te97  1  0.76877432  0.75319933  0.39752212  1
  Te  Te98  1  0.75761958  0.72677716  0.75563466  1
  Te  Te99  1  0.06061770  0.23959424  0.23633062  1
  Te  Te100  1  0.08704119  0.25347898  0.58868603  1
  Te  Te101  1  0.07137710  0.25751312  0.91719133  1
  Te  Te102  1  0.08200741  0.57306347  0.24264980  1
  Te  Te103  1  0.09229359  0.58669409  0.56488679  1
  Te  Te104  1  0.09508696  0.60717517  0.91765230  1
  Te  Te105  1  0.08059429  0.88292095  0.25689942  1
  Te  Te106  1  0.08827841  0.92870764  0.56259840  1
  Te  Te107  1  0.08939335  0.90878327  0.92269792  1
  Te  Te108  1  0.43371677  0.24104397  0.24056837  1
  Te  Te109  1  0.42442564  0.23858633  0.58378556  1
  Te  Te110  1  0.41009953  0.24105775  0.92014072  1
  Te  Te111  1  0.43187972  0.59057358  0.24684524  1
  Te  Te112  1  0.41864006  0.57730725  0.59334500  1
  Te  Te113  1  0.39335732  0.58121786  0.92629803  1
  Te  Te114  1  0.43878476  0.91423387  0.22893737  1
  Te  Te115  1  0.38117417  0.90534360  0.56369205  1
  Te  Te116  1  0.42561144  0.88238520  0.94530051  1
  Te  Te117  1  0.76451608  0.24490806  0.27568229  1
  Te  Te118  1  0.75451158  0.24539099  0.58235082  1
  Te  Te119  1  0.73861930  0.26653010  0.91244525  1
  Te  Te120  1  0.76575075  0.55318587  0.22850516  1
  Te  Te121  1  0.74304339  0.61085620  0.59420825  1
  Te  Te122  1  0.76562249  0.56358991  0.93221039  1
  Te  Te123  1  0.70970731  0.91208081  0.23384004  1
  Te  Te124  1  0.75908384  0.91940775  0.56784591  1
  Te  Te125  1  0.75430594  0.93236814  0.93051774  1
  Te  Te126  1  0.24217220  0.24690055  0.08351115  1
  Te  Te127  1  0.24484554  0.26452730  0.41694790  1
  Te  Te128  1  0.24554712  0.23266083  0.74195960  1
  Te  Te129  1  0.25818201  0.57141527  0.10856515  1
  Te  Te130  1  0.24403190  0.58518207  0.44272650  1
  Te  Te131  1  0.22841083  0.60163970  0.75353199  1
  Te  Te132  1  0.25729801  0.90789119  0.07528520  1
  Te  Te133  1  0.28833499  0.94264878  0.43031586  1
  Te  Te134  1  0.27020709  0.89716195  0.76030966  1
  Te  Te135  1  0.59218329  0.26249952  0.07642632  1
  Te  Te136  1  0.58728256  0.25958599  0.41340905  1
  Te  Te137  1  0.57376569  0.24409484  0.73913295  1
  Te  Te138  1  0.58794124  0.57857281  0.09622329  1
  Te  Te139  1  0.60259513  0.60399082  0.40332690  1
  Te  Te140  1  0.59131268  0.58915236  0.73960213  1
  Te  Te141  1  0.51704598  0.91724455  0.08847036  1
  Te  Te142  1  0.57165510  0.92138696  0.43808089  1
  Te  Te143  1  0.59637284  0.90561715  0.75622333  1
  Te  Te144  1  0.88167153  0.27656801  0.10762507  1
  Te  Te145  1  0.92188052  0.26056236  0.40676383  1
  Te  Te146  1  0.89710861  0.27644840  0.77180090  1
  Te  Te147  1  0.93202104  0.63281660  0.05701618  1
  Te  Te148  1  0.91632035  0.56881121  0.42019453  1
  Te  Te149  1  0.91903752  0.58158693  0.75592815  1
  Te  Te150  1  0.92992425  0.90967840  0.10677352  1
  Te  Te151  1  0.89377242  0.92373710  0.40155524  1
  Te  Te152  1  0.90552661  0.92175356  0.77024581  1
  Te  Te153  1  0.25355808  0.07582883  0.25646113  1
  Te  Te154  1  0.23095529  0.09506730  0.57752564  1
  Te  Te155  1  0.27022025  0.05383108  0.92139087  1
  Te  Te156  1  0.27090448  0.43018981  0.24747118  1
  Te  Te157  1  0.27278163  0.42641700  0.58060513  1
  Te  Te158  1  0.24774042  0.42155506  0.90744554  1
  Te  Te159  1  0.25004954  0.75342227  0.27102038  1
  Te  Te160  1  0.24758867  0.74443112  0.56327057  1
  Te  Te161  1  0.22441995  0.72910498  0.96411319  1
  Te  Te162  1  0.58188692  0.07570372  0.23699268  1
  Te  Te163  1  0.56727351  0.06748831  0.56930104  1
  Te  Te164  1  0.59039505  0.07258465  0.90913435  1
  Te  Te165  1  0.57338866  0.39275235  0.24065056  1
  Te  Te166  1  0.60093215  0.43653484  0.55492678  1
  Te  Te167  1  0.57841176  0.41135249  0.91821266  1
  Te  Te168  1  0.61833461  0.72892048  0.29025725  1
  Te  Te169  1  0.58397709  0.75120040  0.59175581  1
  Te  Te170  1  0.58872981  0.74380586  0.92660080  1
  Te  Te171  1  0.90742813  0.08972220  0.24295719  1
  Te  Te172  1  0.90688684  0.09402602  0.59064708  1
  Te  Te173  1  0.91866321  0.08891378  0.91194843  1
  Te  Te174  1  0.89186878  0.44795112  0.24385322  1
  Te  Te175  1  0.92999385  0.43369079  0.57007410  1
  Te  Te176  1  0.88245765  0.43788659  0.92941603  1
  Te  Te177  1  0.91891795  0.75495945  0.23974527  1
  Te  Te178  1  0.92904422  0.76445001  0.59847429  1
  Te  Te179  1  0.90142076  0.73423670  0.92863212  1
