# generated using pymatgen
data_In2Te3
_symmetry_space_group_name_H-M   'P 1'
_cell_length_a   18.96838681
_cell_length_b   18.95790549
_cell_length_c   18.97585979
_cell_angle_alpha   90.10670806
_cell_angle_beta   89.82722581
_cell_angle_gamma   89.85764886
_symmetry_Int_Tables_number   1
_chemical_formula_structural   In2Te3
_chemical_formula_sum   'In72 Te108'
_cell_volume   6823.67195049
_cell_formula_units_Z   36
loop_
 _symmetry_equiv_pos_site_id
 _symmetry_equiv_pos_as_xyz
  1  'x, y, z'
loop_
 _atom_site_type_symbol
 _atom_site_label
 _atom_site_symmetry_multiplicity
 _atom_site_fract_x
 _atom_site_fract_y
 _atom_site_fract_z
 _atom_site_occupancy
  In  In0  1  0.00375867  0.16050835  0.17538986  1
  In  In1  1  0.65930808  0.67043570  0.34129266  1
  In  In2  1  0.00999442  0.83636633  0.15815196  1
  In  In3  1  0.12114989  0.01584532  0.80124452  1
  In  In4  1  0.70632033  0.29922608  0.65641527  1
  In  In5  1  0.47893682  0.80988007  0.01747508  1
  In  In6  1  0.52605964  0.00441950  0.83689202  1
  In  In7  1  0.66070287  0.15683860  0.16516547  1
  In  In8  1  -0.01092499  0.68441424  0.66948196  1
  In  In9  1  0.01044139  0.48551422  0.17698489  1
  In  In10  1  0.18467678  0.13996159  0.30186977  1
  In  In11  1  0.17119400  0.52318519  0.68536810  1
  In  In12  1  0.18727814  0.85911434  0.33213598  1
  In  In13  1  0.14931358  0.34069514  0.48204067  1
  In  In14  1  0.67838186  0.48595466  0.15855612  1
  In  In15  1  0.29920015  0.34099076  0.66437161  1
  In  In16  1  0.31810008  0.50780206  0.84811085  1
  In  In17  1  0.49903574  0.32938997  0.17377830  1
  In  In18  1  0.49979554  0.67171249  0.48355753  1
  In  In19  1  0.31013518  0.01158195  0.02302130  1
  In  In20  1  0.65644314  0.66604697  -0.00334563  1
  In  In21  1  0.67639746  -0.00112369  -0.01639176  1
  In  In22  1  0.50555377  0.47865222  0.67580833  1
  In  In23  1  0.85163548  0.84336714  0.01537691  1
  In  In24  1  0.33338085  0.68414558  0.32928797  1
  In  In25  1  0.02908095  0.68744753  0.32931763  1
  In  In26  1  0.52036575  0.47157609  -0.01607985  1
  In  In27  1  0.81322091  0.83306922  0.66547401  1
  In  In28  1  0.82929626  0.48220877  0.00540068  1
  In  In29  1  0.15939347  0.66043359  0.84633293  1
  In  In30  1  0.17701087  0.85324232  0.53225771  1
  In  In31  1  0.67488006  0.31190922  0.34928169  1
  In  In32  1  0.19110578  0.52534001  0.33744334  1
  In  In33  1  0.66281606  0.84689151  0.19825092  1
  In  In34  1  -0.01747880  0.29107045  0.67668591  1
  In  In35  1  0.83611289  0.16251683  0.00814798  1
  In  In36  1  0.81383565  0.02279172  0.83359850  1
  In  In37  1  0.82880559  0.69377739  0.49255531  1
  In  In38  1  0.52624496  0.17809349  0.67497791  1
  In  In39  1  0.00711678  0.49527448  0.83777887  1
  In  In40  1  0.33311171  0.33443777  0.32214229  1
  In  In41  1  0.69252365  0.01024780  0.35578672  1
  In  In42  1  0.14401317  0.15833774  -0.01483290  1
  In  In43  1  0.36202059  0.57046348  0.14943144  1
  In  In44  1  0.31700984  0.14371099  0.52093014  1
  In  In45  1  0.16641349  0.31143530  0.83046761  1
  In  In46  1  0.51288569  0.33678103  0.51897662  1
  In  In47  1  -0.00354463  0.16334782  0.49701804  1
  In  In48  1  0.82413316  0.30084024  0.83805903  1
  In  In49  1  0.49017623  0.18845954  0.33430606  1
  In  In50  1  0.51875364  0.86116221  0.66342019  1
  In  In51  1  0.84092889  0.00310397  0.51910957  1
  In  In52  1  0.32720755  0.32533514  0.00529774  1
  In  In53  1  0.84383213  0.49472763  0.64954807  1
  In  In54  1  -0.00365387  0.50469721  0.50450780  1
  In  In55  1  0.82766453  0.33149280  0.15911160  1
  In  In56  1  0.34135613  0.84885913  0.83249598  1
  In  In57  1  0.15372185  0.31354278  0.16623812  1
  In  In58  1  0.82208991  0.48531105  0.35021571  1
  In  In59  1  0.34798421  0.16889036  0.83952689  1
  In  In60  1  -0.00886327  0.00647106  0.34000303  1
  In  In61  1  0.34979749  0.52294274  0.48052703  1
  In  In62  1  0.51276442  0.00963928  0.52615258  1
  In  In63  1  0.85851933  0.67915808  0.16651079  1
  In  In64  1  -0.01939387  0.84330293  0.83849514  1
  In  In65  1  0.49114214  0.85546383  0.31691072  1
  In  In66  1  0.49087378  0.00898295  0.15084676  1
  In  In67  1  0.65082439  0.65892197  0.66096080  1
  In  In68  1  0.48940482  0.67003172  0.82790827  1
  In  In69  1  0.31245880  -0.00591513  0.66806108  1
  In  In70  1  0.16114451  0.83584063  -0.02154032  1
  In  In71  1  0.82283204  0.67096197  0.86681203  1
  Te  Te72  1  0.09921375  0.07756744  0.09864513  1
  Te  Te73  1  0.10081675  0.08439195  0.41263001  1
  Te  Te74  1  0.04008067  0.13810290  0.77899197  1
  Te  Te75  1  0.08062947  0.40383315  0.07760637  1
  Te  Te76  1  0.07699669  0.43861307  0.39379610  1
  Te  Te77  1  0.08029471  0.40877313  0.73326514  1
  Te  Te78  1  0.07174066  0.74764313  0.05766633  1
  Te  Te79  1  0.08485196  0.78634471  0.42521448  1
  Te  Te80  1  0.08197043  0.75977585  0.75988590  1
  Te  Te81  1  0.42149109  0.09851323  0.05861542  1
  Te  Te82  1  0.42387834  0.08786441  0.42931435  1
  Te  Te83  1  0.42770803  0.07267271  0.74013911  1
  Te  Te84  1  0.41016029  0.42193353  0.08943502  1
  Te  Te85  1  0.42782212  0.40840050  0.41518597  1
  Te  Te86  1  0.39475228  0.41201132  0.75624705  1
  Te  Te87  1  0.39265627  0.71075702  0.08699458  1
  Te  Te88  1  0.41054703  0.77705948  0.41946447  1
  Te  Te89  1  0.42139573  0.76650596  0.73289499  1
  Te  Te90  1  0.75632974  0.06312653  0.09435455  1
  Te  Te91  1  0.76472233  0.10950868  0.44108686  1
  Te  Te92  1  0.71333318  0.05921994  0.73089609  1
  Te  Te93  1  0.72715313  0.38312267  0.05852848  1
  Te  Te94  1  0.73392836  0.41259554  0.43907672  1
  Te  Te95  1  0.76601964  0.41052781  0.74626973  1
  Te  Te96  1  0.74550170  0.74810029  0.08982255  1
  Te  Te97  1  0.74159955  0.77152969  0.40563966  1
  Te  Te98  1  0.73982938  0.73592621  0.75850440  1
  Te  Te99  1  0.07994060  0.24704231  0.27968841  1
  Te  Te100  1  0.09616640  0.24581733  0.58480687  1
  Te  Te101  1  0.05354234  0.24035964  0.89833398  1
  Te  Te102  1  0.10190778  0.59561543  0.23366685  1
  Te  Te103  1  0.08199890  0.59845992  0.58633918  1
  Te  Te104  1  0.09220675  0.56464114  0.93347899  1
  Te  Te105  1  0.08732208  0.93309114  0.24514443  1
  Te  Te106  1  0.08569425  0.94443304  0.60079039  1
  Te  Te107  1  0.06345551  0.94052310  0.91950425  1
  Te  Te108  1  0.39313419  0.23204201  0.22790345  1
  Te  Te109  1  0.41078558  0.25206167  0.59498144  1
  Te  Te110  1  0.42838992  0.27002853  0.91043836  1
  Te  Te111  1  0.41691712  0.57151367  0.28412747  1
  Te  Te112  1  0.43176927  0.58228677  0.59207123  1
  Te  Te113  1  0.42522976  0.57737052  0.92820376  1
  Te  Te114  1  0.39688629  0.91510097  0.21835990  1
  Te  Te115  1  0.40397467  0.91502834  0.57721294  1
  Te  Te116  1  0.42722153  0.92742314  0.92898636  1
  Te  Te117  1  0.76026835  0.23267619  0.25226718  1
  Te  Te118  1  0.78485244  0.22007590  0.55481311  1
  Te  Te119  1  0.73167432  0.21645586  0.91719521  1
  Te  Te120  1  0.76300990  0.58192121  0.24043664  1
  Te  Te121  1  0.75338227  0.58862682  0.57196995  1
  Te  Te122  1  0.73315079  0.56004501  0.91726688  1
  Te  Te123  1  0.76497261  0.93363841  0.25355959  1
  Te  Te124  1  0.73907680  0.90411463  0.56234429  1
  Te  Te125  1  0.76006324  0.89646745  0.90960206  1
  Te  Te126  1  0.24333072  0.22500843  0.08096399  1
  Te  Te127  1  0.25786144  0.24954683  0.42301356  1
  Te  Te128  1  0.24539422  0.22065854  0.73861112  1
  Te  Te129  1  0.26860345  0.62123776  0.05253332  1
  Te  Te130  1  0.23717225  0.62299863  0.44886940  1
  Te  Te131  1  0.27272945  0.61224776  0.74764341  1
  Te  Te132  1  0.25023064  0.89373028  0.08086269  1
  Te  Te133  1  0.26757988  0.96729558  0.39256854  1
  Te  Te134  1  0.22540600  0.90822218  0.75656408  1
  Te  Te135  1  0.57470027  0.24194854  0.08417177  1
  Te  Te136  1  0.58745622  0.22882668  0.44286839  1
  Te  Te137  1  0.59383683  0.28080265  0.75892551  1
  Te  Te138  1  0.57828823  0.57335805  0.08668809  1
  Te  Te139  1  0.59018113  0.57321796  0.42404366  1
  Te  Te140  1  0.58633657  0.57025511  0.76598582  1
  Te  Te141  1  0.58905986  0.90554560  0.07847972  1
  Te  Te142  1  0.58121275  0.92652931  0.41740583  1
  Te  Te143  1  0.62059220  0.92597217  0.75137672  1
  Te  Te144  1  0.93171945  0.25606883  0.07997376  1
  Te  Te145  1  0.89490672  0.26066021  0.45403518  1
  Te  Te146  1  0.88702156  0.20055566  0.74447894  1
  Te  Te147  1  0.92349621  0.57088574  0.08305494  1
  Te  Te148  1  0.92166760  0.59671155  0.40737241  1
  Te  Te149  1  0.90729618  0.59011034  0.75624816  1
  Te  Te150  1  0.92812797  0.94022470  0.09132171  1
  Te  Te151  1  0.91633882  0.91524426  0.42670107  1
  Te  Te152  1  0.90112536  0.92829173  0.74416798  1
  Te  Te153  1  0.28852755  0.04109561  0.26455221  1
  Te  Te154  1  0.20946816  0.06736605  0.58994537  1
  Te  Te155  1  0.24191341  0.07316660  0.89254566  1
  Te  Te156  1  0.24054073  0.41862405  0.23960697  1
  Te  Te157  1  0.24202335  0.44091374  0.56567672  1
  Te  Te158  1  0.23033809  0.41046032  0.92507439  1
  Te  Te159  1  0.22842046  0.74447058  0.24850790  1
  Te  Te160  1  0.23642406  0.72661263  0.56911428  1
  Te  Te161  1  0.26890991  0.74420918  0.91445497  1
  Te  Te162  1  0.57453702  0.07601402  0.26498109  1
  Te  Te163  1  0.61855599  0.08192715  0.60723393  1
  Te  Te164  1  0.60179301  0.10617189  0.91281847  1
  Te  Te165  1  0.59562820  0.40841569  0.25891114  1
  Te  Te166  1  0.61674862  0.41271792  0.59627007  1
  Te  Te167  1  0.56309357  0.37516142  0.88296318  1
  Te  Te168  1  0.56491829  0.74174408  0.24503968  1
  Te  Te169  1  0.58814561  0.76171857  0.57057970  1
  Te  Te170  1  0.57726794  0.76217526  0.90999881  1
  Te  Te171  1  0.90581024  0.10148216  0.26671578  1
  Te  Te172  1  0.96884251  0.04896696  0.58976453  1
  Te  Te173  1  0.91281046  0.05824911  0.93659560  1
  Te  Te174  1  0.91325156  0.40251352  0.26164485  1
  Te  Te175  1  0.92206011  0.39089518  0.57089181  1
  Te  Te176  1  0.91624246  0.40023092  0.91212234  1
  Te  Te177  1  0.91888423  0.77107955  0.26712039  1
  Te  Te178  1  0.92517122  0.77890864  0.57294767  1
  Te  Te179  1  0.93737581  0.73571970  0.93779352  1
