# generated using pymatgen
data_In2Te3
_symmetry_space_group_name_H-M   'P 1'
_cell_length_a   18.96935759
_cell_length_b   19.00158126
_cell_length_c   18.98439750
_cell_angle_alpha   90.01702646
_cell_angle_beta   90.00591360
_cell_angle_gamma   90.11502161
_symmetry_Int_Tables_number   1
_chemical_formula_structural   In2Te3
_chemical_formula_sum   'In72 Te108'
_cell_volume   6842.86999125
_cell_formula_units_Z   36
loop_
 _symmetry_equiv_pos_site_id
 _symmetry_equiv_pos_as_xyz
  1  'x, y, z'
loop_
 _atom_site_type_symbol
 _atom_site_label
 _atom_site_symmetry_multiplicity
 _atom_site_fract_x
 _atom_site_fract_y
 _atom_site_fract_z
 _atom_site_occupancy
  In  In0  1  0.81844348  0.50743293  0.31522231  1
  In  In1  1  0.85489406  0.01303699  0.82980554  1
  In  In2  1  0.50534195  0.82801907  -0.01777280  1
  In  In3  1  0.00274374  -0.00460181  0.03146845  1
  In  In4  1  0.31768373  0.15092160  0.84200423  1
  In  In5  1  0.33506224  0.14810373  0.17723011  1
  In  In6  1  0.83074415  0.32481734  0.50386739  1
  In  In7  1  0.86752821  0.71403320  0.47078779  1
  In  In8  1  0.83169416  0.28848409  0.88556707  1
  In  In9  1  0.49197716  0.47289197  0.33428887  1
  In  In10  1  0.30080672  0.32866997  0.33625866  1
  In  In11  1  0.51695075  0.66140407  0.19327495  1
  In  In12  1  0.82709660  0.85424790  0.69171856  1
  In  In13  1  0.17789181  -0.00847039  0.17697767  1
  In  In14  1  0.30204429  0.03185654  0.65359633  1
  In  In15  1  0.69001763  0.51323430  0.17541541  1
  In  In16  1  0.03866531  0.17274763  0.20911194  1
  In  In17  1  0.69015983  0.00975103  0.02462077  1
  In  In18  1  0.01056188  0.66589884  -0.00734111  1
  In  In19  1  -0.00070018  0.16220015  0.49749955  1
  In  In20  1  0.50050099  0.48781554  -0.01364887  1
  In  In21  1  0.31296072  0.51270198  0.48572563  1
  In  In22  1  0.67085562  0.00079194  0.31231997  1
  In  In23  1  0.33205698  -0.00764200  0.34964200  1
  In  In24  1  0.52214705  0.15207327  0.34127773  1
  In  In25  1  0.30097699  0.81075037  0.50518380  1
  In  In26  1  0.14122964  0.67564150  0.15427888  1
  In  In27  1  0.32833778  0.36516177  0.65557768  1
  In  In28  1  0.82651263  0.52611449  0.63631551  1
  In  In29  1  -0.00104788  0.17323467  0.83323639  1
  In  In30  1  0.49810840  0.83104447  0.63061691  1
  In  In31  1  0.16534751  0.16656836  0.63943879  1
  In  In32  1  0.30945557  0.50818637  0.83444656  1
  In  In33  1  0.32890015  0.67584886  0.00251145  1
  In  In34  1  0.68417008  0.84003220  0.16010453  1
  In  In35  1  0.51309647  0.68356750  0.80362344  1
  In  In36  1  -0.00175418  0.31759823  0.00203790  1
  In  In37  1  0.15933662  0.33463942  0.82230058  1
  In  In38  1  0.01105150  0.66886175  0.68032486  1
  In  In39  1  0.16768730  0.65793618  0.81786994  1
  In  In40  1  0.50490695  0.17800151  0.68475965  1
  In  In41  1  0.01753018  -0.01704247  0.62220415  1
  In  In42  1  0.84434877  0.14644280  0.30715353  1
  In  In43  1  0.31597938  0.83024544  0.82348206  1
  In  In44  1  0.29910008  0.18861153  0.51249963  1
  In  In45  1  0.34451945  0.29353005  0.02252065  1
  In  In46  1  0.11929943  0.81310445  0.31591149  1
  In  In47  1  0.34230843  0.85615110  0.18049582  1
  In  In48  1  0.67057063  0.52118257  0.82083565  1
  In  In49  1  -0.01146444  0.49143616  0.15700262  1
  In  In50  1  0.33718455  0.66625300  0.33856854  1
  In  In51  1  -0.00841985  0.49631849  0.48241968  1
  In  In52  1  0.51777148  0.15034039  0.02344054  1
  In  In53  1  0.85370418  0.82690615  0.00862589  1
  In  In54  1  0.82559988  0.66940006  0.83707889  1
  In  In55  1  0.15759050  0.49066910  -0.00272133  1
  In  In56  1  0.66809983  0.33405286  0.64972130  1
  In  In57  1  0.14858988  0.49166496  0.67094621  1
  In  In58  1  0.50305615  0.31357270  0.15828531  1
  In  In59  1  0.67523332  0.82523536  0.83334394  1
  In  In60  1  0.50037082  -0.01288857  0.86227130  1
  In  In61  1  0.64548844  0.52021377  0.52342552  1
  In  In62  1  0.67940591  0.14505124  0.47731490  1
  In  In63  1  0.14976086  0.01267572  0.86406451  1
  In  In64  1  0.69334502  0.32080920  0.34124925  1
  In  In65  1  0.17045223  0.50126400  0.32636024  1
  In  In66  1  0.50513337  0.34190389  0.82446542  1
  In  In67  1  0.82408408  0.31946020  0.15956638  1
  In  In68  1  0.49729707  0.66417424  0.48136259  1
  In  In69  1  0.67642757  0.00299557  0.68486063  1
  In  In70  1  0.50273403  -0.00762470  0.48594118  1
  In  In71  1  0.69043874  0.69121326  0.33639863  1
  Te  Te72  1  0.10071362  0.09325617  0.09454089  1
  Te  Te73  1  0.07576994  0.03774686  0.46168743  1
  Te  Te74  1  0.08635711  0.08755973  0.74109362  1
  Te  Te75  1  0.09049390  0.39768860  0.09429563  1
  Te  Te76  1  0.07269550  0.40878657  0.39304835  1
  Te  Te77  1  0.05830369  0.41422161  0.75616230  1
  Te  Te78  1  0.06089311  0.77270258  0.08101534  1
  Te  Te79  1  0.04971358  0.76118145  0.43980744  1
  Te  Te80  1  0.10080889  0.76876578  0.74549008  1
  Te  Te81  1  0.41042816  0.06897232  0.07943698  1
  Te  Te82  1  0.40754145  0.10571215  0.43652419  1
  Te  Te83  1  0.42263618  0.06910215  0.75433474  1
  Te  Te84  1  0.41468631  0.41388121  0.08676120  1
  Te  Te85  1  0.39981137  0.40135545  0.42834497  1
  Te  Te86  1  0.41928463  0.44113363  0.75006900  1
  Te  Te87  1  0.43210164  0.74392399  0.09135499  1
  Te  Te88  1  0.41647701  0.77166280  0.41045499  1
  Te  Te89  1  0.40432835  0.75495764  0.72632203  1
  Te  Te90  1  0.77116398  0.11338220  0.08907373  1
  Te  Te91  1  0.77975674  0.05714184  0.41180786  1
  Te  Te92  1  0.75559967  0.09658712  0.76240667  1
  Te  Te93  1  0.77081749  0.43298144  0.08328943  1
  Te  Te94  1  0.74553582  0.43230191  0.43273220  1
  Te  Te95  1  0.75335124  0.43061653  0.72948214  1
  Te  Te96  1  0.74283008  0.74804673  0.06281456  1
  Te  Te97  1  0.77551300  0.80057312  0.39074071  1
  Te  Te98  1  0.73825244  0.73544456  0.73163517  1
  Te  Te99  1  0.09654318  0.27333155  0.30044192  1
  Te  Te100  1  0.07111838  0.26019318  0.58198595  1
  Te  Te101  1  0.10292042  0.23904081  0.92344094  1
  Te  Te102  1  0.06777636  0.58426563  0.24869633  1
  Te  Te103  1  0.07714348  0.58374640  0.57382816  1
  Te  Te104  1  0.07708732  0.56521318  0.89626074  1
  Te  Te105  1  0.05750375  0.93332006  0.24752491  1
  Te  Te106  1  0.10554001  0.88230355  0.55691872  1
  Te  Te107  1  0.07108347  0.91068028  0.93307527  1
  Te  Te108  1  0.42218598  0.24816154  0.26881920  1
  Te  Te109  1  0.41329148  0.25508812  0.59277053  1
  Te  Te110  1  0.43233439  0.23726843  0.90796224  1
  Te  Te111  1  0.41044264  0.56823056  0.24903670  1
  Te  Te112  1  0.40642858  0.58961476  0.56768568  1
  Te  Te113  1  0.41743573  0.59541730  0.90708397  1
  Te  Te114  1  0.43229428  0.94238443  0.25577799  1
  Te  Te115  1  0.38978358  0.92777009  0.57546534  1
  Te  Te116  1  0.38937453  0.91059636  0.93058701  1
  Te  Te117  1  0.72995297  0.21917222  0.23831699  1
  Te  Te118  1  0.75277106  0.22410234  0.58410535  1
  Te  Te119  1  0.74555628  0.21936014  0.98208661  1
  Te  Te120  1  0.77648253  0.62638201  0.22976172  1
  Te  Te121  1  0.75905501  0.61676893  0.53839981  1
  Te  Te122  1  0.74754106  0.58551698  0.92786022  1
  Te  Te123  1  0.77561834  0.93820273  0.22518454  1
  Te  Te124  1  0.74673179  0.92042514  0.58916865  1
  Te  Te125  1  0.75956158  0.91930817  0.91479156  1
  Te  Te126  1  0.24725362  0.25179169  0.12174986  1
  Te  Te127  1  0.20187665  0.24435003  0.41291425  1
  Te  Te128  1  0.26306026  0.25230775  0.74326860  1
  Te  Te129  1  0.24260089  0.58175836  0.08282683  1
  Te  Te130  1  0.22166683  0.61379983  0.42034807  1
  Te  Te131  1  0.25742000  0.58817447  0.71818105  1
  Te  Te132  1  0.23861276  0.89359378  0.08662905  1
  Te  Te133  1  0.23684315  0.88367741  0.39073008  1
  Te  Te134  1  0.23755946  0.94174578  0.75668462  1
  Te  Te135  1  0.60453740  0.26416394  0.06280762  1
  Te  Te136  1  0.58807232  0.25744140  0.42983457  1
  Te  Te137  1  0.61007367  0.24933350  0.76485065  1
  Te  Te138  1  0.57955732  0.57222718  0.08910894  1
  Te  Te139  1  0.59073953  0.57824606  0.38334771  1
  Te  Te140  1  0.58806263  0.59076408  0.72102673  1
  Te  Te141  1  0.58025432  0.91808482  0.07661229  1
  Te  Te142  1  0.60314258  0.91683303  0.41413648  1
  Te  Te143  1  0.56752803  0.90128671  0.75478105  1
  Te  Te144  1  0.93572238  0.23069760  0.10942957  1
  Te  Te145  1  0.90807450  0.24814767  0.40225595  1
  Te  Te146  1  0.89678905  0.24869020  0.76138981  1
  Te  Te147  1  0.91651305  0.58509224  0.07134161  1
  Te  Te148  1  0.91818959  0.59132902  0.39216833  1
  Te  Te149  1  0.91137166  0.57790329  0.75057789  1
  Te  Te150  1  0.89198107  0.93033249  0.10865501  1
  Te  Te151  1  0.93415323  0.85612456  0.41722166  1
  Te  Te152  1  0.94621565  0.92603678  0.75011406  1
  Te  Te153  1  0.23901392  0.08728028  0.27941798  1
  Te  Te154  1  0.21131884  0.05813516  0.53069502  1
  Te  Te155  1  0.25119345  0.07959656  0.94871442  1
  Te  Te156  1  0.25699044  0.42453969  0.23609707  1
  Te  Te157  1  0.22207804  0.41381551  0.56291530  1
  Te  Te158  1  0.26411286  0.39632296  0.92560361  1
  Te  Te159  1  0.25470631  0.74210958  0.23617757  1
  Te  Te160  1  0.20767381  0.78468186  0.61694857  1
  Te  Te161  1  0.22861313  0.75192530  0.92148821  1
  Te  Te162  1  0.57840888  0.07994020  0.22875321  1
  Te  Te163  1  0.57557969  0.08458175  0.58554758  1
  Te  Te164  1  0.60144075  0.08123984  0.91628733  1
  Te  Te165  1  0.59820519  0.40298023  0.24632206  1
  Te  Te166  1  0.56613010  0.41421520  0.58253714  1
  Te  Te167  1  0.60579587  0.41095368  0.91353238  1
  Te  Te168  1  0.58741042  0.77431687  0.26119901  1
  Te  Te169  1  0.59110962  0.75576624  0.54892198  1
  Te  Te170  1  0.59894361  0.72707244  0.92086394  1
  Te  Te171  1  0.96456431  0.06350776  0.27884729  1
  Te  Te172  1  0.91393623  0.07670714  0.58304971  1
  Te  Te173  1  0.92638673  0.08986710  0.93641302  1
  Te  Te174  1  0.90851829  0.40347525  0.25472848  1
  Te  Te175  1  0.91866084  0.41472584  0.58727936  1
  Te  Te176  1  0.90156711  0.40629709  0.93759658  1
  Te  Te177  1  0.97052870  0.78174984  0.29124104  1
  Te  Te178  1  0.91292667  0.75805871  0.60921665  1
  Te  Te179  1  0.93024045  0.75905647  0.89754265  1
