# generated using pymatgen
data_In2Te3
_symmetry_space_group_name_H-M   'P 1'
_cell_length_a   18.81503516
_cell_length_b   18.81288721
_cell_length_c   18.82009334
_cell_angle_alpha   89.90803991
_cell_angle_beta   90.13227463
_cell_angle_gamma   90.01024866
_symmetry_Int_Tables_number   1
_chemical_formula_structural   In2Te3
_chemical_formula_sum   'In72 Te108'
_cell_volume   6661.63043446
_cell_formula_units_Z   36
loop_
 _symmetry_equiv_pos_site_id
 _symmetry_equiv_pos_as_xyz
  1  'x, y, z'
loop_
 _atom_site_type_symbol
 _atom_site_label
 _atom_site_symmetry_multiplicity
 _atom_site_fract_x
 _atom_site_fract_y
 _atom_site_fract_z
 _atom_site_occupancy
  In  In0  1  -0.00353077  0.68246783  0.35239953  1
  In  In1  1  -0.02736898  0.65283055  -0.02514156  1
  In  In2  1  0.51877894  0.15942991  -0.00075555  1
  In  In3  1  0.14633594  0.83457280  0.33232006  1
  In  In4  1  0.51215853  0.14905539  0.34409802  1
  In  In5  1  0.70745758  0.64496527  -0.02120872  1
  In  In6  1  0.65918882  -0.00101850  -0.00083016  1
  In  In7  1  0.30961656  0.83131714  0.53060575  1
  In  In8  1  0.84605796  0.82188169  0.66256477  1
  In  In9  1  0.17059039  -0.00315829  0.82224504  1
  In  In10  1  0.14962862  0.33458387  0.81432597  1
  In  In11  1  0.82940073  0.33410122  0.14566981  1
  In  In12  1  0.67255141  0.64138183  0.68734445  1
  In  In13  1  0.64696346  0.00400817  0.67723230  1
  In  In14  1  0.47999780  -0.03025715  0.50066559  1
  In  In15  1  0.66485826  0.37638365  0.33905543  1
  In  In16  1  0.15481289  0.15737543  0.66847272  1
  In  In17  1  0.35019530  -0.01191087  -0.03374210  1
  In  In18  1  0.82784358  0.51716424  0.33507454  1
  In  In19  1  0.30254785  0.67163196  -0.02974016  1
  In  In20  1  0.86040438  0.17741868  0.32814654  1
  In  In21  1  0.85587758  0.19219378  0.70219840  1
  In  In22  1  0.16001204  0.66469226  0.15371384  1
  In  In23  1  0.16516466  -0.01193199  0.17904780  1
  In  In24  1  0.67873939  -0.00980328  0.31751526  1
  In  In25  1  -0.00670639  0.51069816  0.13730409  1
  In  In26  1  0.15688904  0.18645987  0.00295893  1
  In  In27  1  0.52102795  0.64963007  0.51709684  1
  In  In28  1  0.33267242  0.64478196  0.35098097  1
  In  In29  1  -0.02182133  -0.01071353  0.33376882  1
  In  In30  1  0.83542996  0.83559202  0.34014176  1
  In  In31  1  0.70030273  0.38171701  0.69758564  1
  In  In32  1  0.00751669  0.16398396  0.18578632  1
  In  In33  1  0.30905392  0.32303838  0.33994270  1
  In  In34  1  -0.01384089  -0.02072015  0.66908253  1
  In  In35  1  0.52160818  0.82870029  -0.01226301  1
  In  In36  1  0.49001567  0.31647329  0.14094832  1
  In  In37  1  0.51607619  0.32927828  0.53112168  1
  In  In38  1  0.67617813  0.79946899  0.50511018  1
  In  In39  1  0.68736454  0.18349534  0.53832474  1
  In  In40  1  0.67430172  0.16662624  0.84502677  1
  In  In41  1  0.14526222  -0.00334919  0.51456804  1
  In  In42  1  0.00947259  0.33382874  0.33491476  1
  In  In43  1  0.69128342  0.15825183  0.15123059  1
  In  In44  1  0.16917097  0.49600776  0.35268797  1
  In  In45  1  0.33586014  0.15374749  0.13516529  1
  In  In46  1  0.84213369  0.82097951  -0.01531179  1
  In  In47  1  -0.02495124  0.01002638  -0.03401863  1
  In  In48  1  0.35119996  0.68883529  0.69380268  1
  In  In49  1  0.32950870  0.50749912  0.49818752  1
  In  In50  1  0.33014008  0.48211768  0.83376526  1
  In  In51  1  0.15013167  0.80723218  -0.01541617  1
  In  In52  1  0.48765295  0.53064258  0.34668719  1
  In  In53  1  0.01484258  0.15877112  0.50968495  1
  In  In54  1  0.11428510  0.66050883  0.80452431  1
  In  In55  1  0.32802735  0.32002677  -0.02329270  1
  In  In56  1  0.33753231  0.83490965  0.15894207  1
  In  In57  1  0.49789761  0.49792654  -0.01367589  1
  In  In58  1  0.67652561  0.50551814  0.18053231  1
  In  In59  1  0.69284751  0.35195511  -0.05668531  1
  In  In60  1  -0.01417418  0.35564424  -0.02042940  1
  In  In61  1  0.48277269  0.14611371  0.69269955  1
  In  In62  1  0.69463913  0.51788487  0.50567679  1
  In  In63  1  0.82724962  -0.00583281  0.47880135  1
  In  In64  1  0.52603683  0.32983126  0.84767251  1
  In  In65  1  0.51622644  0.68530089  0.18154315  1
  In  In66  1  0.11692681  0.50959157  0.67770340  1
  In  In67  1  0.32451411  0.33048828  0.67555325  1
  In  In68  1  0.65909130  0.82953416  0.83124369  1
  In  In69  1  0.50305741  0.79834772  0.32684080  1
  In  In70  1  0.34528139  -0.00156117  0.31943945  1
  In  In71  1  0.15636211  0.33036317  0.50224848  1
  Te  Te72  1  0.08399018  0.07352876  0.07869892  1
  Te  Te73  1  0.08298964  0.07857155  0.39954064  1
  Te  Te74  1  0.05842385  0.08122154  0.75785238  1
  Te  Te75  1  0.07538479  0.39973624  0.08891024  1
  Te  Te76  1  0.06183560  0.43202823  0.43975096  1
  Te  Te77  1  0.03310650  0.42086210  0.76744385  1
  Te  Te78  1  0.05498382  0.74511377  0.08230080  1
  Te  Te79  1  0.08506742  0.76112103  0.44276114  1
  Te  Te80  1  0.06870776  0.77926910  0.72492903  1
  Te  Te81  1  0.43381784  0.05556933  0.07537184  1
  Te  Te82  1  0.40459583  0.08458787  0.43055611  1
  Te  Te83  1  0.38295550  0.05185566  0.74450516  1
  Te  Te84  1  0.39988862  0.41802372  0.07173455  1
  Te  Te85  1  0.42499040  0.40955497  0.42854357  1
  Te  Te86  1  0.43219226  0.40736971  0.74937516  1
  Te  Te87  1  0.41358297  0.73887874  0.07020212  1
  Te  Te88  1  0.41579463  0.74564361  0.44079669  1
  Te  Te89  1  0.44040017  0.77333696  0.77371455  1
  Te  Te90  1  0.77043966  0.09039291  0.04641939  1
  Te  Te91  1  0.74439569  0.10441932  0.41037372  1
  Te  Te92  1  0.75699003  0.08153526  0.74804520  1
  Te  Te93  1  0.74715842  0.43351413  0.06647321  1
  Te  Te94  1  0.77444413  0.40781854  0.43650287  1
  Te  Te95  1  0.80058115  0.43757517  0.79434870  1
  Te  Te96  1  0.74021784  0.75435301  0.07031679  1
  Te  Te97  1  0.78914241  0.73527620  0.43988446  1
  Te  Te98  1  0.76161425  0.74068641  0.76082374  1
  Te  Te99  1  0.10224614  0.24813014  0.26063043  1
  Te  Te100  1  0.06484450  0.26621538  0.60640750  1
  Te  Te101  1  0.06166402  0.23999369  0.89908908  1
  Te  Te102  1  0.08083291  0.57919021  0.25452974  1
  Te  Te103  1  0.03050989  0.59132445  0.58583388  1
  Te  Te104  1  0.08473762  0.57340432  0.92005035  1
  Te  Te105  1  0.05279133  0.90076724  0.23218404  1
  Te  Te106  1  0.09967994  0.89496849  0.61587486  1
  Te  Te107  1  0.07384674  0.90983868  0.90126858  1
  Te  Te108  1  0.42093082  0.23415513  0.24946333  1
  Te  Te109  1  0.41012096  0.23752153  0.59015502  1
  Te  Te110  1  0.42251872  0.22936371  0.90118644  1
  Te  Te111  1  0.40594702  0.58627477  0.23139010  1
  Te  Te112  1  0.41601627  0.57919271  0.60060031  1
  Te  Te113  1  0.41314532  0.59152902  0.89933115  1
  Te  Te114  1  0.44129255  0.91087226  0.24116934  1
  Te  Te115  1  0.40728133  0.90847280  0.61480760  1
  Te  Te116  1  0.40786832  0.87127557  0.89316494  1
  Te  Te117  1  0.74159869  0.26197476  0.25553187  1
  Te  Te118  1  0.77818897  0.28476914  0.60658550  1
  Te  Te119  1  0.79069900  0.24340053  0.90740265  1
  Te  Te120  1  0.75676084  0.61061215  0.24473570  1
  Te  Te121  1  0.78662486  0.58823045  0.60224556  1
  Te  Te122  1  0.79035480  0.57199846  0.87896787  1
  Te  Te123  1  0.77613925  0.92192156  0.23256930  1
  Te  Te124  1  0.74383631  0.92195464  0.58644262  1
  Te  Te125  1  0.75121626  0.92347532  0.90514200  1
  Te  Te126  1  0.24502526  0.26904134  0.09639020  1
  Te  Te127  1  0.24623625  0.23476625  0.43676146  1
  Te  Te128  1  0.25054781  0.23230714  0.76416011  1
  Te  Te129  1  0.23641782  0.57824657  0.06333169  1
  Te  Te130  1  0.22171216  0.60377617  0.44783408  1
  Te  Te131  1  0.23956442  0.57261348  0.74865450  1
  Te  Te132  1  0.24231657  0.91254750  0.06780776  1
  Te  Te133  1  0.25190397  0.91775739  0.41055970  1
  Te  Te134  1  0.26800575  0.94972092  0.71954657  1
  Te  Te135  1  0.61030087  0.26598722  0.06118112  1
  Te  Te136  1  0.59225168  0.25829826  0.41831776  1
  Te  Te137  1  0.59804135  0.25016608  0.73703156  1
  Te  Te138  1  0.58256507  0.58289635  0.08138956  1
  Te  Te139  1  0.60956240  0.59902564  0.40387748  1
  Te  Te140  1  0.57435159  0.56077676  0.75830829  1
  Te  Te141  1  0.59388771  0.90367479  0.09152549  1
  Te  Te142  1  0.59505951  0.90877051  0.41882791  1
  Te  Te143  1  0.56045978  0.90898928  0.75050537  1
  Te  Te144  1  0.93225963  0.24647480  0.08126120  1
  Te  Te145  1  0.92197966  0.25943209  0.43824023  1
  Te  Te146  1  0.94435226  0.29030090  0.76623169  1
  Te  Te147  1  0.88985981  0.60214601  0.08828866  1
  Te  Te148  1  0.92006737  0.58158635  0.43166800  1
  Te  Te149  1  0.93795087  0.58971770  0.71239452  1
  Te  Te150  1  0.92397322  0.91568286  0.06574138  1
  Te  Te151  1  0.93859543  0.89827545  0.44805278  1
  Te  Te152  1  0.90074454  0.91115921  0.76920818  1
  Te  Te153  1  0.25018232  0.09408976  0.24796797  1
  Te  Te154  1  0.24882020  0.07283656  0.58959145  1
  Te  Te155  1  0.24566542  0.08842577  0.92198677  1
  Te  Te156  1  0.26142080  0.43263672  0.25703184  1
  Te  Te157  1  0.23583812  0.42640948  0.59467652  1
  Te  Te158  1  0.22333307  0.41585313  0.92013607  1
  Te  Te159  1  0.25704052  0.74894692  0.25654669  1
  Te  Te160  1  0.23729982  0.72953241  0.60878658  1
  Te  Te161  1  0.22950138  0.75558932  0.86698315  1
  Te  Te162  1  0.58727445  0.07932492  0.23051914  1
  Te  Te163  1  0.57142997  0.08542995  0.56895086  1
  Te  Te164  1  0.56924337  0.06494628  0.89199147  1
  Te  Te165  1  0.55520060  0.41858316  0.24039670  1
  Te  Te166  1  0.59664988  0.43958465  0.59535030  1
  Te  Te167  1  0.60504396  0.46606543  0.87866903  1
  Te  Te168  1  0.62446206  0.75340777  0.25660491  1
  Te  Te169  1  0.58182171  0.75068322  0.61088272  1
  Te  Te170  1  0.59066008  0.71675679  0.90920171  1
  Te  Te171  1  0.89442712  0.06814395  0.22990871  1
  Te  Te172  1  0.90106853  0.08572894  0.58152593  1
  Te  Te173  1  0.87987150  0.11260652  0.91807143  1
  Te  Te174  1  0.91071200  0.41562076  0.24762048  1
  Te  Te175  1  0.90190519  0.47910442  0.62047620  1
  Te  Te176  1  0.88647367  0.45545577  0.92792804  1
  Te  Te177  1  0.91498728  0.74975908  0.24941703  1
  Te  Te178  1  0.96134113  0.73486950  0.61894901  1
  Te  Te179  1  0.92645666  0.75710703  0.87964949  1
