# generated using pymatgen
data_In2Te3
_symmetry_space_group_name_H-M   'P 1'
_cell_length_a   18.81491370
_cell_length_b   18.80583032
_cell_length_c   18.79462792
_cell_angle_alpha   90.00621020
_cell_angle_beta   90.04520661
_cell_angle_gamma   89.93754550
_symmetry_Int_Tables_number   1
_chemical_formula_structural   In2Te3
_chemical_formula_sum   'In72 Te108'
_cell_volume   6650.09854012
_cell_formula_units_Z   36
loop_
 _symmetry_equiv_pos_site_id
 _symmetry_equiv_pos_as_xyz
  1  'x, y, z'
loop_
 _atom_site_type_symbol
 _atom_site_label
 _atom_site_symmetry_multiplicity
 _atom_site_fract_x
 _atom_site_fract_y
 _atom_site_fract_z
 _atom_site_occupancy
  In  In0  1  0.01410593  0.46750204  0.15829028  1
  In  In1  1  0.17260926  0.86347668  0.67911346  1
  In  In2  1  0.31754259  0.33357198  -0.00426205  1
  In  In3  1  0.64645632  0.52541425  0.81274119  1
  In  In4  1  0.18960598  0.68902598  0.17942424  1
  In  In5  1  0.65467265  0.50580543  0.15377171  1
  In  In6  1  0.49406813  -0.00768548  0.83123184  1
  In  In7  1  0.83758144  0.01448656  0.50664207  1
  In  In8  1  0.66927595  0.35248575  0.34600428  1
  In  In9  1  0.83001714  0.83988182  0.34341871  1
  In  In10  1  0.65222575  0.67722810  0.31702010  1
  In  In11  1  0.16066604  0.15570570  0.68190722  1
  In  In12  1  0.82935284  0.49249947  0.65221399  1
  In  In13  1  0.65312888  -0.01892446  0.66422254  1
  In  In14  1  0.83730360  0.01034578  0.16142204  1
  In  In15  1  0.19349411  0.67481488  0.50704079  1
  In  In16  1  0.32908609  0.70128335  0.33310858  1
  In  In17  1  0.12433849  0.50888401  0.35208463  1
  In  In18  1  0.16217225  0.16875726  0.34803743  1
  In  In19  1  0.67666284  0.33460486  0.65622140  1
  In  In20  1  0.48639108  0.15565954  0.66272618  1
  In  In21  1  0.03309773  0.83441141  0.17255326  1
  In  In22  1  0.31745678  0.31720836  0.34754091  1
  In  In23  1  0.36207069  0.53355486  0.80208184  1
  In  In24  1  0.63696721  0.14616795  0.17992695  1
  In  In25  1  -0.00662874  0.85453466  0.82354627  1
  In  In26  1  0.85042896  0.66936815  0.52397530  1
  In  In27  1  0.00413541  0.66589145  0.66469328  1
  In  In28  1  0.01748636  0.48353504  0.84060968  1
  In  In29  1  0.19882283  0.32520686  0.13922733  1
  In  In30  1  0.66889646  0.84105817  0.16737723  1
  In  In31  1  0.00127632  0.84297702  0.53594620  1
  In  In32  1  0.63372043  0.82380688  0.51739315  1
  In  In33  1  0.80529306  0.66814446  0.82436457  1
  In  In34  1  0.18977359  0.85626418  -0.01062389  1
  In  In35  1  0.81589108  0.83637970  -0.01091366  1
  In  In36  1  0.85644159  0.32359490  0.16820970  1
  In  In37  1  0.34951916  0.52048023  0.52860082  1
  In  In38  1  0.36253290  0.83660934  0.52090718  1
  In  In39  1  0.50849603  0.82666999  -0.02740759  1
  In  In40  1  0.18748060  0.49630719  0.67485750  1
  In  In41  1  -0.01006991  0.46837613  0.50854741  1
  In  In42  1  0.00248654  0.31537757  0.34174143  1
  In  In43  1  0.50776558  0.51124934  0.32681571  1
  In  In44  1  0.67359887  0.30695272  0.00150504  1
  In  In45  1  0.18462568  0.84000228  0.33095966  1
  In  In46  1  0.00903008  0.15181786  0.13837653  1
  In  In47  1  0.67840883  -0.03350270  -0.02701580  1
  In  In48  1  0.66860829  0.51270615  0.50710033  1
  In  In49  1  0.31881464  0.00750110  0.65932190  1
  In  In50  1  0.00400918  0.63792125  -0.00975066  1
  In  In51  1  0.50129239  0.00033197  0.49834306  1
  In  In52  1  0.34085880  0.49073484  0.18961250  1
  In  In53  1  0.66550972  0.15440757  0.80879329  1
  In  In54  1  0.85337643  0.19106982  0.67542729  1
  In  In55  1  0.50263262  0.32565050  0.50758472  1
  In  In56  1  0.48600171  0.16585189  0.33257972  1
  In  In57  1  0.49347009  0.51394493  0.00349109  1
  In  In58  1  0.47856623  0.35636004  0.84022721  1
  In  In59  1  -0.00430740  0.00805869  -0.02709539  1
  In  In60  1  0.82373068  0.15454037  0.34111929  1
  In  In61  1  0.34509274  -0.00778926  0.33776421  1
  In  In62  1  -0.01469380  0.67159359  0.34271841  1
  In  In63  1  0.33327085  0.15983348  0.14896684  1
  In  In64  1  0.84415642  0.11844333  -0.04238638  1
  In  In65  1  0.01559073  0.16815340  0.50642395  1
  In  In66  1  0.80105819  0.65820859  0.16957210  1
  In  In67  1  0.15179631  0.31175917  0.83558206  1
  In  In68  1  0.16323942  0.49138588  -0.00331199  1
  In  In69  1  0.84352280  0.49212973  -0.03373564  1
  In  In70  1  0.33049819  0.68971659  -0.00323507  1
  In  In71  1  0.46938207  0.15421751  0.00615768  1
  Te  Te72  1  0.09830913  0.04958154  0.07545319  1
  Te  Te73  1  0.07398696  0.07040737  0.41185573  1
  Te  Te74  1  0.09564409  0.07002601  0.78620262  1
  Te  Te75  1  0.07213254  0.37805811  0.04742218  1
  Te  Te76  1  0.09829366  0.38575706  0.43858949  1
  Te  Te77  1  0.07976628  0.40320393  0.72763954  1
  Te  Te78  1  0.09350492  0.74749010  0.06138269  1
  Te  Te79  1  0.08484060  0.75475617  0.42365399  1
  Te  Te80  1  0.08711692  0.75628784  0.75266250  1
  Te  Te81  1  0.41983942  0.04878792  0.09903815  1
  Te  Te82  1  0.40029467  0.09643705  0.43727982  1
  Te  Te83  1  0.39703544  0.08968236  0.76704367  1
  Te  Te84  1  0.41672357  0.40977975  0.08463867  1
  Te  Te85  1  0.41666198  0.42324510  0.41299546  1
  Te  Te86  1  0.41383484  0.41927211  0.72412918  1
  Te  Te87  1  0.42778709  0.76180640  0.07968642  1
  Te  Te88  1  0.43340931  0.75093786  0.42309293  1
  Te  Te89  1  0.44492539  0.72186956  0.72663593  1
  Te  Te90  1  0.73759874  0.08390221  0.07227504  1
  Te  Te91  1  0.73388997  0.06469196  0.41403817  1
  Te  Te92  1  0.76001361  0.06991888  0.72867019  1
  Te  Te93  1  0.75988990  0.41035991  0.07980109  1
  Te  Te94  1  0.75892680  0.41375895  0.44460537  1
  Te  Te95  1  0.74596268  0.42253516  0.76049851  1
  Te  Te96  1  0.72428081  0.74036763  0.06639198  1
  Te  Te97  1  0.75180985  0.73804179  0.42478384  1
  Te  Te98  1  0.72096111  0.77252804  0.76569212  1
  Te  Te99  1  0.08737496  0.25515316  0.22853833  1
  Te  Te100  1  0.06989746  0.25437475  0.61377374  1
  Te  Te101  1  0.08942185  0.24734911  0.95205634  1
  Te  Te102  1  0.07379592  0.59835359  0.23160792  1
  Te  Te103  1  0.08426585  0.58175555  0.56609936  1
  Te  Te104  1  0.11110588  0.59286529  0.89240790  1
  Te  Te105  1  0.09764127  0.93456754  0.25670355  1
  Te  Te106  1  0.08355714  0.94834097  0.59750610  1
  Te  Te107  1  0.10714049  0.94041120  0.88244044  1
  Te  Te108  1  0.40758722  0.25961480  0.23999196  1
  Te  Te109  1  0.40385124  0.25255974  0.58850765  1
  Te  Te110  1  0.39919224  0.24130072  0.90181991  1
  Te  Te111  1  0.41998195  0.60590492  0.24556436  1
  Te  Te112  1  0.42651270  0.61999927  0.60653673  1
  Te  Te113  1  0.43530817  0.61621452  0.90766050  1
  Te  Te114  1  0.41208393  0.87929158  0.26915550  1
  Te  Te115  1  0.44185864  0.92450217  0.61627616  1
  Te  Te116  1  0.39906913  0.89942645  0.89884514  1
  Te  Te117  1  0.74342946  0.24866217  0.24023787  1
  Te  Te118  1  0.74672139  0.23039981  0.58090285  1
  Te  Te119  1  0.75897487  0.23846543  0.89675407  1
  Te  Te120  1  0.74118763  0.56050014  0.26914346  1
  Te  Te121  1  0.73853242  0.60689996  0.60693666  1
  Te  Te122  1  0.72903837  0.58496315  0.92859275  1
  Te  Te123  1  0.74643669  0.93606215  0.25909846  1
  Te  Te124  1  0.74919188  0.90378225  0.57475190  1
  Te  Te125  1  0.79420495  0.93974119  0.87625763  1
  Te  Te126  1  0.22640659  0.20732213  0.03326723  1
  Te  Te127  1  0.24602438  0.23854752  0.44889219  1
  Te  Te128  1  0.25571343  0.24266543  0.75895989  1
  Te  Te129  1  0.25517800  0.57483188  0.08656110  1
  Te  Te130  1  0.25488970  0.58036528  0.40210207  1
  Te  Te131  1  0.25094573  0.61042561  0.74195898  1
  Te  Te132  1  0.26764446  0.94901051  0.07580297  1
  Te  Te133  1  0.25690788  0.91675649  0.43941440  1
  Te  Te134  1  0.28182184  0.91234891  0.76994602  1
  Te  Te135  1  0.56432424  0.24557752  0.08762087  1
  Te  Te136  1  0.59147060  0.24177024  0.41613831  1
  Te  Te137  1  0.57158783  0.26055346  0.75180371  1
  Te  Te138  1  0.56786890  0.60669237  0.09149784  1
  Te  Te139  1  0.57395703  0.60304380  0.42828986  1
  Te  Te140  1  0.55334971  0.60752974  0.73112140  1
  Te  Te141  1  0.57945813  0.92552888  0.07658820  1
  Te  Te142  1  0.57714874  0.90822685  0.41094844  1
  Te  Te143  1  0.59368641  0.89177859  0.77225656  1
  Te  Te144  1  0.89968683  0.22405038  0.06111611  1
  Te  Te145  1  0.90182561  0.24753267  0.43182899  1
  Te  Te146  1  0.91212014  0.26503824  0.78889671  1
  Te  Te147  1  0.90816110  0.57107378  0.08989599  1
  Te  Te148  1  0.90723962  0.56878980  0.42380723  1
  Te  Te149  1  0.91874622  0.57603495  0.75636599  1
  Te  Te150  1  0.92027739  0.91098846  0.07872956  1
  Te  Te151  1  0.93038151  0.91987208  0.42141319  1
  Te  Te152  1  0.89185991  0.93498153  0.75612505  1
  Te  Te153  1  0.25362048  0.08612370  0.25623742  1
  Te  Te154  1  0.22816352  0.08112459  0.56999267  1
  Te  Te155  1  0.24822767  0.06020394  0.97908321  1
  Te  Te156  1  0.22311205  0.42062043  0.25843706  1
  Te  Te157  1  0.25948470  0.41479403  0.57557919  1
  Te  Te158  1  0.25918801  0.43119445  0.89455556  1
  Te  Te159  1  0.28622881  0.80509063  0.21461612  1
  Te  Te160  1  0.26373011  0.75832127  0.60913823  1
  Te  Te161  1  0.25361090  0.76221298  0.89328081  1
  Te  Te162  1  0.55192791  0.05606962  0.25773581  1
  Te  Te163  1  0.59542842  0.09340798  0.57784878  1
  Te  Te164  1  0.58606936  0.08646136  0.92036470  1
  Te  Te165  1  0.57487702  0.40605931  0.23858414  1
  Te  Te166  1  0.57383053  0.43007809  0.59415178  1
  Te  Te167  1  0.59216500  0.41540934  0.92515499  1
  Te  Te168  1  0.56408427  0.77813342  0.25323720  1
  Te  Te169  1  0.54973284  0.74291188  0.61095088  1
  Te  Te170  1  0.61876562  0.77876455  0.88326971  1
  Te  Te171  1  0.92991049  0.08589318  0.25480647  1
  Te  Te172  1  0.93353221  0.08081570  0.60495865  1
  Te  Te173  1  0.95939999  0.10576551  0.85622438  1
  Te  Te174  1  0.91696510  0.42196165  0.26835807  1
  Te  Te175  1  0.91448587  0.38297205  0.60163782  1
  Te  Te176  1  0.91914197  0.38300856  0.89658054  1
  Te  Te177  1  0.90355150  0.75710379  0.23254430  1
  Te  Te178  1  0.90052809  0.77187078  0.62581690  1
  Te  Te179  1  0.91817955  0.74000583  0.91373287  1
