# generated using pymatgen
data_In2Te3
_symmetry_space_group_name_H-M   'P 1'
_cell_length_a   18.88697381
_cell_length_b   18.88324608
_cell_length_c   18.87200270
_cell_angle_alpha   89.85296699
_cell_angle_beta   89.81789586
_cell_angle_gamma   90.01297690
_symmetry_Int_Tables_number   1
_chemical_formula_structural   In2Te3
_chemical_formula_sum   'In72 Te108'
_cell_volume   6730.59386391
_cell_formula_units_Z   36
loop_
 _symmetry_equiv_pos_site_id
 _symmetry_equiv_pos_as_xyz
  1  'x, y, z'
loop_
 _atom_site_type_symbol
 _atom_site_label
 _atom_site_symmetry_multiplicity
 _atom_site_fract_x
 _atom_site_fract_y
 _atom_site_fract_z
 _atom_site_occupancy
  In  In0  1  0.35563338  0.52671755  0.20754389  1
  In  In1  1  0.15987019  0.50978931  0.32951092  1
  In  In2  1  0.34649895  -0.00268925  0.01481094  1
  In  In3  1  0.86733027  -0.01009073  0.51831456  1
  In  In4  1  0.81325642  0.79159908  0.31356032  1
  In  In5  1  0.67139005  0.52839662  0.18935895  1
  In  In6  1  0.32055697  0.82265992  0.86779897  1
  In  In7  1  0.05716071  0.83085611  0.16233067  1
  In  In8  1  0.66167126  0.85295169  0.85514946  1
  In  In9  1  0.12369065  0.33480306  0.77414376  1
  In  In10  1  0.52359329  0.51377796  0.01304970  1
  In  In11  1  0.66376314  0.16495626  0.50887164  1
  In  In12  1  0.32529810  0.83299866  0.46244217  1
  In  In13  1  0.85856731  0.15053067  0.33829194  1
  In  In14  1  0.50871932  0.68527939  0.84610688  1
  In  In15  1  -0.01358479  0.01098594  -0.00017073  1
  In  In16  1  0.83350480  0.34452013  0.49371620  1
  In  In17  1  0.68145857  0.81499705  0.47417684  1
  In  In18  1  0.49123145  0.17294095  0.33173539  1
  In  In19  1  0.15765288  0.30907516  0.17690618  1
  In  In20  1  0.16866154  0.18232449  -0.01192319  1
  In  In21  1  0.16261354  0.82332038  0.64855061  1
  In  In22  1  -0.01027581  0.32869597  -0.01784253  1
  In  In23  1  0.51322145  0.83847523  0.64564474  1
  In  In24  1  0.83903488  0.33836855  0.15210019  1
  In  In25  1  0.17910334  0.52067533  0.00017945  1
  In  In26  1  0.53368285  0.80867373  0.30286308  1
  In  In27  1  0.16023541  0.15464262  0.66762944  1
  In  In28  1  0.81735289  0.81624243  0.02687511  1
  In  In29  1  0.30631592  0.49776334  0.83017859  1
  In  In30  1  0.33241050  0.17169267  0.50464645  1
  In  In31  1  0.33131297  0.65762918  0.66795873  1
  In  In32  1  0.83663165  0.01145427  0.17973447  1
  In  In33  1  0.67411508  0.35447808  0.32631078  1
  In  In34  1  0.32061341  0.00043592  0.33226495  1
  In  In35  1  -0.00539257  0.65250202  0.63812286  1
  In  In36  1  0.84400841  0.48305918  0.67271891  1
  In  In37  1  0.34095418  0.51105905  0.45663499  1
  In  In38  1  0.15699930  0.00232913  0.83302521  1
  In  In39  1  0.83646864  0.17865477  -0.00552156  1
  In  In40  1  -0.00387412  0.66413708  0.34368990  1
  In  In41  1  0.66667139  -0.01942123  0.33892798  1
  In  In42  1  0.17954642  -0.00146624  0.17192548  1
  In  In43  1  0.49269728  0.83098550  0.02742274  1
  In  In44  1  -0.01782837  0.84925463  0.85055397  1
  In  In45  1  0.49277005  0.48184376  0.63545852  1
  In  In46  1  0.64800934  0.66802429  0.66329138  1
  In  In47  1  0.83768518  0.66877714  0.48669433  1
  In  In48  1  0.51742346  0.16745561  0.00220728  1
  In  In49  1  0.48546053  0.16421549  0.66028062  1
  In  In50  1  0.63907825  0.51740069  0.48705963  1
  In  In51  1  0.83823801  0.48678842  -0.00490620  1
  In  In52  1  0.50910583  0.32043744  0.82707983  1
  In  In53  1  0.67368891  0.02271652  0.67011517  1
  In  In54  1  0.51636927  -0.00729236  0.16057372  1
  In  In55  1  0.83520526  0.67751582  0.85680821  1
  In  In56  1  0.34577960  0.32750121  0.34358650  1
  In  In57  1  0.31331176  0.31694876  0.65515680  1
  In  In58  1  0.67538099  0.17169525  0.85187345  1
  In  In59  1  0.16951300  0.33782499  0.50711822  1
  In  In60  1  0.33468806  0.67144812  0.01409574  1
  In  In61  1  -0.01179690  0.48811990  0.15664018  1
  In  In62  1  0.32558668  0.01243178  0.66265727  1
  In  In63  1  -0.00259013  0.33105028  0.30993179  1
  In  In64  1  0.68843559  0.50227961  0.82421851  1
  In  In65  1  0.34272579  0.34816816  -0.00820854  1
  In  In66  1  0.13596125  0.66180399  0.84220537  1
  In  In67  1  0.85571267  0.19676734  0.69547333  1
  In  In68  1  0.01024087  0.86932996  0.47557745  1
  In  In69  1  0.83958601  0.85167601  0.68782670  1
  In  In70  1  0.67293361  0.18200573  0.14184015  1
  In  In71  1  0.29862731  0.81106224  0.21874463  1
  Te  Te72  1  0.09323953  0.08592725  0.07800039  1
  Te  Te73  1  0.00826054  0.02824022  0.46967674  1
  Te  Te74  1  0.06257285  0.08118850  0.75334838  1
  Te  Te75  1  0.09217138  0.40626991  0.07690410  1
  Te  Te76  1  0.07687137  0.41409571  0.41082540  1
  Te  Te77  1  0.06716100  0.44017119  0.68373716  1
  Te  Te78  1  0.12385750  0.73181067  0.07920100  1
  Te  Te79  1  0.08799322  0.74923769  0.42586808  1
  Te  Te80  1  0.06132265  0.75600078  0.74566564  1
  Te  Te81  1  0.42219965  0.09529778  0.10093327  1
  Te  Te82  1  0.41790870  0.07613774  0.42337400  1
  Te  Te83  1  0.41110659  0.08281700  0.75702006  1
  Te  Te84  1  0.41166556  0.44279758  0.08814317  1
  Te  Te85  1  0.44482672  0.41628499  0.41043260  1
  Te  Te86  1  0.40615796  0.41308307  0.75126267  1
  Te  Te87  1  0.40433550  0.74974317  0.12121960  1
  Te  Te88  1  0.42770276  0.74512820  0.39282422  1
  Te  Te89  1  0.41855433  0.75763134  0.74527950  1
  Te  Te90  1  0.75162261  0.07460431  0.07063207  1
  Te  Te91  1  0.75273982  0.07247276  0.42569583  1
  Te  Te92  1  0.77120066  0.08589303  0.76409636  1
  Te  Te93  1  0.73399391  0.42624363  0.08981070  1
  Te  Te94  1  0.75464445  0.44960142  0.41339618  1
  Te  Te95  1  0.74776168  0.39611203  0.74367345  1
  Te  Te96  1  0.75444585  0.71778832  0.12541312  1
  Te  Te97  1  0.72139664  0.69344551  0.38937170  1
  Te  Te98  1  0.73706058  0.75022129  0.75417817  1
  Te  Te99  1  0.08026487  0.21780449  0.26286577  1
  Te  Te100  1  0.08092799  0.25749026  0.59549165  1
  Te  Te101  1  0.06986365  0.23905158  0.88759406  1
  Te  Te102  1  0.07351097  0.58742689  0.23317806  1
  Te  Te103  1  0.08563768  0.55496777  0.58102708  1
  Te  Te104  1  0.06602010  0.55314761  0.91295882  1
  Te  Te105  1  0.10493467  0.91713326  0.27356651  1
  Te  Te106  1  0.07537868  0.93048660  0.59697981  1
  Te  Te107  1  0.08880057  0.91489864  0.93682477  1
  Te  Te108  1  0.42241259  0.26074486  0.23737417  1
  Te  Te109  1  0.42852735  0.27069728  0.56689857  1
  Te  Te110  1  0.41322874  0.23996899  0.91155620  1
  Te  Te111  1  0.43125453  0.61974021  0.29541911  1
  Te  Te112  1  0.42126822  0.59278808  0.56329523  1
  Te  Te113  1  0.40595013  0.58315763  0.91156506  1
  Te  Te114  1  0.42350111  0.91209454  0.25111025  1
  Te  Te115  1  0.39842783  0.90994703  0.57615440  1
  Te  Te116  1  0.42892192  0.91543617  0.91471472  1
  Te  Te117  1  0.76461080  0.24433090  0.25678819  1
  Te  Te118  1  0.75711039  0.25219546  0.58842287  1
  Te  Te119  1  0.73893313  0.27243953  0.93777670  1
  Te  Te120  1  0.78349593  0.61235729  0.23682887  1
  Te  Te121  1  0.75396242  0.58583795  0.59296420  1
  Te  Te122  1  0.73741264  0.59162872  0.93517471  1
  Te  Te123  1  0.74229587  0.90361625  0.23459986  1
  Te  Te124  1  0.73456376  0.90751831  0.58470411  1
  Te  Te125  1  0.78635011  0.90464683  0.91213576  1
  Te  Te126  1  0.26377257  0.25208666  0.08339257  1
  Te  Te127  1  0.23758267  0.24170945  0.40872116  1
  Te  Te128  1  0.24599940  0.23794057  0.76252793  1
  Te  Te129  1  0.25069612  0.59154664  0.11499479  1
  Te  Te130  1  0.24454766  0.61217494  0.39991792  1
  Te  Te131  1  0.22009540  0.58276167  0.73997203  1
  Te  Te132  1  0.26444247  0.89850711  0.09389450  1
  Te  Te133  1  0.21867317  0.92192003  0.40787162  1
  Te  Te134  1  0.25016282  0.89779957  0.75449586  1
  Te  Te135  1  0.57415254  0.27385908  0.08752200  1
  Te  Te136  1  0.59145525  0.25665904  0.41216854  1
  Te  Te137  1  0.59484501  0.23791462  0.73566075  1
  Te  Te138  1  0.56587908  0.61126569  0.11608261  1
  Te  Te139  1  0.55478827  0.55219110  0.36742647  1
  Te  Te140  1  0.56233565  0.57673011  0.75157275  1
  Te  Te141  1  0.60421917  0.91737210  0.07079846  1
  Te  Te142  1  0.56837088  0.90419023  0.42261665  1
  Te  Te143  1  0.58121011  0.92708112  0.74921039  1
  Te  Te144  1  0.93675457  0.23985118  0.09361681  1
  Te  Te145  1  0.93246655  0.24971375  0.42457567  1
  Te  Te146  1  0.92928733  0.29402105  0.77871948  1
  Te  Te147  1  0.92114102  0.58377266  0.06741653  1
  Te  Te148  1  0.93345364  0.56873680  0.43847169  1
  Te  Te149  1  0.91273729  0.59507124  0.75545366  1
  Te  Te150  1  0.92409009  0.91087060  0.09889380  1
  Te  Te151  1  0.88749280  0.90295754  0.39033969  1
  Te  Te152  1  0.93926927  0.94386728  0.74431524  1
  Te  Te153  1  0.26093852  0.09895087  0.24222852  1
  Te  Te154  1  0.23112449  0.07244689  0.56054160  1
  Te  Te155  1  0.25674748  0.07695310  0.91994964  1
  Te  Te156  1  0.24942750  0.41498310  0.24834172  1
  Te  Te157  1  0.26714360  0.43404293  0.57256258  1
  Te  Te158  1  0.22367516  0.39745616  0.90670579  1
  Te  Te159  1  0.20710798  0.73721884  0.31081848  1
  Te  Te160  1  0.25287899  0.73709521  0.56473423  1
  Te  Te161  1  0.21110364  0.74652353  0.94751890  1
  Te  Te162  1  0.60195217  0.08963761  0.25247893  1
  Te  Te163  1  0.56559761  0.06794635  0.57227626  1
  Te  Te164  1  0.59398271  0.07105927  0.92255787  1
  Te  Te165  1  0.56965277  0.43491097  0.25546261  1
  Te  Te166  1  0.61024723  0.41220782  0.58549746  1
  Te  Te167  1  0.58678158  0.42010763  0.91120703  1
  Te  Te168  1  0.61536057  0.74455275  0.19641801  1
  Te  Te169  1  0.57159072  0.73400847  0.55153350  1
  Te  Te170  1  0.59891023  0.74767755  0.94719729  1
  Te  Te171  1  0.94902046  0.07961177  0.24630248  1
  Te  Te172  1  0.91817507  0.11211988  0.58676279  1
  Te  Te173  1  0.91804061  0.09699160  0.90300345  1
  Te  Te174  1  0.89302115  0.43013838  0.26024774  1
  Te  Te175  1  0.93666020  0.40168654  0.58769856  1
  Te  Te176  1  0.90744816  0.40812175  0.88430622  1
  Te  Te177  1  0.94120283  0.75874491  0.23807610  1
  Te  Te178  1  0.90860513  0.76996233  0.57666507  1
  Te  Te179  1  0.93366869  0.74345598  0.94991788  1
