# generated using pymatgen
data_In2Te3
_symmetry_space_group_name_H-M   'P 1'
_cell_length_a   18.95574681
_cell_length_b   18.92534302
_cell_length_c   18.94023675
_cell_angle_alpha   89.95569350
_cell_angle_beta   89.97710853
_cell_angle_gamma   90.15714872
_symmetry_Int_Tables_number   1
_chemical_formula_structural   In2Te3
_chemical_formula_sum   'In72 Te108'
_cell_volume   6794.66835771
_cell_formula_units_Z   36
loop_
 _symmetry_equiv_pos_site_id
 _symmetry_equiv_pos_as_xyz
  1  'x, y, z'
loop_
 _atom_site_type_symbol
 _atom_site_label
 _atom_site_symmetry_multiplicity
 _atom_site_fract_x
 _atom_site_fract_y
 _atom_site_fract_z
 _atom_site_occupancy
  In  In0  1  -0.03645971  0.51586083  0.16442323  1
  In  In1  1  0.52943651  0.66490894  0.16907499  1
  In  In2  1  0.04685496  0.51733945  0.50391240  1
  In  In3  1  -0.01962166  0.46714711  0.81832737  1
  In  In4  1  0.00188496  0.31503823  0.64948031  1
  In  In5  1  0.84662943  0.51230196  0.31442343  1
  In  In6  1  0.35684697  0.50881620  0.17381941  1
  In  In7  1  0.18950849  0.68822904  0.19755282  1
  In  In8  1  0.16331390  0.15994979  0.67767448  1
  In  In9  1  0.64282681  0.36217025  -0.02121166  1
  In  In10  1  0.66239217  0.80664887  0.49232782  1
  In  In11  1  0.33370879  0.33005512  0.65099423  1
  In  In12  1  0.37209202  0.32858927  0.00598907  1
  In  In13  1  0.01616659  0.14717521  0.51833967  1
  In  In14  1  0.18388183  0.84300820  0.66246643  1
  In  In15  1  -0.01772961  0.17779156  0.17272124  1
  In  In16  1  0.52441964  0.82119241  -0.00032669  1
  In  In17  1  0.49958352  -0.01958513  0.14736598  1
  In  In18  1  0.66268652  0.34424404  0.30886441  1
  In  In19  1  0.48679356  0.83466603  0.66598802  1
  In  In20  1  -0.03021463  -0.01612847  -0.05334424  1
  In  In21  1  0.77567392  0.67476498  0.14564763  1
  In  In22  1  0.80689104  0.30744156  0.83843977  1
  In  In23  1  0.21030092  0.50255788  0.64390136  1
  In  In24  1  0.64219201  0.64597002  0.68614849  1
  In  In25  1  0.82023869  0.84170852  0.31888027  1
  In  In26  1  0.18075315  0.13841715  0.00419370  1
  In  In27  1  0.67882789  0.02136272  0.68573919  1
  In  In28  1  0.59191438  0.50471416  0.45130824  1
  In  In29  1  0.16904240  0.49444120  0.34542380  1
  In  In30  1  0.69767606  0.16965433  0.49998892  1
  In  In31  1  0.83601079  0.87968261  0.70362454  1
  In  In32  1  0.15027191  0.50601337  -0.00877756  1
  In  In33  1  0.49509886  0.35760144  0.17868310  1
  In  In34  1  0.14691552  0.67535937  0.82508067  1
  In  In35  1  0.15762670  0.35391998  0.17363059  1
  In  In36  1  0.15180852  0.33000161  0.84135396  1
  In  In37  1  0.80248083  0.49238823  0.65214914  1
  In  In38  1  0.83005890  0.32842670  0.49654803  1
  In  In39  1  0.49701605  0.04094295  0.81597941  1
  In  In40  1  0.36864605  0.49274610  0.84371050  1
  In  In41  1  0.32694811  0.81369609  0.82607067  1
  In  In42  1  0.32808903  -0.01132248  0.00165851  1
  In  In43  1  0.00735585  0.68099783  0.33382064  1
  In  In44  1  0.37858592  0.52533296  0.47271227  1
  In  In45  1  0.17042392  -0.00141962  0.84217778  1
  In  In46  1  0.01361317  0.82970425  0.17617199  1
  In  In47  1  -0.02312657  0.31781797  -0.02682441  1
  In  In48  1  0.52341447  -0.02060429  0.49487666  1
  In  In49  1  0.33934483  0.17254628  0.49647119  1
  In  In50  1  0.51107740  0.17474430  -0.02377521  1
  In  In51  1  0.34173755  0.83285375  0.19845242  1
  In  In52  1  0.19283765  -0.01964958  0.49150676  1
  In  In53  1  0.82833406  0.00058519  0.14712144  1
  In  In54  1  0.33742693  0.64921039  0.65013042  1
  In  In55  1  0.83251619  0.13972509  0.34027032  1
  In  In56  1  0.18448970  0.15475527  0.34272480  1
  In  In57  1  0.17131092  0.70392451  0.50010478  1
  In  In58  1  0.68285055  0.83644003  0.83990737  1
  In  In59  1  0.80424370  0.65317761  0.84728830  1
  In  In60  1  0.32985154  0.66743103  -0.00699771  1
  In  In61  1  0.84556217  0.67506296  0.53324405  1
  In  In62  1  0.81984046  0.34468399  0.13849777  1
  In  In63  1  0.82233605  0.14718983  0.70381036  1
  In  In64  1  0.67459481  0.15413666  0.14619429  1
  In  In65  1  0.62406826  0.32764596  0.68726916  1
  In  In66  1  0.82531203  -0.00297540  0.49317963  1
  In  In67  1  -0.04645742  0.69617643  0.01928941  1
  In  In68  1  0.16756735  -0.01018938  0.19089792  1
  In  In69  1  0.50987007  0.17620240  0.32937104  1
  In  In70  1  0.31200813  0.16668660  0.17295678  1
  In  In71  1  -0.01329678  0.69652361  0.68708737  1
  Te  Te72  1  0.08318694  0.08264743  0.10462181  1
  Te  Te73  1  0.08499424  0.06547259  0.41350971  1
  Te  Te74  1  0.07694816  0.07259000  0.75662164  1
  Te  Te75  1  0.05550661  0.41341492  0.06947233  1
  Te  Te76  1  0.07179620  0.40727433  0.41211789  1
  Te  Te77  1  0.09932983  0.42211839  0.72896464  1
  Te  Te78  1  0.08226582  0.72439457  0.08938874  1
  Te  Te79  1  0.05655171  0.77089596  0.43815726  1
  Te  Te80  1  0.07564090  0.79315276  0.76235318  1
  Te  Te81  1  0.40943327  0.09391062  0.08204042  1
  Te  Te82  1  0.43361845  0.08154295  0.41841263  1
  Te  Te83  1  0.45812525  0.14145323  0.71633691  1
  Te  Te84  1  0.44454380  0.44797572  0.06617417  1
  Te  Te85  1  0.47133672  0.43910385  0.39147593  1
  Te  Te86  1  0.41989663  0.43845802  0.71474973  1
  Te  Te87  1  0.41586024  0.75075481  0.08931429  1
  Te  Te88  1  0.41563462  0.66127024  0.41140450  1
  Te  Te89  1  0.42382654  0.72511825  0.75281582  1
  Te  Te90  1  0.73656869  0.06364268  0.05015099  1
  Te  Te91  1  0.72109849  0.05678036  0.39996382  1
  Te  Te92  1  0.74448409  0.07337800  0.80931520  1
  Te  Te93  1  0.71156006  0.43046735  0.09073192  1
  Te  Te94  1  0.75604765  0.42235394  0.40568794  1
  Te  Te95  1  0.73157635  0.41898051  0.76218108  1
  Te  Te96  1  0.73272681  0.78621613  0.05723048  1
  Te  Te97  1  0.76941569  0.73202272  0.41510770  1
  Te  Te98  1  0.75090007  0.74621848  0.72937453  1
  Te  Te99  1  0.09093906  0.24484653  0.25454949  1
  Te  Te100  1  0.11159580  0.25531345  0.56734953  1
  Te  Te101  1  0.08051389  0.22132225  0.92006860  1
  Te  Te102  1  0.08020843  0.57270919  0.24450204  1
  Te  Te103  1  0.09679713  0.61297140  0.61181352  1
  Te  Te104  1  0.05376239  0.57856553  0.89989737  1
  Te  Te105  1  0.09199229  0.89847342  0.27886219  1
  Te  Te106  1  0.09228984  0.92583397  0.58473378  1
  Te  Te107  1  0.10230395  0.92238709  0.94769615  1
  Te  Te108  1  0.40735218  0.25716196  0.25160000  1
  Te  Te109  1  0.43629349  0.24670668  0.58313044  1
  Te  Te110  1  0.44741232  0.27719570  0.88916645  1
  Te  Te111  1  0.40857425  0.62216379  0.25488950  1
  Te  Te112  1  0.44423247  0.55466843  0.60694239  1
  Te  Te113  1  0.43610093  0.59588425  0.92331650  1
  Te  Te114  1  0.44538023  0.91164081  0.26653590  1
  Te  Te115  1  0.42008632  0.94067572  0.59153647  1
  Te  Te116  1  0.41580385  0.89590691  0.92016998  1
  Te  Te117  1  0.76098957  0.23975944  0.24910949  1
  Te  Te118  1  0.75809335  0.25766800  0.61103543  1
  Te  Te119  1  0.70859637  0.24222151  0.92490678  1
  Te  Te120  1  0.73387403  0.57835956  0.24907013  1
  Te  Te121  1  0.72420862  0.58669361  0.56584975  1
  Te  Te122  1  0.68977165  0.61411343  0.93384929  1
  Te  Te123  1  0.73380893  0.91792687  0.22777935  1
  Te  Te124  1  0.73274330  0.91152197  0.58657372  1
  Te  Te125  1  0.77889889  0.87757755  0.94296864  1
  Te  Te126  1  0.24164669  0.26831748  0.07636156  1
  Te  Te127  1  0.26656338  0.25949554  0.40247510  1
  Te  Te128  1  0.25274813  0.25447037  0.75759148  1
  Te  Te129  1  0.24381147  0.57428115  0.09013807  1
  Te  Te130  1  0.24788438  0.59875511  0.42106794  1
  Te  Te131  1  0.25432442  0.58237623  0.77191779  1
  Te  Te132  1  0.24958283  0.90150486  0.09798017  1
  Te  Te133  1  0.27441021  0.88721308  0.41525985  1
  Te  Te134  1  0.27229455  0.93188723  0.75000328  1
  Te  Te135  1  0.57165495  0.25711803  0.09546767  1
  Te  Te136  1  0.60213020  0.25729877  0.41865324  1
  Te  Te137  1  0.58070305  0.21164263  0.77041629  1
  Te  Te138  1  0.62742947  0.60061167  0.07650897  1
  Te  Te139  1  0.56675241  0.64334898  0.38856310  1
  Te  Te140  1  0.60740123  0.53845876  0.78374932  1
  Te  Te141  1  0.60868244  0.88136750  0.10852538  1
  Te  Te142  1  0.57471003  0.87869620  0.39715470  1
  Te  Te143  1  0.57946942  0.91959264  0.75472933  1
  Te  Te144  1  0.89088505  0.23147307  0.06402654  1
  Te  Te145  1  0.91979937  0.22854589  0.42719366  1
  Te  Te146  1  0.92742247  0.24895969  0.75983626  1
  Te  Te147  1  0.87230011  0.57791496  0.06310292  1
  Te  Te148  1  0.92817522  0.58431295  0.43379780  1
  Te  Te149  1  0.90310496  0.57839610  0.73863908  1
  Te  Te150  1  0.93095272  0.90984820  0.07914429  1
  Te  Te151  1  0.91088357  0.91273929  0.41040275  1
  Te  Te152  1  0.91867759  0.95831382  0.80008637  1
  Te  Te153  1  0.27790678  0.05731852  0.27073396  1
  Te  Te154  1  0.25681554  0.08286530  0.58698425  1
  Te  Te155  1  0.28259956  0.09513835  0.90346939  1
  Te  Te156  1  0.26719982  0.41797332  0.25769673  1
  Te  Te157  1  0.27599227  0.41877140  0.54124227  1
  Te  Te158  1  0.25143563  0.41619486  0.92169451  1
  Te  Te159  1  0.24110890  0.78452979  0.30284252  1
  Te  Te160  1  0.28615658  0.77022716  0.57432523  1
  Te  Te161  1  0.22711034  0.75648235  0.92621223  1
  Te  Te162  1  0.58025303  0.07869910  0.23766142  1
  Te  Te163  1  0.59740784  0.08864014  0.57883863  1
  Te  Te164  1  0.57021782  0.04481297  0.94233037  1
  Te  Te165  1  0.57330129  0.45479810  0.26093227  1
  Te  Te166  1  0.59854465  0.41294203  0.56899363  1
  Te  Te167  1  0.55588096  0.42486614  0.87688888  1
  Te  Te168  1  0.60279715  0.73682230  0.27503996  1
  Te  Te169  1  0.56529957  0.73400372  0.58493387  1
  Te  Te170  1  0.58575866  0.73566125  0.89406934  1
  Te  Te171  1  0.92626361  0.06171555  0.25290812  1
  Te  Te172  1  0.90560195  0.07661855  0.59538181  1
  Te  Te173  1  0.88436410  0.08789491  0.88600958  1
  Te  Te174  1  0.91738239  0.39597470  0.24537237  1
  Te  Te175  1  0.92144826  0.42356318  0.57954654  1
  Te  Te176  1  0.87906335  0.42046353  0.91945465  1
  Te  Te177  1  0.90423322  0.73371000  0.23525058  1
  Te  Te178  1  0.91377816  0.79429477  0.59857488  1
  Te  Te179  1  0.89833850  0.75757593  0.89805771  1
