# generated using pymatgen
data_In2Te3
_symmetry_space_group_name_H-M   'P 1'
_cell_length_a   19.01870868
_cell_length_b   19.01545251
_cell_length_c   18.99933731
_cell_angle_alpha   90.11109681
_cell_angle_beta   89.93001830
_cell_angle_gamma   89.91913125
_symmetry_Int_Tables_number   1
_chemical_formula_structural   In2Te3
_chemical_formula_sum   'In72 Te108'
_cell_volume   6871.07311249
_cell_formula_units_Z   36
loop_
 _symmetry_equiv_pos_site_id
 _symmetry_equiv_pos_as_xyz
  1  'x, y, z'
loop_
 _atom_site_type_symbol
 _atom_site_label
 _atom_site_symmetry_multiplicity
 _atom_site_fract_x
 _atom_site_fract_y
 _atom_site_fract_z
 _atom_site_occupancy
  In  In0  1  0.14351697  0.00272189  0.50863649  1
  In  In1  1  0.01198096  0.78576990  0.83517815  1
  In  In2  1  0.48312698  -0.01706361  0.82497313  1
  In  In3  1  0.64821428  0.17789292  0.16016710  1
  In  In4  1  0.67031599  0.49663757  0.53170076  1
  In  In5  1  0.66987573  0.84446098  0.83690830  1
  In  In6  1  0.02432146  0.30089243  0.30264668  1
  In  In7  1  0.86698396  0.16951985  0.00558185  1
  In  In8  1  0.17587017  0.85278734  0.33077465  1
  In  In9  1  0.85959148  0.02138851  0.49937272  1
  In  In10  1  0.83469215  0.65933293  0.85082394  1
  In  In11  1  0.49408723  0.48969190  0.66415049  1
  In  In12  1  0.48405491  0.82891856  -0.03052052  1
  In  In13  1  0.31413792  0.14435589  0.82639460  1
  In  In14  1  0.34992675  0.49356807  0.15248515  1
  In  In15  1  0.16644879  0.52578902  0.68590953  1
  In  In16  1  0.29555649  0.83240081  0.52037543  1
  In  In17  1  0.83525957  0.52508641  0.32277988  1
  In  In18  1  0.46821875  0.64974264  0.82278560  1
  In  In19  1  0.34673866  0.34880743  -0.00283099  1
  In  In20  1  0.65539363  0.66808935  0.66070348  1
  In  In21  1  0.82833583  0.85728139  0.33452223  1
  In  In22  1  0.01305871  0.33252136  0.64707321  1
  In  In23  1  0.00277165  0.85927933  0.18678261  1
  In  In24  1  0.18424206  0.64944621  0.16599000  1
  In  In25  1  0.31298911  0.51361751  0.84689850  1
  In  In26  1  0.17231597  0.82927041  0.00366932  1
  In  In27  1  0.17669369  0.31675938  0.83855406  1
  In  In28  1  0.85650992  0.82859568  0.65039487  1
  In  In29  1  -0.00223607  0.50714581  0.85800409  1
  In  In30  1  0.64190177  0.31696315  -0.02307978  1
  In  In31  1  0.86227704  0.31876673  0.47563463  1
  In  In32  1  0.66506378  0.18342222  0.80934396  1
  In  In33  1  0.15353242  0.65764887  0.51005878  1
  In  In34  1  0.83916058  -0.00411513  0.18330631  1
  In  In35  1  0.66897322  0.62941470  0.30897286  1
  In  In36  1  0.65841613  0.35551844  0.33006224  1
  In  In37  1  0.51080619  0.49386811  0.31689568  1
  In  In38  1  -0.01581230  0.64500031  0.03782740  1
  In  In39  1  0.81837697  0.00008087  0.84828138  1
  In  In40  1  0.31601621  0.82592545  0.82506698  1
  In  In41  1  0.02495134  0.35540048  0.04064264  1
  In  In42  1  0.65954528  0.00678714  0.66931536  1
  In  In43  1  0.02815338  0.66710627  0.31655122  1
  In  In44  1  0.50716494  0.34802005  0.49519330  1
  In  In45  1  0.86760574  0.33848355  0.82909512  1
  In  In46  1  0.00247416  0.00949524  0.68404005  1
  In  In47  1  0.49692767  0.01080763  0.14453055  1
  In  In48  1  0.29604033  0.27146251  0.24639057  1
  In  In49  1  0.48428994  0.01772592  0.49698284  1
  In  In50  1  0.67862147  0.82749316  0.48274565  1
  In  In51  1  0.32587876  0.84252316  0.15198685  1
  In  In52  1  0.30677918  0.19213462  0.46393709  1
  In  In53  1  0.47840603  0.82884917  0.37159464  1
  In  In54  1  0.14510055  0.16267923  0.64748459  1
  In  In55  1  0.65255901  -0.00098526  0.01975498  1
  In  In56  1  0.31116702  0.51198296  0.50139194  1
  In  In57  1  0.81920432  0.35286120  0.16955281  1
  In  In58  1  0.33216293  -0.00807885  0.66829075  1
  In  In59  1  0.02313094  0.00517374  0.00436521  1
  In  In60  1  0.33575106  0.03121560  0.30246498  1
  In  In61  1  0.69455886  0.16408587  0.50792477  1
  In  In62  1  0.16883411  0.18103979  0.01539219  1
  In  In63  1  0.00600070  0.02054097  0.34430033  1
  In  In64  1  0.83490124  0.48682074  0.67790118  1
  In  In65  1  0.69213287  0.68357144  0.01670897  1
  In  In66  1  0.49998162  0.67030231  0.17240859  1
  In  In67  1  0.33813716  0.34461530  0.63529657  1
  In  In68  1  0.66854313  0.50309881  0.18667748  1
  In  In69  1  0.87773462  0.67774308  0.48714796  1
  In  In70  1  0.47388032  0.65441838  0.50914341  1
  In  In71  1  0.47432080  0.13728930  -0.03193439  1
  Te  Te72  1  0.07238002  0.10452256  0.10353914  1
  Te  Te73  1  0.09430092  0.10929920  0.42260031  1
  Te  Te74  1  0.09948017  0.08804549  0.76430077  1
  Te  Te75  1  0.11556711  0.42408320  0.13590665  1
  Te  Te76  1  0.10378594  0.35688677  0.41449282  1
  Te  Te77  1  0.08414437  0.41318593  0.76465689  1
  Te  Te78  1  0.08198979  0.75511999  0.10912502  1
  Te  Te79  1  0.08914927  0.76525001  0.41431404  1
  Te  Te80  1  0.11826949  0.72985106  0.75082846  1
  Te  Te81  1  0.39095970  0.07911485  0.07311965  1
  Te  Te82  1  0.42189695  0.11202851  0.39629316  1
  Te  Te83  1  0.42542736  0.09052124  0.73731149  1
  Te  Te84  1  0.44865044  0.43626977  0.05708265  1
  Te  Te85  1  0.41325094  0.43372170  0.41695008  1
  Te  Te86  1  0.39247518  0.42105648  0.75306406  1
  Te  Te87  1  0.41240634  0.74488701  0.07438581  1
  Te  Te88  1  0.37450690  0.73542493  0.43018575  1
  Te  Te89  1  0.41537858  0.75640959  0.74166517  1
  Te  Te90  1  0.75675250  0.09165896  0.08100441  1
  Te  Te91  1  0.74870990  0.06428539  0.41609794  1
  Te  Te92  1  0.76451378  0.09024863  0.73842882  1
  Te  Te93  1  0.71721224  0.40933168  0.07542246  1
  Te  Te94  1  0.75308604  0.43527729  0.41849437  1
  Te  Te95  1  0.75468506  0.41665735  0.77675887  1
  Te  Te96  1  0.74955244  0.73296002  0.14014115  1
  Te  Te97  1  0.75574938  0.72494861  0.40090157  1
  Te  Te98  1  0.75121842  0.75232437  0.74527458  1
  Te  Te99  1  0.10729179  0.21182038  0.21748720  1
  Te  Te100  1  0.08516481  0.25068546  0.54312878  1
  Te  Te101  1  0.07055691  0.25958183  0.92969289  1
  Te  Te102  1  0.07881254  0.55729096  0.22329079  1
  Te  Te103  1  0.06712360  0.56706778  0.58768245  1
  Te  Te104  1  0.08190104  0.58505465  0.94711177  1
  Te  Te105  1  0.10289364  0.95427282  0.24676211  1
  Te  Te106  1  0.08087022  0.91431248  0.60408927  1
  Te  Te107  1  0.07971318  0.90140678  0.90782489  1
  Te  Te108  1  0.44095282  0.27013163  0.26112684  1
  Te  Te109  1  0.41773261  0.24359732  0.55970536  1
  Te  Te110  1  0.40053270  0.24728006  0.89532823  1
  Te  Te111  1  0.41035388  0.58956268  0.26239005  1
  Te  Te112  1  0.38866181  0.58506179  0.61104027  1
  Te  Te113  1  0.42453466  0.56193648  0.93089913  1
  Te  Te114  1  0.42118917  0.91054620  0.25673835  1
  Te  Te115  1  0.41796558  0.90717406  0.57665684  1
  Te  Te116  1  0.38541499  0.93158992  0.92367143  1
  Te  Te117  1  0.74090474  0.25357357  0.25303275  1
  Te  Te118  1  0.76836929  0.27017216  0.57552250  1
  Te  Te119  1  0.76347212  0.23662844  0.91772580  1
  Te  Te120  1  0.80097537  0.59240830  0.18388020  1
  Te  Te121  1  0.76917091  0.60234299  0.58085606  1
  Te  Te122  1  0.75811139  0.57655135  0.94173946  1
  Te  Te123  1  0.73478863  0.90588931  0.23401577  1
  Te  Te124  1  0.75113730  0.91773321  0.58331658  1
  Te  Te125  1  0.75148094  0.90552438  0.94733553  1
  Te  Te126  1  0.27479658  0.25650607  0.08930389  1
  Te  Te127  1  0.24841500  0.30907685  0.39439662  1
  Te  Te128  1  0.25211630  0.24932152  0.72321805  1
  Te  Te129  1  0.27607085  0.59074304  0.06970009  1
  Te  Te130  1  0.21773624  0.57249430  0.40828992  1
  Te  Te131  1  0.22480556  0.62095112  0.78627971  1
  Te  Te132  1  0.23311738  0.93364734  0.08764159  1
  Te  Te133  1  0.26624919  0.94272186  0.41266347  1
  Te  Te134  1  0.23448665  0.91780238  0.74509450  1
  Te  Te135  1  0.54913467  0.23280051  0.06029760  1
  Te  Te136  1  0.59803352  0.25312894  0.42169277  1
  Te  Te137  1  0.55793318  0.27208924  0.77136503  1
  Te  Te138  1  0.59022316  0.58596080  0.08747956  1
  Te  Te139  1  0.58202469  0.57605389  0.43363257  1
  Te  Te140  1  0.58594158  0.57339330  0.75165351  1
  Te  Te141  1  0.56876845  0.89034770  0.08003913  1
  Te  Te142  1  0.58356797  0.92717693  0.41988175  1
  Te  Te143  1  0.57338482  0.90121559  0.73500613  1
  Te  Te144  1  0.92421601  0.26009428  0.10912865  1
  Te  Te145  1  0.92206002  0.22240448  0.38161510  1
  Te  Te146  1  0.93113977  0.24851039  0.73422196  1
  Te  Te147  1  0.93137732  0.53843791  0.12407446  1
  Te  Te148  1  0.95144147  0.57159481  0.40925106  1
  Te  Te149  1  0.92267281  0.58598884  0.75259865  1
  Te  Te150  1  0.91903317  0.92236717  0.07803172  1
  Te  Te151  1  0.93413359  0.91224980  0.42615987  1
  Te  Te152  1  0.90886741  0.90050906  0.77220819  1
  Te  Te153  1  0.23353026  0.12910733  0.25943860  1
  Te  Te154  1  0.26312228  0.08943858  0.57132083  1
  Te  Te155  1  0.21054787  0.08474880  0.90943689  1
  Te  Te156  1  0.24305519  0.41407358  0.22206029  1
  Te  Te157  1  0.22130422  0.42296763  0.58547046  1
  Te  Te158  1  0.22963485  0.42129707  0.93361438  1
  Te  Te159  1  0.25760451  0.75263704  0.25310502  1
  Te  Te160  1  0.21720802  0.74712088  0.61210602  1
  Te  Te161  1  0.26305630  0.73984509  0.93178949  1
  Te  Te162  1  0.58119322  0.07806826  0.24168549  1
  Te  Te163  1  0.57579745  0.09921071  0.58722953  1
  Te  Te164  1  0.59705511  0.06684205  0.89597020  1
  Te  Te165  1  0.54698792  0.37615586  0.22740163  1
  Te  Te166  1  0.59860238  0.39122734  0.61112045  1
  Te  Te167  1  0.58335489  0.38679933  0.86301186  1
  Te  Te168  1  0.57102312  0.74424359  0.28331671  1
  Te  Te169  1  0.57486011  0.75343885  0.56680744  1
  Te  Te170  1  0.58697627  0.73752838  0.90528435  1
  Te  Te171  1  0.90204577  0.09645754  0.27025776  1
  Te  Te172  1  0.93115975  0.10240663  0.59587978  1
  Te  Te173  1  0.93399813  0.08050171  0.90479189  1
  Te  Te174  1  0.91550136  0.40756891  0.27190206  1
  Te  Te175  1  0.92116069  0.42517406  0.56985827  1
  Te  Te176  1  0.91692938  0.41744956  0.94822322  1
  Te  Te177  1  0.92032558  0.75805149  0.26126364  1
  Te  Te178  1  0.95585700  0.73788789  0.59445935  1
  Te  Te179  1  0.91413994  0.74439773  0.94667088  1
