# generated using pymatgen
data_In2Te3
_symmetry_space_group_name_H-M   'P 1'
_cell_length_a   19.02447558
_cell_length_b   19.00238614
_cell_length_c   19.05237315
_cell_angle_alpha   89.95738824
_cell_angle_beta   90.04276062
_cell_angle_gamma   89.87717065
_symmetry_Int_Tables_number   1
_chemical_formula_structural   In2Te3
_chemical_formula_sum   'In72 Te108'
_cell_volume   6887.61197466
_cell_formula_units_Z   36
loop_
 _symmetry_equiv_pos_site_id
 _symmetry_equiv_pos_as_xyz
  1  'x, y, z'
loop_
 _atom_site_type_symbol
 _atom_site_label
 _atom_site_symmetry_multiplicity
 _atom_site_fract_x
 _atom_site_fract_y
 _atom_site_fract_z
 _atom_site_occupancy
  In  In0  1  0.80397066  -0.03366383  0.19471540  1
  In  In1  1  0.34489124  0.14558465  0.49849713  1
  In  In2  1  -0.03360062  0.90348153  0.52977064  1
  In  In3  1  0.32982851  0.49222607  0.83097896  1
  In  In4  1  0.15680996  -0.02691159  0.19399807  1
  In  In5  1  0.31206783  -0.01698144  0.32594309  1
  In  In6  1  0.67913047  0.12920438  0.49814369  1
  In  In7  1  0.00265132  0.65319556  0.33844883  1
  In  In8  1  0.66274630  0.16547006  0.17648268  1
  In  In9  1  0.33775290  -0.01424715  0.64411958  1
  In  In10  1  0.50700801  0.50462022  -0.01728575  1
  In  In11  1  0.15593081  0.84077426  0.65284773  1
  In  In12  1  0.52920893  0.00198449  0.15516893  1
  In  In13  1  0.50184056  0.68453070  0.81682006  1
  In  In14  1  0.49309406  0.67443890  0.16750514  1
  In  In15  1  0.49886673  0.31582509  0.14822179  1
  In  In16  1  0.16566271  0.82895313  0.35856866  1
  In  In17  1  0.54920167  0.30310575  0.52135707  1
  In  In18  1  -0.00049134  -0.00653416  0.00152667  1
  In  In19  1  0.17876547  0.66632004  0.83514139  1
  In  In20  1  0.83184816  0.31827590  0.84418323  1
  In  In21  1  -0.00327428  0.48436559  0.18763923  1
  In  In22  1  0.82956046  0.52305166  0.65052213  1
  In  In23  1  0.81701814  0.69530974  0.17602749  1
  In  In24  1  0.18657162  0.51011435  -0.01209554  1
  In  In25  1  0.37901286  0.00704564  -0.02612297  1
  In  In26  1  0.17487176  0.66255831  0.51560401  1
  In  In27  1  0.64945788  0.84975432  0.83024327  1
  In  In28  1  0.32123968  0.31125916  0.69251733  1
  In  In29  1  0.82483483  -0.04851992  0.78084453  1
  In  In30  1  0.33450368  0.17787109  0.85804055  1
  In  In31  1  0.55022924  0.74802067  0.48016824  1
  In  In32  1  0.67081595  0.52129394  0.49319375  1
  In  In33  1  0.52677319  0.51418714  0.31140176  1
  In  In34  1  0.00570018  0.17519259  0.21666315  1
  In  In35  1  0.15902177  0.49822367  0.33905766  1
  In  In36  1  0.51481449  0.84643936  0.33119703  1
  In  In37  1  0.34346333  0.47599142  0.49967844  1
  In  In38  1  0.80575295  0.32818491  0.48909389  1
  In  In39  1  -0.01802179  0.34674866  -0.00726997  1
  In  In40  1  0.34871816  0.67759426  0.67306500  1
  In  In41  1  0.67930003  0.50988000  0.83588298  1
  In  In42  1  0.17956310  0.31001405  0.51622314  1
  In  In43  1  -0.00905804  0.51190009  0.49692351  1
  In  In44  1  0.17017797  0.16529226  0.01428958  1
  In  In45  1  0.83777354  0.50160399  0.00461195  1
  In  In46  1  0.49269250  0.16561336  0.68591980  1
  In  In47  1  0.16078864  0.31292712  0.17124039  1
  In  In48  1  -0.01445724  0.68221597  -0.00767659  1
  In  In49  1  0.83761696  0.34259342  0.18232438  1
  In  In50  1  0.68659514  0.50042363  0.15587238  1
  In  In51  1  0.16081805  0.33914011  0.82802975  1
  In  In52  1  -0.00752136  0.68411241  0.64749731  1
  In  In53  1  0.00596170  0.14692394  0.81804822  1
  In  In54  1  0.01859990  0.84113629  0.18271606  1
  In  In55  1  0.65632270  -0.01036788  0.67060800  1
  In  In56  1  0.15842530  0.00235401  0.80337531  1
  In  In57  1  0.01944513  0.31888209  0.65665916  1
  In  In58  1  0.47299012  0.50206025  0.67872331  1
  In  In59  1  0.50932373  0.14019582  0.36091149  1
  In  In60  1  0.82491627  0.17589276  0.00680570  1
  In  In61  1  0.50958852  0.84625896  0.00299953  1
  In  In62  1  0.82301198  0.69452896  0.82012344  1
  In  In63  1  0.18473172  0.83214727  -0.01879482  1
  In  In64  1  0.30647472  0.14008739  0.18341416  1
  In  In65  1  0.82187964  0.71874482  0.49167324  1
  In  In66  1  0.34506776  0.52564068  0.15603356  1
  In  In67  1  0.67190696  0.31266349  0.65859723  1
  In  In68  1  0.35607095  0.33970210  0.32046364  1
  In  In69  1  0.81211150  0.83942009  -0.01558677  1
  In  In70  1  0.85088128  0.14655669  0.35802374  1
  In  In71  1  0.32162336  0.81755787  0.17473879  1
  Te  Te72  1  0.08266436  0.07628900  0.09971794  1
  Te  Te73  1  -0.02167343  0.10767478  0.43497215  1
  Te  Te74  1  0.04542190  0.04700216  0.71382240  1
  Te  Te75  1  0.08784603  0.41610777  0.07799722  1
  Te  Te76  1  0.09040406  0.41307433  0.44019170  1
  Te  Te77  1  0.07615024  0.42073559  0.74406283  1
  Te  Te78  1  0.08635425  0.75892396  0.07503252  1
  Te  Te79  1  0.07016092  0.74125311  0.44040481  1
  Te  Te80  1  0.08342168  0.74947063  0.74907415  1
  Te  Te81  1  0.42060941  0.09068950  0.09577446  1
  Te  Te82  1  0.42372128  0.03144272  0.42396124  1
  Te  Te83  1  0.38886548  0.08380690  0.75361284  1
  Te  Te84  1  0.41846671  0.42175792  0.07503707  1
  Te  Te85  1  0.45121871  0.41729661  0.40832156  1
  Te  Te86  1  0.42481469  0.39110888  0.76917857  1
  Te  Te87  1  0.40836419  0.75217959  0.07026198  1
  Te  Te88  1  0.41998029  0.78040624  0.41933275  1
  Te  Te89  1  0.45176118  0.77678825  0.71148318  1
  Te  Te90  1  0.75696666  0.07536802  0.09689521  1
  Te  Te91  1  0.75310741  0.03720533  0.40686158  1
  Te  Te92  1  0.76678681  0.07187658  0.72185144  1
  Te  Te93  1  0.75436457  0.39401378  0.06710192  1
  Te  Te94  1  0.73008301  0.42081253  0.40645315  1
  Te  Te95  1  0.75865047  0.41645399  0.73534669  1
  Te  Te96  1  0.73679647  0.74441166  0.06500675  1
  Te  Te97  1  0.73457627  0.78669878  0.39247610  1
  Te  Te98  1  0.72297108  0.76225561  0.73533976  1
  Te  Te99  1  0.08718313  0.27103824  0.28870266  1
  Te  Te100  1  0.08754122  0.21527032  0.57925736  1
  Te  Te101  1  0.07309386  0.24250054  0.92500462  1
  Te  Te102  1  0.09461993  0.58936681  0.23693340  1
  Te  Te103  1  0.08444658  0.57376721  0.59741831  1
  Te  Te104  1  0.07714040  0.58628271  0.91621237  1
  Te  Te105  1  0.06191166  0.92577479  0.30052704  1
  Te  Te106  1  0.10988948  0.93592167  0.54827219  1
  Te  Te107  1  0.08324895  0.91543095  0.90380044  1
  Te  Te108  1  0.42681324  0.21844614  0.25932058  1
  Te  Te109  1  0.41694038  0.26227214  0.57784187  1
  Te  Te110  1  0.44915828  0.23173078  0.92934251  1
  Te  Te111  1  0.40948136  0.60085849  0.26979082  1
  Te  Te112  1  0.41935362  0.58874540  0.56805363  1
  Te  Te113  1  0.41357610  0.59326800  0.90350534  1
  Te  Te114  1  0.41417346  0.92523468  0.22889228  1
  Te  Te115  1  0.45483610  0.95648254  0.56165470  1
  Te  Te116  1  0.43710655  0.90378727  0.88684107  1
  Te  Te117  1  0.76727966  0.23545497  0.25993776  1
  Te  Te118  1  0.76487634  0.21807078  0.58578584  1
  Te  Te119  1  0.73610245  0.22516632  0.90183996  1
  Te  Te120  1  0.75336611  0.58779786  0.25065887  1
  Te  Te121  1  0.74099558  0.62176021  0.58067278  1
  Te  Te122  1  0.75878598  0.60242150  0.92444334  1
  Te  Te123  1  0.72269220  0.86055893  0.25591198  1
  Te  Te124  1  0.69486260  0.88104608  0.57674135  1
  Te  Te125  1  0.74298266  0.94825801  0.90736332  1
  Te  Te126  1  0.27046876  0.25179080  0.08640293  1
  Te  Te127  1  0.27460942  0.25134739  0.41216441  1
  Te  Te128  1  0.22182903  0.22123983  0.75868846  1
  Te  Te129  1  0.25547718  0.60464055  0.07293556  1
  Te  Te130  1  0.25721705  0.57640197  0.42238689  1
  Te  Te131  1  0.25244451  0.57813718  0.73517334  1
  Te  Te132  1  0.24995802  0.92132118  0.08735956  1
  Te  Te133  1  0.23891033  0.92766015  0.44190850  1
  Te  Te134  1  0.25620087  0.90326030  0.74829755  1
  Te  Te135  1  0.59179015  0.23626077  0.06900927  1
  Te  Te136  1  0.61514082  0.23906003  0.40469624  1
  Te  Te137  1  0.59326098  0.24164926  0.75872151  1
  Te  Te138  1  0.58385124  0.58589969  0.08398674  1
  Te  Te139  1  0.58649064  0.61311784  0.40813187  1
  Te  Te140  1  0.58478474  0.58236579  0.74113711  1
  Te  Te141  1  0.61507451  0.92578621  0.06629610  1
  Te  Te142  1  0.61128729  0.88905688  0.44184850  1
  Te  Te143  1  0.56046062  0.95637383  0.77900557  1
  Te  Te144  1  0.93425067  0.24617444  0.09591158  1
  Te  Te145  1  0.92465487  0.25389643  0.43496152  1
  Te  Te146  1  0.91743109  0.24407919  0.74430483  1
  Te  Te147  1  0.92362556  0.58502005  0.09706763  1
  Te  Te148  1  0.89111709  0.59793248  0.42411100  1
  Te  Te149  1  0.91576606  0.59889602  0.74769703  1
  Te  Te150  1  0.91027398  0.90598362  0.08967595  1
  Te  Te151  1  0.86293604  0.92645005  0.42202662  1
  Te  Te152  1  0.95373248  0.92251943  0.71970043  1
  Te  Te153  1  0.20968395  0.08857914  0.28387476  1
  Te  Te154  1  0.24882977  0.09187093  0.59322169  1
  Te  Te155  1  0.23904111  0.06555282  0.92435607  1
  Te  Te156  1  0.25612011  0.42256917  0.24173522  1
  Te  Te157  1  0.25214453  0.41161811  0.60187587  1
  Te  Te158  1  0.26153805  0.39489100  0.92503572  1
  Te  Te159  1  0.23174605  0.74318053  0.26097884  1
  Te  Te160  1  0.26654753  0.76332811  0.57891984  1
  Te  Te161  1  0.27487605  0.75728763  0.89480444  1
  Te  Te162  1  0.60297261  0.06071523  0.27250296  1
  Te  Te163  1  0.55869610  0.07963523  0.57791770  1
  Te  Te164  1  0.49801635  0.09275633  0.93812220  1
  Te  Te165  1  0.59079806  0.40436553  0.22958216  1
  Te  Te166  1  0.58460184  0.43094656  0.59186003  1
  Te  Te167  1  0.59952878  0.41665086  0.91285314  1
  Te  Te168  1  0.58992797  0.76760163  0.22937987  1
  Te  Te169  1  0.59248837  0.77771509  0.62086534  1
  Te  Te170  1  0.59099208  0.74391754  0.92167617  1
  Te  Te171  1  0.91544644  0.06103799  0.24359569  1
  Te  Te172  1  0.88805520  0.03376002  0.53507376  1
  Te  Te173  1  0.91263501  0.08338578  0.91782241  1
  Te  Te174  1  0.91198485  0.41684215  0.28306902  1
  Te  Te175  1  0.90626588  0.41418970  0.57773083  1
  Te  Te176  1  0.91624875  0.43655650  0.89278117  1
  Te  Te177  1  0.92224821  0.75923051  0.26538334  1
  Te  Te178  1  0.89392003  0.78971472  0.60487496  1
  Te  Te179  1  0.92108537  0.78018779  0.89690820  1
