# generated using pymatgen
data_In2Te3
_symmetry_space_group_name_H-M   'P 1'
_cell_length_a   18.74122573
_cell_length_b   18.74406307
_cell_length_c   18.73484651
_cell_angle_alpha   90.02184080
_cell_angle_beta   89.95089736
_cell_angle_gamma   89.93680369
_symmetry_Int_Tables_number   1
_chemical_formula_structural   In2Te3
_chemical_formula_sum   'In72 Te108'
_cell_volume   6581.29582511
_cell_formula_units_Z   36
loop_
 _symmetry_equiv_pos_site_id
 _symmetry_equiv_pos_as_xyz
  1  'x, y, z'
loop_
 _atom_site_type_symbol
 _atom_site_label
 _atom_site_symmetry_multiplicity
 _atom_site_fract_x
 _atom_site_fract_y
 _atom_site_fract_z
 _atom_site_occupancy
  In  In0  1  0.66420288  0.83659651  0.17938839  1
  In  In1  1  0.32356218  0.85689387  0.80191908  1
  In  In2  1  0.65537730  0.49979663  0.49292785  1
  In  In3  1  0.31699387  0.03215784  0.35324386  1
  In  In4  1  -0.00774872  0.46215226  0.51518852  1
  In  In5  1  0.66054464  0.32731675  0.34814897  1
  In  In6  1  0.17788019  0.16747980  0.00375462  1
  In  In7  1  0.00297892  0.16139454  0.81192761  1
  In  In8  1  0.34320927  0.48838684  0.49739210  1
  In  In9  1  0.34285168  0.00029746  -0.00360838  1
  In  In10  1  0.17832863  0.63890808  0.16327023  1
  In  In11  1  0.16639047  0.68792594  0.50495489  1
  In  In12  1  0.16720379  0.33329741  0.82905497  1
  In  In13  1  0.15165372  0.33717754  0.16068576  1
  In  In14  1  0.65492327  0.15562231  0.49772532  1
  In  In15  1  0.01245716  0.51197490  0.83299599  1
  In  In16  1  0.49989943  0.48341913  0.02351415  1
  In  In17  1  -0.01274074  0.84339048  0.15697854  1
  In  In18  1  0.32296932  0.02885472  0.64465444  1
  In  In19  1  0.33900892  0.29842182  0.63295595  1
  In  In20  1  0.17554180  0.84661030  0.36318423  1
  In  In21  1  0.34407494  0.15682089  0.83464310  1
  In  In22  1  0.32509564  0.68742968  0.65425656  1
  In  In23  1  0.65159127  0.32422571  0.01628960  1
  In  In24  1  0.12976035  0.66258751  0.84281958  1
  In  In25  1  0.49458160  0.30931319  0.18066343  1
  In  In26  1  0.85172875  0.32002962  0.81673096  1
  In  In27  1  0.32315376  0.31211902  0.36846714  1
  In  In28  1  0.83698346  0.48812676  0.32318027  1
  In  In29  1  0.18192631  0.02094016  0.18838350  1
  In  In30  1  0.66072504  0.66653443  0.65562533  1
  In  In31  1  0.00741725  0.84912575  0.82065801  1
  In  In32  1  0.82196251  0.67326437  0.81244751  1
  In  In33  1  0.01428609  0.17308969  0.49807811  1
  In  In34  1  0.16024625  0.48124043  0.34844788  1
  In  In35  1  0.83809829  0.84445264  0.00747869  1
  In  In36  1  -0.00639937  0.01218066  0.35269558  1
  In  In37  1  0.82518636  0.17265985  0.01910684  1
  In  In38  1  0.18595285  0.50034924  0.66669964  1
  In  In39  1  0.03007491  0.66675986  0.34237658  1
  In  In40  1  0.37365187  0.65781756  0.33589127  1
  In  In41  1  -0.01087344  0.64024822  0.00150666  1
  In  In42  1  0.15130831  0.83676235  -0.02476656  1
  In  In43  1  0.33342928  0.47543705  0.83667630  1
  In  In44  1  0.83154681  0.67655471  0.49628560  1
  In  In45  1  0.48269980  0.31985494  0.82127004  1
  In  In46  1  0.83089608  0.65471972  0.16668196  1
  In  In47  1  0.63300378  0.86158792  0.80070494  1
  In  In48  1  0.50195170  0.64496151  0.17930212  1
  In  In49  1  0.49419883  0.83309834  -0.02201323  1
  In  In50  1  0.83187510  0.17270781  0.35064502  1
  In  In51  1  0.67133057  0.01816968  -0.01432768  1
  In  In52  1  0.01739668  0.17505217  0.17634495  1
  In  In53  1  0.49725841  0.67193648  0.81998577  1
  In  In54  1  0.02649848  0.00004584  0.63191514  1
  In  In55  1  0.31356762  0.65050467  0.01522259  1
  In  In56  1  0.82264648  0.15714220  0.68394880  1
  In  In57  1  0.84188659  0.31800015  0.18959981  1
  In  In58  1  0.51122738  0.67502900  0.50137708  1
  In  In59  1  0.66157224  0.33103669  0.65509556  1
  In  In60  1  0.84790693  0.50205769  -0.02569350  1
  In  In61  1  0.82775253  0.02766699  0.81415694  1
  In  In62  1  0.65955104  -0.00217961  0.32647291  1
  In  In63  1  0.50401616  0.03741808  0.16381734  1
  In  In64  1  0.67320746  0.49872639  0.17371455  1
  In  In65  1  -0.01129139  0.68840105  0.66049779  1
  In  In66  1  0.82468332  0.84128096  0.35624012  1
  In  In67  1  0.48986894  -0.00658917  0.49295639  1
  In  In68  1  0.66077748  0.14449098  0.82054699  1
  In  In69  1  0.50004788  0.84451704  0.36004367  1
  In  In70  1  0.67991640  0.50329524  0.82095484  1
  In  In71  1  0.33355155  0.83506241  0.18608316  1
  Te  Te72  1  0.08441272  0.07317751  0.08343406  1
  Te  Te73  1  0.10674260  0.08448215  0.41602165  1
  Te  Te74  1  0.10057886  0.07366678  0.74075617  1
  Te  Te75  1  0.10921167  0.44537389  0.06633681  1
  Te  Te76  1  0.07144970  0.38216467  0.41732245  1
  Te  Te77  1  0.07939611  0.41413846  0.73365795  1
  Te  Te78  1  0.08577627  0.74083112  0.08244765  1
  Te  Te79  1  0.05822261  0.78006731  0.43989098  1
  Te  Te80  1  0.10104167  0.76383101  0.73485742  1
  Te  Te81  1  0.39678566  0.10361384  0.08710053  1
  Te  Te82  1  0.41504262  0.11443367  0.43729444  1
  Te  Te83  1  0.43046471  0.08751083  0.73331409  1
  Te  Te84  1  0.41086858  0.38015756  0.07713642  1
  Te  Te85  1  0.43105764  0.40646606  0.41261413  1
  Te  Te86  1  0.40831655  0.40999663  0.72201554  1
  Te  Te87  1  0.41861700  0.74979569  0.08683019  1
  Te  Te88  1  0.39494352  0.76541097  0.43805386  1
  Te  Te89  1  0.43063627  0.77306635  0.72762758  1
  Te  Te90  1  0.73861338  0.08406278  0.09939745  1
  Te  Te91  1  0.75648324  0.06484146  0.42780951  1
  Te  Te92  1  0.72352826  0.03127761  0.69258161  1
  Te  Te93  1  0.75950789  0.41299360  0.07994565  1
  Te  Te94  1  0.76299360  0.40624756  0.42872851  1
  Te  Te95  1  0.76749462  0.41712081  0.73134418  1
  Te  Te96  1  0.74447432  0.74856438  0.08176859  1
  Te  Te97  1  0.72733885  0.75321289  0.42376690  1
  Te  Te98  1  0.74420035  0.77480109  0.73171893  1
  Te  Te99  1  0.09286506  0.25692028  0.27289248  1
  Te  Te100  1  0.12393977  0.23527737  0.58061345  1
  Te  Te101  1  0.07716283  0.24592474  0.91708627  1
  Te  Te102  1  0.07526536  0.55961918  0.24494911  1
  Te  Te103  1  0.08350825  0.58372901  0.58336926  1
  Te  Te104  1  0.11472960  0.55099533  0.94786502  1
  Te  Te105  1  0.08864584  0.91291608  0.25243676  1
  Te  Te106  1  0.11894840  0.90220382  0.56879043  1
  Te  Te107  1  0.07014891  0.94325499  0.91513359  1
  Te  Te108  1  0.40609583  0.22736471  0.27181514  1
  Te  Te109  1  0.43607025  0.22798962  0.54442079  1
  Te  Te110  1  0.40616649  0.25484437  0.92907179  1
  Te  Te111  1  0.39869611  0.55514368  0.23393498  1
  Te  Te112  1  0.41818886  0.58658677  0.58819708  1
  Te  Te113  1  0.42413007  0.58043131  0.92113828  1
  Te  Te114  1  0.41617899  0.93480571  0.26644766  1
  Te  Te115  1  0.39843496  0.91512014  0.58091492  1
  Te  Te116  1  0.42705519  0.93392737  0.88637650  1
  Te  Te117  1  0.73128878  0.23388710  0.24940668  1
  Te  Te118  1  0.75661567  0.24318509  0.57396462  1
  Te  Te119  1  0.74514506  0.25013957  0.90351238  1
  Te  Te120  1  0.73858136  0.59510555  0.27341670  1
  Te  Te121  1  0.75805227  0.57420211  0.58295810  1
  Te  Te122  1  0.74326648  0.59955088  0.92161869  1
  Te  Te123  1  0.76886676  0.92729485  0.24180870  1
  Te  Te124  1  0.79063220  0.91377245  0.62314796  1
  Te  Te125  1  0.75093264  0.91577719  0.90037462  1
  Te  Te126  1  0.25681005  0.25173105  0.09517488  1
  Te  Te127  1  0.22886881  0.22324917  0.45306541  1
  Te  Te128  1  0.25028847  0.23776134  0.74262271  1
  Te  Te129  1  0.26027119  0.53380217  0.09332770  1
  Te  Te130  1  0.24839997  0.59011616  0.41916750  1
  Te  Te131  1  0.25494587  0.59608281  0.76446633  1
  Te  Te132  1  0.24500908  0.90958180  0.08528026  1
  Te  Te133  1  0.25151975  0.93935685  0.45192535  1
  Te  Te134  1  0.22936571  0.95622650  0.74246775  1
  Te  Te135  1  0.57823973  0.22163761  0.09072204  1
  Te  Te136  1  0.56269564  0.26541067  0.44637554  1
  Te  Te137  1  0.57189946  0.23281045  0.73197608  1
  Te  Te138  1  0.59855755  0.58933279  0.07434791  1
  Te  Te139  1  0.56951436  0.58153935  0.40265656  1
  Te  Te140  1  0.57213323  0.56825481  0.73480255  1
  Te  Te141  1  0.57192586  0.91577163  0.08288528  1
  Te  Te142  1  0.61155438  0.91005078  0.44267505  1
  Te  Te143  1  0.56234332  0.96737780  0.72511012  1
  Te  Te144  1  0.93321197  0.26233485  0.07975455  1
  Te  Te145  1  0.92655041  0.26448780  0.41794463  1
  Te  Te146  1  0.94369264  0.25881782  0.70691498  1
  Te  Te147  1  0.92000303  0.54794143  0.10241394  1
  Te  Te148  1  0.92930619  0.57943483  0.42068334  1
  Te  Te149  1  0.91290430  0.57833186  0.73622287  1
  Te  Te150  1  0.91800530  0.94620331  0.07747401  1
  Te  Te151  1  0.91299219  0.92484501  0.44063706  1
  Te  Te152  1  0.91453666  0.92624074  0.72970056  1
  Te  Te153  1  0.26686722  0.12836902  0.24849896  1
  Te  Te154  1  0.22192376  0.11564076  0.56090791  1
  Te  Te155  1  0.23973571  0.06761192  0.90570678  1
  Te  Te156  1  0.25657268  0.40225913  0.26309057  1
  Te  Te157  1  0.23848823  0.40058176  0.56592820  1
  Te  Te158  1  0.25739717  0.39280933  0.93145264  1
  Te  Te159  1  0.24175451  0.74040241  0.26489015  1
  Te  Te160  1  0.23287857  0.79117897  0.59336233  1
  Te  Te161  1  0.26199070  0.75302281  0.90833726  1
  Te  Te162  1  0.56641666  0.10299337  0.28029488  1
  Te  Te163  1  0.57414783  0.07130622  0.59456959  1
  Te  Te164  1  0.56463425  0.09688553  0.92132170  1
  Te  Te165  1  0.57647696  0.41841284  0.25765753  1
  Te  Te166  1  0.56743618  0.41594602  0.57900465  1
  Te  Te167  1  0.58666364  0.41210264  0.90447804  1
  Te  Te168  1  0.57604749  0.74801110  0.26642475  1
  Te  Te169  1  0.58661882  0.77255016  0.58390633  1
  Te  Te170  1  0.59844578  0.74906978  0.90499031  1
  Te  Te171  1  0.91283281  0.08900187  0.24910995  1
  Te  Te172  1  0.91497383  0.08789220  0.57796354  1
  Te  Te173  1  0.91550566  0.09363439  0.92041067  1
  Te  Te174  1  0.94002101  0.40317516  0.25880528  1
  Te  Te175  1  0.91607512  0.39177849  0.61718037  1
  Te  Te176  1  0.94104074  0.39930822  0.91321900  1
  Te  Te177  1  0.92011116  0.74420346  0.25583979  1
  Te  Te178  1  0.89639298  0.78032743  0.58616935  1
  Te  Te179  1  0.92286567  0.74737806  0.90913987  1
