# generated using pymatgen
data_In2Te3
_symmetry_space_group_name_H-M   'P 1'
_cell_length_a   18.78442839
_cell_length_b   18.78466701
_cell_length_c   18.79416198
_cell_angle_alpha   90.00752929
_cell_angle_beta   90.07320173
_cell_angle_gamma   90.09816873
_symmetry_Int_Tables_number   1
_chemical_formula_structural   In2Te3
_chemical_formula_sum   'In72 Te108'
_cell_volume   6631.67836171
_cell_formula_units_Z   36
loop_
 _symmetry_equiv_pos_site_id
 _symmetry_equiv_pos_as_xyz
  1  'x, y, z'
loop_
 _atom_site_type_symbol
 _atom_site_label
 _atom_site_symmetry_multiplicity
 _atom_site_fract_x
 _atom_site_fract_y
 _atom_site_fract_z
 _atom_site_occupancy
  In  In0  1  0.68040214  0.17004419  0.49966910  1
  In  In1  1  0.81768109  0.00524668  0.17480584  1
  In  In2  1  0.31639500  -0.00206599  0.68202312  1
  In  In3  1  0.17718965  0.16133675  0.02536779  1
  In  In4  1  0.66649149  0.15478692  0.84786791  1
  In  In5  1  -0.00996229  0.83675834  0.50036974  1
  In  In6  1  0.48299519  0.67969870  0.47832374  1
  In  In7  1  0.49129014  0.13649544  0.01863497  1
  In  In8  1  0.66816019  0.32834192  0.32304808  1
  In  In9  1  0.34532211  0.52046540  0.19564967  1
  In  In10  1  0.66322616  0.83404381  0.85066743  1
  In  In11  1  0.31889185  0.49101814  0.46921156  1
  In  In12  1  0.15154835  0.17500636  0.63319318  1
  In  In13  1  0.85333002  0.32620492  0.49649385  1
  In  In14  1  0.49268585  0.33682860  0.82469893  1
  In  In15  1  0.32450885  0.16619615  0.82759548  1
  In  In16  1  0.71050266  0.47110431  0.80364803  1
  In  In17  1  0.85475163  0.50973482  0.01840647  1
  In  In18  1  0.84445246  0.15662279  0.65848031  1
  In  In19  1  0.00610501  0.32073435  0.65008594  1
  In  In20  1  -0.00875716  0.34507894  0.01849403  1
  In  In21  1  0.17472844  0.49931765  0.64774782  1
  In  In22  1  0.31572714  0.18384287  0.45813893  1
  In  In23  1  0.49941311  0.50246584  0.65987726  1
  In  In24  1  0.84528987  0.81212681  0.00273408  1
  In  In25  1  -0.01093551  0.00847013  0.66730390  1
  In  In26  1  0.67234820  0.52035371  0.50468057  1
  In  In27  1  0.30695073  0.69783303  -0.01243307  1
  In  In28  1  0.00385234  0.51147996  0.84771067  1
  In  In29  1  0.84551034  0.66186765  0.16107083  1
  In  In30  1  0.67284468  -0.01548984  0.00769032  1
  In  In31  1  -0.00744599  0.66130364  0.33018549  1
  In  In32  1  0.49098403  0.80718815  0.66021004  1
  In  In33  1  0.14482126  0.48361939  0.01028104  1
  In  In34  1  0.32958184  0.82891735  0.48914306  1
  In  In35  1  0.85343619  0.15439603  -0.01059797  1
  In  In36  1  0.32179843  0.52768570  0.81583247  1
  In  In37  1  0.86217444  0.00415610  0.50251594  1
  In  In38  1  0.49072328  0.36476004  0.49130994  1
  In  In39  1  0.83691448  0.66280981  0.49533643  1
  In  In40  1  0.01953271  0.14976165  0.17351646  1
  In  In41  1  0.86875777  0.47137635  0.30850055  1
  In  In42  1  0.65163510  -0.00776098  0.31844676  1
  In  In43  1  0.48284250  0.84955175  0.01200000  1
  In  In44  1  0.49051638  0.68216030  0.83335492  1
  In  In45  1  0.31100651  0.66971842  0.68454108  1
  In  In46  1  0.15778107  0.48661651  0.35117398  1
  In  In47  1  0.47986404  0.15450397  0.32533432  1
  In  In48  1  0.84107719  0.84420190  0.66667645  1
  In  In49  1  0.17534493  0.63641396  0.50700623  1
  In  In50  1  0.17143552  0.67361787  0.17295437  1
  In  In51  1  0.52214674  0.51487124  0.02560168  1
  In  In52  1  0.65788972  0.50846313  0.15309126  1
  In  In53  1  0.67972687  0.34761587  0.00331330  1
  In  In54  1  0.17243404  0.31331534  0.83352927  1
  In  In55  1  0.85118649  0.18705052  0.33077579  1
  In  In56  1  0.66169069  0.67532568  0.34093612  1
  In  In57  1  0.16905113  0.82476239  0.31394665  1
  In  In58  1  0.48817746  0.01385993  0.46877849  1
  In  In59  1  -0.00824458  0.15223836  0.82769639  1
  In  In60  1  0.65828034  0.65332135  0.64459495  1
  In  In61  1  0.12696986  0.01863985  0.48454990  1
  In  In62  1  0.48957837  0.31849365  0.16798760  1
  In  In63  1  0.47172365  -0.01401846  0.19187602  1
  In  In64  1  0.48909836  0.17759063  0.66386826  1
  In  In65  1  0.67948794  -0.00703736  0.67475918  1
  In  In66  1  0.67399269  0.63936013  0.03527037  1
  In  In67  1  0.01201413  0.84671981  0.17856490  1
  In  In68  1  0.30431874  0.31161735  0.02288802  1
  In  In69  1  0.84739676  0.67250628  0.83388260  1
  In  In70  1  0.14482835  -0.03012669  0.86162635  1
  In  In71  1  0.31391742  -0.05036537  0.02384911  1
  Te  Te72  1  0.09264780  0.05165541  0.08363539  1
  Te  Te73  1  0.11754711  0.12269777  0.38086805  1
  Te  Te74  1  0.10711359  0.08711947  0.75209738  1
  Te  Te75  1  0.08923753  0.39748107  0.12103042  1
  Te  Te76  1  0.07034983  0.39876890  0.43309514  1
  Te  Te77  1  0.08754815  0.41100126  0.75318920  1
  Te  Te78  1  0.10314799  0.77267550  0.08109707  1
  Te  Te79  1  0.08720899  0.74351142  0.41906101  1
  Te  Te80  1  0.14018471  0.75458006  0.77461426  1
  Te  Te81  1  0.37779683  0.08189478  0.10566238  1
  Te  Te82  1  0.36580381  0.05469169  0.38120448  1
  Te  Te83  1  0.42580995  0.07515285  0.75735799  1
  Te  Te84  1  0.41214509  0.41633213  0.07669182  1
  Te  Te85  1  0.40390727  0.40862177  0.38070062  1
  Te  Te86  1  0.39777474  0.41746612  0.73627254  1
  Te  Te87  1  0.38374170  0.77140417  0.09367682  1
  Te  Te88  1  0.42714951  0.78507233  0.38384598  1
  Te  Te89  1  0.38854162  0.77363968  0.76980465  1
  Te  Te90  1  0.74220306  0.09905946  0.07993764  1
  Te  Te91  1  0.75658527  0.07812705  0.40788483  1
  Te  Te92  1  0.77032393  0.07501637  0.76548151  1
  Te  Te93  1  0.77027575  0.41521579  0.10514348  1
  Te  Te94  1  0.75044293  0.41872087  0.41503697  1
  Te  Te95  1  0.79208685  0.38783300  0.71884479  1
  Te  Te96  1  0.74136488  0.75855476  0.10248274  1
  Te  Te97  1  0.75944095  0.75819652  0.41499655  1
  Te  Te98  1  0.73617753  0.74973826  0.74341467  1
  Te  Te99  1  0.09973571  0.23352212  0.26860712  1
  Te  Te100  1  0.10356855  0.28390328  0.53809024  1
  Te  Te101  1  0.07812742  0.24422131  0.93173114  1
  Te  Te102  1  0.08074140  0.57453683  0.24347920  1
  Te  Te103  1  0.06620060  0.57782475  0.58578956  1
  Te  Te104  1  0.07510592  0.59829949  0.94729527  1
  Te  Te105  1  0.10860700  0.94572229  0.24688108  1
  Te  Te106  1  0.08417074  0.91744873  0.59029703  1
  Te  Te107  1  0.08248512  0.86887308  0.95176474  1
  Te  Te108  1  0.38839984  0.24938775  0.25467549  1
  Te  Te109  1  0.40830557  0.25392432  0.56091045  1
  Te  Te110  1  0.41848909  0.24629580  0.92390789  1
  Te  Te111  1  0.44707006  0.61077956  0.25282263  1
  Te  Te112  1  0.40495376  0.59481732  0.58348554  1
  Te  Te113  1  0.41520584  0.58755904  0.92788549  1
  Te  Te114  1  0.38657453  0.88422116  0.25602889  1
  Te  Te115  1  0.41728204  0.92172149  0.58385651  1
  Te  Te116  1  0.40468133  0.92177503  0.91013243  1
  Te  Te117  1  0.75559352  0.24912446  0.23639783  1
  Te  Te118  1  0.74855863  0.26106043  0.59914948  1
  Te  Te119  1  0.76135778  0.25477654  0.91431344  1
  Te  Te120  1  0.75857100  0.57532486  0.25556516  1
  Te  Te121  1  0.77696088  0.56967389  0.60415053  1
  Te  Te122  1  0.75046248  0.57916139  0.91835028  1
  Te  Te123  1  0.74700558  0.90131923  0.25265383  1
  Te  Te124  1  0.75248527  0.91584933  0.56501510  1
  Te  Te125  1  0.77220004  0.91796488  0.91309880  1
  Te  Te126  1  0.22426529  0.25321303  0.13362108  1
  Te  Te127  1  0.20497011  0.25693900  0.39083507  1
  Te  Te128  1  0.25692776  0.25214042  0.72312264  1
  Te  Te129  1  0.25349300  0.57836174  0.07793370  1
  Te  Te130  1  0.26244830  0.60502143  0.38827035  1
  Te  Te131  1  0.19656155  0.60948548  0.77200571  1
  Te  Te132  1  0.19974606  0.92775841  0.11615406  1
  Te  Te133  1  0.22882068  0.92041368  0.42004744  1
  Te  Te134  1  0.21995689  0.90350849  0.74693491  1
  Te  Te135  1  0.58456549  0.24746286  0.07152449  1
  Te  Te136  1  0.57327477  0.24346046  0.41928212  1
  Te  Te137  1  0.59344572  0.25002325  0.74979787  1
  Te  Te138  1  0.54284202  0.63121826  0.12864971  1
  Te  Te139  1  0.56489571  0.57013186  0.41022885  1
  Te  Te140  1  0.58294947  0.58280411  0.76234577  1
  Te  Te141  1  0.58204492  0.91472756  0.10759074  1
  Te  Te142  1  0.57309882  0.90829383  0.41183378  1
  Te  Te143  1  0.57688122  0.90553233  0.74717034  1
  Te  Te144  1  0.91809289  0.23868038  0.10009875  1
  Te  Te145  1  0.94679738  0.29135558  0.38373783  1
  Te  Te146  1  0.91150474  0.25902526  0.75636562  1
  Te  Te147  1  0.95265335  0.60625169  0.07420919  1
  Te  Te148  1  0.92455322  0.55945122  0.41991033  1
  Te  Te149  1  0.93253642  0.59115614  0.74594039  1
  Te  Te150  1  0.91284198  0.92045986  0.08773469  1
  Te  Te151  1  0.93950735  0.93150563  0.39963105  1
  Te  Te152  1  0.93471228  0.90858576  0.76062363  1
  Te  Te153  1  0.30684924  0.09592754  0.24479307  1
  Te  Te154  1  0.25883570  0.08430383  0.56918236  1
  Te  Te155  1  0.25215567  0.07177315  0.92288980  1
  Te  Te156  1  0.25042194  0.42321045  0.25255591  1
  Te  Te157  1  0.26063156  0.40550605  0.57416967  1
  Te  Te158  1  0.25337179  0.41749909  0.91293544  1
  Te  Te159  1  0.28096421  0.75991582  0.23553858  1
  Te  Te160  1  0.23419789  0.75578777  0.58358028  1
  Te  Te161  1  0.21519397  0.78795392  0.90600819  1
  Te  Te162  1  0.58106944  0.09492412  0.23129166  1
  Te  Te163  1  0.58701066  0.08034777  0.58467507  1
  Te  Te164  1  0.57115812  0.05668624  0.91660177  1
  Te  Te165  1  0.57269809  0.42046478  0.24705851  1
  Te  Te166  1  0.59858306  0.41284144  0.58898158  1
  Te  Te167  1  0.58544817  0.42541134  0.90874840  1
  Te  Te168  1  0.56369625  0.73530639  0.24845619  1
  Te  Te169  1  0.59158365  0.75687505  0.55583112  1
  Te  Te170  1  0.58291322  0.74136077  0.94155161  1
  Te  Te171  1  0.92486506  0.07009750  0.26516553  1
  Te  Te172  1  0.95077232  0.11590134  0.55694204  1
  Te  Te173  1  0.94341598  0.05566248  0.92709007  1
  Te  Te174  1  0.96026461  0.41525967  0.21055404  1
  Te  Te175  1  0.91970539  0.42435488  0.58687410  1
  Te  Te176  1  0.90559149  0.41272080  0.91240521  1
  Te  Te177  1  0.90840859  0.76375447  0.25766557  1
  Te  Te178  1  0.92621566  0.73830050  0.59769588  1
  Te  Te179  1  0.94541381  0.75575076  0.90799711  1
