# generated using pymatgen
data_In2Te3
_symmetry_space_group_name_H-M   'P 1'
_cell_length_a   18.82291864
_cell_length_b   18.81490144
_cell_length_c   18.82086464
_cell_angle_alpha   90.03593215
_cell_angle_beta   90.02512934
_cell_angle_gamma   89.98345692
_symmetry_Int_Tables_number   1
_chemical_formula_structural   In2Te3
_chemical_formula_sum   'In72 Te108'
_cell_volume   6665.43256124
_cell_formula_units_Z   36
loop_
 _symmetry_equiv_pos_site_id
 _symmetry_equiv_pos_as_xyz
  1  'x, y, z'
loop_
 _atom_site_type_symbol
 _atom_site_label
 _atom_site_symmetry_multiplicity
 _atom_site_fract_x
 _atom_site_fract_y
 _atom_site_fract_z
 _atom_site_occupancy
  In  In0  1  0.32734823  0.33855214  0.02190770  1
  In  In1  1  0.00723341  0.01461320  -0.00879583  1
  In  In2  1  0.17387873  0.50187781  0.00128826  1
  In  In3  1  0.17360766  0.66357894  0.50411099  1
  In  In4  1  0.82356630  0.32004687  0.82175106  1
  In  In5  1  0.66064858  0.35528781  -0.00485559  1
  In  In6  1  0.84837255  0.01350513  0.50985037  1
  In  In7  1  0.00340631  0.63964560  0.33723436  1
  In  In8  1  0.01562641  0.17777455  0.83142006  1
  In  In9  1  0.30857970  0.30257888  0.68414290  1
  In  In10  1  0.19475149  0.67458387  0.19830708  1
  In  In11  1  0.67523274  0.80772893  0.16316821  1
  In  In12  1  0.49945137  0.80458456  0.00236594  1
  In  In13  1  0.86237717  0.48103194  0.31382104  1
  In  In14  1  0.68103861  0.85498248  0.48485174  1
  In  In15  1  0.01949518  0.18322315  0.17244299  1
  In  In16  1  0.15944776  0.67604783  0.83041731  1
  In  In17  1  0.83442330  0.51445625  -0.00263842  1
  In  In18  1  0.48453092  0.68866609  0.49905201  1
  In  In19  1  0.03518593  0.01048374  0.34841463  1
  In  In20  1  0.50818345  0.32861230  0.82530446  1
  In  In21  1  0.32762491  0.00013656  0.36627320  1
  In  In22  1  -0.00661974  0.83737000  0.82356235  1
  In  In23  1  0.64272384  0.85042471  0.81405220  1
  In  In24  1  0.86375082  0.18124330  -0.01824908  1
  In  In25  1  0.49923674  0.32825707  0.49892973  1
  In  In26  1  0.49020544  0.65244857  0.16982462  1
  In  In27  1  0.84065647  0.47294920  0.67495771  1
  In  In28  1  0.00797433  0.48834407  0.81981862  1
  In  In29  1  0.14992747  0.49191697  0.65006023  1
  In  In30  1  0.84671633  0.32951826  0.49392282  1
  In  In31  1  0.49450902  0.17292624  -0.00781672  1
  In  In32  1  0.70153715  0.13030236  0.78940056  1
  In  In33  1  0.64862454  0.49351232  0.16464400  1
  In  In34  1  0.83336653  0.00542525  0.15880925  1
  In  In35  1  0.65948052  -0.02485774  -0.01399684  1
  In  In36  1  0.35421340  0.49195446  0.85371648  1
  In  In37  1  0.47141522  0.33400618  0.16998617  1
  In  In38  1  0.15783341  0.00778370  0.16843702  1
  In  In39  1  0.83417236  0.67444940  0.82791632  1
  In  In40  1  0.80979924  0.82828619  0.34796151  1
  In  In41  1  0.67348677  0.15203454  0.18100575  1
  In  In42  1  -0.00204883  0.01660574  0.65781119  1
  In  In43  1  0.34193321  0.01354509  0.65121286  1
  In  In44  1  0.34246438  0.51001046  0.48733584  1
  In  In45  1  0.84578248  0.65722474  0.16193719  1
  In  In46  1  0.68008766  0.48435714  0.50110703  1
  In  In47  1  0.15236094  0.35159505  0.47365692  1
  In  In48  1  0.48910977  0.03151331  0.16267049  1
  In  In49  1  0.00896740  0.32018128  0.65442361  1
  In  In50  1  0.68633484  0.68891642  0.35317038  1
  In  In51  1  0.83416332  0.17937424  0.34445215  1
  In  In52  1  0.62184821  0.00912814  0.33182649  1
  In  In53  1  0.81783751  0.82199518  -0.01463898  1
  In  In54  1  0.14710163  0.84666177  0.02042332  1
  In  In55  1  0.32001742  0.66145990  0.01157062  1
  In  In56  1  0.65049332  0.15362784  0.52181002  1
  In  In57  1  0.02569968  0.83444380  0.16668353  1
  In  In58  1  0.50542273  0.50320881  0.32460378  1
  In  In59  1  0.32720362  0.16931514  0.50957971  1
  In  In60  1  0.16384434  0.18286760  0.33299303  1
  In  In61  1  0.66429658  0.32653296  0.65537062  1
  In  In62  1  0.64465438  0.64518406  0.69872610  1
  In  In63  1  -0.01254230  0.81719573  0.51741467  1
  In  In64  1  0.47985529  0.84948305  0.36220435  1
  In  In65  1  0.01142658  0.32662717  0.01830801  1
  In  In66  1  0.17051079  0.84440518  0.67496167  1
  In  In67  1  0.34985676  0.83546680  0.81679468  1
  In  In68  1  0.48847732  0.83691290  0.65247894  1
  In  In69  1  0.29231264  0.02067513  -0.02655780  1
  In  In70  1  0.33793147  0.66834787  0.67859834  1
  In  In71  1  0.47476428  0.00381885  0.81841623  1
  Te  Te72  1  0.10097721  0.10720927  0.06725335  1
  Te  Te73  1  0.11904760  0.08857016  0.44235718  1
  Te  Te74  1  0.09832587  0.08653668  0.74623737  1
  Te  Te75  1  0.10681661  0.40790506  0.09586784  1
  Te  Te76  1  0.06135149  0.44519047  0.40023127  1
  Te  Te77  1  0.10284147  0.38976239  0.75503957  1
  Te  Te78  1  0.09269168  0.72363978  0.08750591  1
  Te  Te79  1  0.07769925  0.74726354  0.41625415  1
  Te  Te80  1  0.06938351  0.74322662  0.72786220  1
  Te  Te81  1  0.38732900  0.09772315  0.07059866  1
  Te  Te82  1  0.42378036  0.09621704  0.42364280  1
  Te  Te83  1  0.39498523  0.11033769  0.75333653  1
  Te  Te84  1  0.43128543  0.43224076  0.06915139  1
  Te  Te85  1  0.41306710  0.40637292  0.40016304  1
  Te  Te86  1  0.40901012  0.40756115  0.73902381  1
  Te  Te87  1  0.39789241  0.75629254  0.10464276  1
  Te  Te88  1  0.39094498  0.73174924  0.39035401  1
  Te  Te89  1  0.44959337  0.73574770  0.76054926  1
  Te  Te90  1  0.74823780  0.08237628  0.05900720  1
  Te  Te91  1  0.74305583  0.07097801  0.40537840  1
  Te  Te92  1  0.78026052  0.04588592  0.69875128  1
  Te  Te93  1  0.76057647  0.41815654  0.09193797  1
  Te  Te94  1  0.75409693  0.40366240  0.39796499  1
  Te  Te95  1  0.72651314  0.41933531  0.76146525  1
  Te  Te96  1  0.74122008  0.71539863  0.06406828  1
  Te  Te97  1  0.78652324  0.73162415  0.46737080  1
  Te  Te98  1  0.74175975  0.75763324  0.73896279  1
  Te  Te99  1  0.09685788  0.28917208  0.24674590  1
  Te  Te100  1  0.11481426  0.25312466  0.57770342  1
  Te  Te101  1  0.10383714  0.24495310  0.93194562  1
  Te  Te102  1  0.09076437  0.57379124  0.23784525  1
  Te  Te103  1  0.06883998  0.59331323  0.58165493  1
  Te  Te104  1  0.07489043  0.58425554  0.91805599  1
  Te  Te105  1  0.11342702  0.90183755  0.27233812  1
  Te  Te106  1  0.08495737  0.91834496  0.57337444  1
  Te  Te107  1  0.09288466  0.92552025  0.90169715  1
  Te  Te108  1  0.35776780  0.26196157  0.22826130  1
  Te  Te109  1  0.42432121  0.24391867  0.60140731  1
  Te  Te110  1  0.40263290  0.25745727  0.90818588  1
  Te  Te111  1  0.39739932  0.57573108  0.25446819  1
  Te  Te112  1  0.42930602  0.58118602  0.59315069  1
  Te  Te113  1  0.41784431  0.60952082  0.91419265  1
  Te  Te114  1  0.41583917  0.93204883  0.25144142  1
  Te  Te115  1  0.38235360  0.89556952  0.56829817  1
  Te  Te116  1  0.41941151  0.91891986  0.93462717  1
  Te  Te117  1  0.75775217  0.25481956  0.24384730  1
  Te  Te118  1  0.76403582  0.23778171  0.58440846  1
  Te  Te119  1  0.73237525  0.24068736  0.91470208  1
  Te  Te120  1  0.74340387  0.58529067  0.25515980  1
  Te  Te121  1  0.74540704  0.57226144  0.60640061  1
  Te  Te122  1  0.74778888  0.57348979  0.89436075  1
  Te  Te123  1  0.73668579  0.92730180  0.24824583  1
  Te  Te124  1  0.75671451  0.92943384  0.59432189  1
  Te  Te125  1  0.76062271  0.92133360  0.88612579  1
  Te  Te126  1  0.25250909  0.26265475  0.12241313  1
  Te  Te127  1  0.26614951  0.26781593  0.40984169  1
  Te  Te128  1  0.23615995  0.18942593  0.75126121  1
  Te  Te129  1  0.26276752  0.56227822  0.11043014  1
  Te  Te130  1  0.24210136  0.57883144  0.39740807  1
  Te  Te131  1  0.24392470  0.57434607  0.75331420  1
  Te  Te132  1  0.25756534  0.92168576  0.09004424  1
  Te  Te133  1  0.24301945  0.88372952  0.39760077  1
  Te  Te134  1  0.25442676  0.93768956  0.76003519  1
  Te  Te135  1  0.58889423  0.25042933  0.08360250  1
  Te  Te136  1  0.60440512  0.25500261  0.42595736  1
  Te  Te137  1  0.59095360  0.22579552  0.74330872  1
  Te  Te138  1  0.57546749  0.58199310  0.07275316  1
  Te  Te139  1  0.58628867  0.58705172  0.42569263  1
  Te  Te140  1  0.58643205  0.54481469  0.78847637  1
  Te  Te141  1  0.57850692  0.91801597  0.10149880  1
  Te  Te142  1  0.55873337  0.94395635  0.45598287  1
  Te  Te143  1  0.57436869  0.95235138  0.71136905  1
  Te  Te144  1  0.90075784  0.25549804  0.10638763  1
  Te  Te145  1  0.94337987  0.23730772  0.42516566  1
  Te  Te146  1  0.90978362  0.23413523  0.73401712  1
  Te  Te147  1  0.93370703  0.55997843  0.09567001  1
  Te  Te148  1  0.89640912  0.57916581  0.41849423  1
  Te  Te149  1  0.92383078  0.58498218  0.73895313  1
  Te  Te150  1  0.91816717  0.90882947  0.07477605  1
  Te  Te151  1  0.92134881  0.92005524  0.40386734  1
  Te  Te152  1  0.91034214  0.91984280  0.73194719  1
  Te  Te153  1  0.25319491  0.08464636  0.25707645  1
  Te  Te154  1  0.23233880  0.06534817  0.56199175  1
  Te  Te155  1  0.23062148  0.13133277  0.89751941  1
  Te  Te156  1  0.19497865  0.44697929  0.33105317  1
  Te  Te157  1  0.26409227  0.41592153  0.58129378  1
  Te  Te158  1  0.24270803  0.40539734  0.90608068  1
  Te  Te159  1  0.26007783  0.77280328  0.29005765  1
  Te  Te160  1  0.26440101  0.76136363  0.58383901  1
  Te  Te161  1  0.24973740  0.76709309  0.91379392  1
  Te  Te162  1  0.54855754  0.12726427  0.26628601  1
  Te  Te163  1  0.56714373  0.05773329  0.59283277  1
  Te  Te164  1  0.58311674  0.07972442  0.90410953  1
  Te  Te165  1  0.58353857  0.39124862  0.25677769  1
  Te  Te166  1  0.57087725  0.42812652  0.59136992  1
  Te  Te167  1  0.57171384  0.44005521  0.90679571  1
  Te  Te168  1  0.57660530  0.76010140  0.27054956  1
  Te  Te169  1  0.59926873  0.75338019  0.57753690  1
  Te  Te170  1  0.60544440  0.75093342  0.91673372  1
  Te  Te171  1  0.93412853  0.07599523  0.24760394  1
  Te  Te172  1  0.94643542  0.11409818  0.55519007  1
  Te  Te173  1  0.91095448  0.07256770  0.88918850  1
  Te  Te174  1  0.97016968  0.38350989  0.28487926  1
  Te  Te175  1  0.93870636  0.42585411  0.56865665  1
  Te  Te176  1  0.91911908  0.39941752  0.90953737  1
  Te  Te177  1  0.91258441  0.76439978  0.24826413  1
  Te  Te178  1  0.87679695  0.75651238  0.58969998  1
  Te  Te179  1  0.93289901  0.74126533  0.92694768  1
