# generated using pymatgen
data_In2Te3
_symmetry_space_group_name_H-M   'P 1'
_cell_length_a   18.84386083
_cell_length_b   18.84311198
_cell_length_c   18.85030651
_cell_angle_alpha   89.88178143
_cell_angle_beta   90.02164044
_cell_angle_gamma   90.03759723
_symmetry_Int_Tables_number   1
_chemical_formula_structural   In2Te3
_chemical_formula_sum   'In72 Te108'
_cell_volume   6693.29373759
_cell_formula_units_Z   36
loop_
 _symmetry_equiv_pos_site_id
 _symmetry_equiv_pos_as_xyz
  1  'x, y, z'
loop_
 _atom_site_type_symbol
 _atom_site_label
 _atom_site_symmetry_multiplicity
 _atom_site_fract_x
 _atom_site_fract_y
 _atom_site_fract_z
 _atom_site_occupancy
  In  In0  1  0.65188336  0.64114346  -0.01809323  1
  In  In1  1  0.66547769  -0.00347470  0.66317728  1
  In  In2  1  0.47978559  0.50801101  0.00767815  1
  In  In3  1  0.82915155  0.83044748  0.32479133  1
  In  In4  1  0.16571742  0.33677630  0.16472329  1
  In  In5  1  0.35265433  -0.03291714  -0.02831862  1
  In  In6  1  0.31688111  0.34855124  0.66773853  1
  In  In7  1  0.51063987  0.47014553  0.63755964  1
  In  In8  1  0.50643334  0.14776097  0.66177621  1
  In  In9  1  0.49468076  0.65602611  0.84489010  1
  In  In10  1  0.16988096  0.65055529  0.50362274  1
  In  In11  1  0.65951276  0.15897150  0.48446011  1
  In  In12  1  0.00718919  0.19012334  0.50228935  1
  In  In13  1  0.16832611  0.16901248  0.32615149  1
  In  In14  1  0.82677141  0.47731984  0.35652866  1
  In  In15  1  0.66537504  0.84068157  0.16420320  1
  In  In16  1  0.00240020  0.17702957  0.83317770  1
  In  In17  1  0.50348783  0.83714118  0.36098416  1
  In  In18  1  0.65782395  0.81979610  0.83223146  1
  In  In19  1  0.01813073  0.65479676  0.33113938  1
  In  In20  1  -0.00320072  0.80289872  0.51299049  1
  In  In21  1  0.48904499  0.66889473  0.50780147  1
  In  In22  1  0.17911950  0.67589831  0.85085089  1
  In  In23  1  0.83172143  0.32341610  0.52009029  1
  In  In24  1  0.18899787  0.81187196  0.01039605  1
  In  In25  1  0.03027135  0.36297339  0.36978219  1
  In  In26  1  0.79707116  -0.00668419  0.49008356  1
  In  In27  1  -0.00377601  0.83404323  0.82832705  1
  In  In28  1  0.82170766  0.14352043  0.64896647  1
  In  In29  1  0.33945499  0.16518844  0.50649683  1
  In  In30  1  0.67109484  0.32255595  0.34389183  1
  In  In31  1  0.01611048  0.85835739  0.15616603  1
  In  In32  1  0.49387039  0.01253610  0.19143982  1
  In  In33  1  0.82290592  0.67069351  0.14859121  1
  In  In34  1  0.65611946  0.52713389  0.17073063  1
  In  In35  1  0.34104305  -0.00865677  0.34127556  1
  In  In36  1  0.20511162  -0.00346163  0.50447341  1
  In  In37  1  0.64515078  0.14511832  0.19113723  1
  In  In38  1  0.13528897  0.15980206  -0.02112870  1
  In  In39  1  0.67602588  0.49900450  0.81993495  1
  In  In40  1  0.49193313  0.33279867  0.82501598  1
  In  In41  1  0.86054477  0.47254054  -0.04240934  1
  In  In42  1  0.32790783  0.35784995  0.00550027  1
  In  In43  1  0.00654885  -0.00651148  0.31468355  1
  In  In44  1  0.34905066  0.19580183  0.18194806  1
  In  In45  1  0.00207495  0.68198544  0.00163998  1
  In  In46  1  0.51890434  0.15572247  0.01438386  1
  In  In47  1  0.01589103  0.51462536  0.18464128  1
  In  In48  1  0.66649880  0.16777223  0.85659249  1
  In  In49  1  0.00370651  -0.00219964  0.68204790  1
  In  In50  1  0.01576763  0.33164511  0.66213344  1
  In  In51  1  0.16736120  -0.00820413  0.13598876  1
  In  In52  1  0.34536391  0.33433291  0.34342446  1
  In  In53  1  0.84730175  0.16651269  -0.01144270  1
  In  In54  1  0.82775916  0.00289548  0.15880655  1
  In  In55  1  0.16817619  -0.00603555  0.81346074  1
  In  In56  1  0.46790822  0.86118773  0.63395028  1
  In  In57  1  0.82626269  0.33914724  0.14114124  1
  In  In58  1  0.66186462  0.68836393  0.65424456  1
  In  In59  1  0.34046448  0.65348682  0.66342292  1
  In  In60  1  0.18661708  0.83488764  0.67356148  1
  In  In61  1  0.65172418  -0.01702738  -0.01500205  1
  In  In62  1  0.33529044  0.17465020  0.81397078  1
  In  In63  1  0.65488337  0.68260460  0.34856583  1
  In  In64  1  0.84712469  0.50412330  0.68234214  1
  In  In65  1  0.14869643  0.50798437  0.65977889  1
  In  In66  1  0.33356714  0.54100062  0.17715213  1
  In  In67  1  0.83278037  0.65375849  0.50079965  1
  In  In68  1  0.16980571  0.49663102  -0.00662823  1
  In  In69  1  -0.00518707  0.00387619  0.00624557  1
  In  In70  1  0.66466128  0.31430320  0.00667225  1
  In  In71  1  0.48357063  0.50432300  0.33885173  1
  Te  Te72  1  0.06497977  0.09907174  0.10170222  1
  Te  Te73  1  0.09024928  0.07751679  0.42014238  1
  Te  Te74  1  0.09757936  0.10494700  0.73664882  1
  Te  Te75  1  0.07083789  0.41914624  0.07863680  1
  Te  Te76  1  0.13184974  0.44729983  0.43606601  1
  Te  Te77  1  0.05748789  0.43883065  0.76056967  1
  Te  Te78  1  0.09445470  0.73712947  0.10808492  1
  Te  Te79  1  0.09750641  0.75709507  0.40912687  1
  Te  Te80  1  0.08928213  0.74478621  0.74757470  1
  Te  Te81  1  0.40489678  0.08156360  0.08321750  1
  Te  Te82  1  0.42535672  0.08126510  0.42132133  1
  Te  Te83  1  0.42774944  0.07333038  0.76304812  1
  Te  Te84  1  0.41486458  0.41884802  0.11207001  1
  Te  Te85  1  0.41233340  0.42401954  0.44088813  1
  Te  Te86  1  0.41245193  0.43682462  0.75160851  1
  Te  Te87  1  0.34914114  0.72869503  0.08464629  1
  Te  Te88  1  0.39883962  0.75170934  0.42389931  1
  Te  Te89  1  0.43609305  0.74637523  0.73384631  1
  Te  Te90  1  0.73255757  0.09267461  0.06989406  1
  Te  Te91  1  0.77703425  0.11120661  0.40766934  1
  Te  Te92  1  0.74793608  0.07603523  0.76394678  1
  Te  Te93  1  0.73512032  0.44119674  0.07141288  1
  Te  Te94  1  0.72404171  0.42151402  0.45384632  1
  Te  Te95  1  0.76025947  0.40367476  0.74821814  1
  Te  Te96  1  0.73140636  0.75040897  0.06000476  1
  Te  Te97  1  0.74834125  0.76498454  0.43572602  1
  Te  Te98  1  0.75210729  0.72266608  0.76756764  1
  Te  Te99  1  0.07028292  0.26447934  0.25964040  1
  Te  Te100  1  0.11231884  0.25442692  0.58088967  1
  Te  Te101  1  0.07348070  0.27917491  0.91515272  1
  Te  Te102  1  0.12640143  0.57372137  0.26534866  1
  Te  Te103  1  0.06089351  0.60716496  0.59260746  1
  Te  Te104  1  0.07196727  0.58313795  0.91097053  1
  Te  Te105  1  0.11908716  0.90737194  0.25611791  1
  Te  Te106  1  0.08753677  0.91311039  0.58174604  1
  Te  Te107  1  0.09512199  0.91610769  0.93034866  1
  Te  Te108  1  0.44561437  0.24255897  0.28138377  1
  Te  Te109  1  0.41942085  0.25758951  0.59852581  1
  Te  Te110  1  0.42205271  0.24899721  0.93280302  1
  Te  Te111  1  0.40982799  0.62191822  0.27955797  1
  Te  Te112  1  0.40144925  0.55550080  0.56467161  1
  Te  Te113  1  0.38963028  0.58181287  0.91741525  1
  Te  Te114  1  0.41484273  0.89527578  0.24814024  1
  Te  Te115  1  0.35301498  0.95038270  0.59705851  1
  Te  Te116  1  0.43633855  0.86267541  0.91482374  1
  Te  Te117  1  0.75162565  0.24700349  0.23773378  1
  Te  Te118  1  0.72217450  0.24624964  0.59537668  1
  Te  Te119  1  0.76872601  0.27044372  0.90555280  1
  Te  Te120  1  0.76313958  0.59269096  0.26907891  1
  Te  Te121  1  0.73933247  0.57491754  0.59036793  1
  Te  Te122  1  0.77195708  0.58394457  0.90366537  1
  Te  Te123  1  0.73697102  0.93519681  0.26265869  1
  Te  Te124  1  0.76482577  0.90452736  0.60103532  1
  Te  Te125  1  0.74972654  0.91116087  0.90444559  1
  Te  Te126  1  0.24203758  0.23866259  0.07503728  1
  Te  Te127  1  0.24358877  0.25370530  0.42552573  1
  Te  Te128  1  0.23691746  0.27238750  0.76818402  1
  Te  Te129  1  0.25866413  0.60160868  0.05711167  1
  Te  Te130  1  0.22864042  0.56376677  0.39808703  1
  Te  Te131  1  0.24779837  0.57795480  0.75537276  1
  Te  Te132  1  0.28348146  0.90197650  0.09228107  1
  Te  Te133  1  0.25747365  0.89373000  0.41459483  1
  Te  Te134  1  0.28191167  0.91960311  0.75138573  1
  Te  Te135  1  0.57174353  0.25798291  0.11318918  1
  Te  Te136  1  0.56568631  0.25987126  0.42681293  1
  Te  Te137  1  0.58907205  0.24578688  0.75065597  1
  Te  Te138  1  0.55276701  0.60900272  0.09630848  1
  Te  Te139  1  0.58471107  0.57846841  0.43087613  1
  Te  Te140  1  0.57428876  0.58045222  0.73598211  1
  Te  Te141  1  0.55962692  0.91958977  0.08761311  1
  Te  Te142  1  0.60854853  0.93630784  0.38538564  1
  Te  Te143  1  0.57115437  0.90721026  0.74236500  1
  Te  Te144  1  0.92654638  0.25935064  0.06989536  1
  Te  Te145  1  0.91566351  0.26544440  0.40641686  1
  Te  Te146  1  0.91149515  0.23917234  0.72809354  1
  Te  Te147  1  0.91334498  0.56951499  0.07973153  1
  Te  Te148  1  0.93230491  0.56778892  0.42209489  1
  Te  Te149  1  0.90117987  0.63233529  0.73089504  1
  Te  Te150  1  0.89838202  0.90253664  0.07026441  1
  Te  Te151  1  0.92685341  0.90732253  0.41496346  1
  Te  Te152  1  0.90379100  0.90445635  0.73526859  1
  Te  Te153  1  0.25331715  0.08003876  0.23670237  1
  Te  Te154  1  0.26313356  0.08516470  0.60987533  1
  Te  Te155  1  0.25054127  0.07714620  0.92032050  1
  Te  Te156  1  0.26206771  0.41816197  0.24594281  1
  Te  Te157  1  0.23025259  0.42184972  0.56847906  1
  Te  Te158  1  0.24471517  0.41163189  0.89767048  1
  Te  Te159  1  0.28582195  0.70247282  0.21366648  1
  Te  Te160  1  0.26379200  0.74951162  0.57446513  1
  Te  Te161  1  0.27604409  0.78263287  0.89200494  1
  Te  Te162  1  0.57645052  0.06799595  0.30523766  1
  Te  Te163  1  0.57186116  0.05570789  0.55915727  1
  Te  Te164  1  0.55750786  0.06666570  0.89766304  1
  Te  Te165  1  0.58887587  0.42562094  0.25876663  1
  Te  Te166  1  0.61345709  0.39029927  0.57276186  1
  Te  Te167  1  0.57985421  0.41919649  0.92302529  1
  Te  Te168  1  0.57194561  0.75172618  0.24463983  1
  Te  Te169  1  0.57905039  0.77970869  0.56433087  1
  Te  Te170  1  0.55365390  0.75939613  0.94176456  1
  Te  Te171  1  0.91718348  0.08488577  0.24180323  1
  Te  Te172  1  0.92763751  0.07281887  0.56480944  1
  Te  Te173  1  0.91468411  0.06695832  0.89437106  1
  Te  Te174  1  0.91491268  0.41659050  0.24816796  1
  Te  Te175  1  0.93032299  0.42314947  0.57459845  1
  Te  Te176  1  0.95172889  0.39931957  0.87002920  1
  Te  Te177  1  0.92387139  0.74785815  0.23824300  1
  Te  Te178  1  0.90509017  0.73249483  0.60986225  1
  Te  Te179  1  0.90853929  0.76614797  0.92692211  1
