# generated using pymatgen
data_In2Te3
_symmetry_space_group_name_H-M   'P 1'
_cell_length_a   18.92997366
_cell_length_b   18.90455409
_cell_length_c   18.91924996
_cell_angle_alpha   89.94226913
_cell_angle_beta   90.01944233
_cell_angle_gamma   90.22158197
_symmetry_Int_Tables_number   1
_chemical_formula_structural   In2Te3
_chemical_formula_sum   'In72 Te108'
_cell_volume   6770.43963334
_cell_formula_units_Z   36
loop_
 _symmetry_equiv_pos_site_id
 _symmetry_equiv_pos_as_xyz
  1  'x, y, z'
loop_
 _atom_site_type_symbol
 _atom_site_label
 _atom_site_symmetry_multiplicity
 _atom_site_fract_x
 _atom_site_fract_y
 _atom_site_fract_z
 _atom_site_occupancy
  In  In0  1  0.67057859  0.33814010  0.61314875  1
  In  In1  1  0.88369562  0.18137633  0.34895966  1
  In  In2  1  0.66197816  0.81137281  0.50147873  1
  In  In3  1  0.17063669  0.16945057  -0.02219325  1
  In  In4  1  0.50049564  0.49614723  0.32217366  1
  In  In5  1  0.33448007  0.51427079  0.16341950  1
  In  In6  1  0.18081976  0.50581347  0.32362758  1
  In  In7  1  0.34340303  0.32984088  0.33573395  1
  In  In8  1  0.66604209  0.51440135  0.13938664  1
  In  In9  1  0.01960304  0.51285327  0.47499228  1
  In  In10  1  0.16406787  0.67650244  0.47973060  1
  In  In11  1  0.49028958  0.85939714  0.32279041  1
  In  In12  1  0.15206636  0.85421725  0.65784029  1
  In  In13  1  0.83455501  0.84038451  0.01235463  1
  In  In14  1  0.83476575  0.30912847  0.82746581  1
  In  In15  1  0.80550270  0.16553397  0.65948832  1
  In  In16  1  0.14949706  0.67882702  0.86355247  1
  In  In17  1  0.48959797  0.19529293  0.64588741  1
  In  In18  1  0.49926675  0.33528633  0.16243608  1
  In  In19  1  0.02383756  0.68276799  0.03521653  1
  In  In20  1  0.00577900  0.85783400  0.85098900  1
  In  In21  1  0.47296670  0.80323711  0.72167605  1
  In  In22  1  0.86301071  -0.01068316  0.45246267  1
  In  In23  1  0.65573798  0.15728395  0.83307660  1
  In  In24  1  0.31930725  0.17520293  0.82803536  1
  In  In25  1  -0.01412417  0.67751350  0.64440783  1
  In  In26  1  0.15382307  0.83124259  0.32770611  1
  In  In27  1  0.47595445  -0.00752197  0.84801935  1
  In  In28  1  -0.00309871  0.14985313  0.83073075  1
  In  In29  1  0.68556464  0.19120332  0.18828183  1
  In  In30  1  0.17521075  0.66643165  0.18796352  1
  In  In31  1  0.66540433  0.66729878  0.33501523  1
  In  In32  1  0.33131517  -0.02600673  0.32595174  1
  In  In33  1  0.84587671  0.16464561  -0.00616189  1
  In  In34  1  0.82408930  0.68228049  0.82844141  1
  In  In35  1  0.32630195  0.82566887  0.84376947  1
  In  In36  1  0.31285204  0.16830303  0.16062398  1
  In  In37  1  0.10540016  0.21047442  0.31878347  1
  In  In38  1  0.31230862  0.01139894  0.65367855  1
  In  In39  1  0.34682352  0.66119541  0.70052500  1
  In  In40  1  0.00451326  0.35315938  0.03094666  1
  In  In41  1  0.67545104  -0.01051101  -0.00707547  1
  In  In42  1  0.85003275  0.69249740  0.19111233  1
  In  In43  1  0.50855409  0.80175495  0.00769796  1
  In  In44  1  0.47901821  0.35422903  0.83230272  1
  In  In45  1  0.48670482  0.64497051  0.51857699  1
  In  In46  1  0.83967365  0.82269218  0.64594412  1
  In  In47  1  0.83141412  0.51079549  -0.00017526  1
  In  In48  1  0.16851756  -0.00519385  0.16725263  1
  In  In49  1  0.48247698  0.01840434  0.17539679  1
  In  In50  1  0.21390283  0.34720092  0.82080296  1
  In  In51  1  0.83055885  0.48400223  0.62071904  1
  In  In52  1  0.86325599  0.66046163  0.49294394  1
  In  In53  1  0.66331008  0.64622387  0.68450941  1
  In  In54  1  0.34214256  0.34607405  -0.00608114  1
  In  In55  1  0.01146025  0.01262515  0.65599925  1
  In  In56  1  0.19145340  0.48866570  0.67342857  1
  In  In57  1  0.65490551  0.48037442  0.82928541  1
  In  In58  1  0.65816382  0.00593317  0.66941807  1
  In  In59  1  0.49127705  0.33000326  0.50409590  1
  In  In60  1  0.69069302  0.20474373  0.47933545  1
  In  In61  1  0.51910809  0.14627633  0.35164422  1
  In  In62  1  0.33066868  0.17540094  0.49862719  1
  In  In63  1  0.00365619  0.52300717  0.82811450  1
  In  In64  1  0.07692235  0.32334230  0.60687583  1
  In  In65  1  0.50194340  0.64943894  0.15510938  1
  In  In66  1  0.51398130  -0.02044644  0.52580853  1
  In  In67  1  0.32242729  0.81487911  0.49658597  1
  In  In68  1  0.00855375  -0.00062421  0.02447694  1
  In  In69  1  0.69147031  0.84249313  0.16552673  1
  In  In70  1  0.84901130  0.00779742  0.19644060  1
  In  In71  1  0.86310305  0.36850769  0.18980578  1
  Te  Te72  1  0.09217449  0.10484727  0.09279846  1
  Te  Te73  1  0.03799034  0.11940385  0.41916228  1
  Te  Te74  1  0.10247212  0.08004599  0.75402291  1
  Te  Te75  1  0.07664281  0.43657087  0.13064356  1
  Te  Te76  1  0.10441337  0.40787336  0.41003527  1
  Te  Te77  1  0.08108140  0.41655320  0.75642883  1
  Te  Te78  1  0.09320420  0.78000568  0.12482211  1
  Te  Te79  1  0.06120447  0.72140795  0.38194968  1
  Te  Te80  1  0.06969596  0.75052712  0.75115718  1
  Te  Te81  1  0.38800529  0.07358683  0.07741205  1
  Te  Te82  1  0.41754610  0.06156051  0.42989596  1
  Te  Te83  1  0.42564155  0.08597799  0.73157244  1
  Te  Te84  1  0.43294465  0.43918684  0.07476460  1
  Te  Te85  1  0.40725596  0.43211880  0.42503280  1
  Te  Te86  1  0.34881544  0.40311781  0.76318808  1
  Te  Te87  1  0.40256078  0.71907993  0.07034944  1
  Te  Te88  1  0.43601179  0.75401190  0.41906682  1
  Te  Te89  1  0.42662221  0.70373889  0.83267816  1
  Te  Te90  1  0.75707195  0.07928791  0.08766603  1
  Te  Te91  1  0.76593439  0.09227707  0.40305411  1
  Te  Te92  1  0.75810596  0.06726481  0.76682704  1
  Te  Te93  1  0.75909608  0.40668944  0.08345258  1
  Te  Te94  1  0.73137564  0.37917102  0.48361036  1
  Te  Te95  1  0.76090996  0.40799676  0.73512856  1
  Te  Te96  1  0.74846945  0.73431945  0.07814721  1
  Te  Te97  1  0.76656911  0.75073739  0.41153213  1
  Te  Te98  1  0.73448600  0.76813778  0.74230853  1
  Te  Te99  1  0.06000533  0.31066397  0.21068328  1
  Te  Te100  1  0.08062741  0.18543283  0.55259003  1
  Te  Te101  1  0.05613315  0.25516536  0.92424772  1
  Te  Te102  1  0.06691192  0.56664456  0.24225639  1
  Te  Te103  1  0.09505624  0.58506993  0.59543808  1
  Te  Te104  1  0.08213814  0.56935200  0.94817125  1
  Te  Te105  1  0.07386008  0.94623499  0.27435461  1
  Te  Te106  1  0.07863180  0.92729053  0.55501758  1
  Te  Te107  1  0.10447277  0.92480598  0.93741530  1
  Te  Te108  1  0.42551010  0.22697782  0.25731438  1
  Te  Te109  1  0.37506672  0.28024344  0.59881105  1
  Te  Te110  1  0.42191632  0.24125225  0.91866200  1
  Te  Te111  1  0.40814605  0.60002425  0.26538792  1
  Te  Te112  1  0.38682303  0.56811313  0.59423692  1
  Te  Te113  1  0.43747391  0.49784693  0.84322117  1
  Te  Te114  1  0.39198761  0.89593706  0.21231851  1
  Te  Te115  1  0.40673350  0.90064729  0.59884042  1
  Te  Te116  1  0.40692182  0.90471384  0.94780203  1
  Te  Te117  1  0.77917156  0.27262149  0.27519209  1
  Te  Te118  1  0.81737298  0.26340225  0.54213867  1
  Te  Te119  1  0.73832087  0.24748189  0.92671856  1
  Te  Te120  1  0.75271265  0.58445851  0.24402042  1
  Te  Te121  1  0.74227770  0.59396302  0.56702661  1
  Te  Te122  1  0.73761810  0.58675760  0.90772146  1
  Te  Te123  1  0.76583863  0.91069749  0.27138123  1
  Te  Te124  1  0.74333819  0.92131552  0.57455858  1
  Te  Te125  1  0.75104940  0.89842172  0.90770386  1
  Te  Te126  1  0.23779139  0.26677469  0.07563103  1
  Te  Te127  1  0.23828677  0.24157811  0.39847867  1
  Te  Te128  1  0.20213568  0.21755591  0.74679894  1
  Te  Te129  1  0.25375792  0.60407517  0.07868473  1
  Te  Te130  1  0.25830901  0.57993304  0.42735611  1
  Te  Te131  1  0.23887331  0.58858699  0.78168737  1
  Te  Te132  1  0.20185073  0.88213279  0.07702457  1
  Te  Te133  1  0.23693312  0.91916703  0.43119224  1
  Te  Te134  1  0.24418928  0.92266219  0.75752504  1
  Te  Te135  1  0.57786131  0.23026121  0.09741960  1
  Te  Te136  1  0.58290465  0.27537899  0.39546365  1
  Te  Te137  1  0.60028607  0.25455130  0.73080651  1
  Te  Te138  1  0.57790210  0.58596742  0.04718402  1
  Te  Te139  1  0.58555218  0.57325332  0.42321489  1
  Te  Te140  1  0.55829419  0.55770622  0.74334169  1
  Te  Te141  1  0.58083296  0.91945612  0.09325548  1
  Te  Te142  1  0.59697717  0.92027789  0.41411318  1
  Te  Te143  1  0.57224961  0.91673019  0.75809753  1
  Te  Te144  1  0.91234449  0.25160298  0.09730815  1
  Te  Te145  1  0.98884502  0.28631312  0.38456782  1
  Te  Te146  1  0.92435005  0.23709512  0.72960973  1
  Te  Te147  1  0.91637672  0.59222336  0.09506410  1
  Te  Te148  1  0.89404894  0.54720636  0.40060010  1
  Te  Te149  1  0.89451141  0.58513582  0.73224274  1
  Te  Te150  1  0.92766968  0.90356081  0.11054989  1
  Te  Te151  1  0.93824777  0.90434913  0.35740527  1
  Te  Te152  1  0.92186147  0.91301948  0.73872901  1
  Te  Te153  1  0.24454406  0.08416635  0.26838840  1
  Te  Te154  1  0.22503000  0.09535975  0.56805460  1
  Te  Te155  1  0.26844572  0.07471988  0.92303410  1
  Te  Te156  1  0.25919610  0.40420487  0.23535039  1
  Te  Te157  1  0.20202547  0.38967122  0.56405878  1
  Te  Te158  1  0.22956750  0.42516823  0.94354406  1
  Te  Te159  1  0.26277794  0.75155401  0.27149217  1
  Te  Te160  1  0.24648843  0.74388799  0.60857488  1
  Te  Te161  1  0.23315457  0.76808451  0.94620021  1
  Te  Te162  1  0.60301703  0.07263463  0.25159766  1
  Te  Te163  1  0.59415278  0.10891153  0.56736505  1
  Te  Te164  1  0.56929384  0.08005277  0.93129353  1
  Te  Te165  1  0.60022024  0.41836390  0.24011181  1
  Te  Te166  1  0.55232324  0.42313059  0.60093757  1
  Te  Te167  1  0.59100645  0.39007589  0.92476367  1
  Te  Te168  1  0.58150049  0.75709049  0.24546212  1
  Te  Te169  1  0.56671617  0.74923621  0.60391223  1
  Te  Te170  1  0.56337476  0.75439895  0.88007644  1
  Te  Te171  1  0.95145771  0.10132064  0.24462565  1
  Te  Te172  1  0.89502853  0.07166737  0.57683852  1
  Te  Te173  1  0.91467348  0.05511820  0.91666674  1
  Te  Te174  1  0.94561577  0.46908021  0.26463586  1
  Te  Te175  1  0.95445317  0.41503098  0.57526052  1
  Te  Te176  1  0.91040667  0.41804430  0.90616309  1
  Te  Te177  1  0.93900687  0.76038867  0.28917347  1
  Te  Te178  1  0.94420826  0.78160959  0.54351804  1
  Te  Te179  1  0.92931262  0.73906846  0.92202634  1
