# generated using pymatgen
data_In2Te3
_symmetry_space_group_name_H-M   'P 1'
_cell_length_a   18.78103781
_cell_length_b   18.77012225
_cell_length_c   18.78200378
_cell_angle_alpha   90.00685378
_cell_angle_beta   89.94199717
_cell_angle_gamma   90.05898066
_symmetry_Int_Tables_number   1
_chemical_formula_structural   In2Te3
_chemical_formula_sum   'In72 Te108'
_cell_volume   6621.06964558
_cell_formula_units_Z   36
loop_
 _symmetry_equiv_pos_site_id
 _symmetry_equiv_pos_as_xyz
  1  'x, y, z'
loop_
 _atom_site_type_symbol
 _atom_site_label
 _atom_site_symmetry_multiplicity
 _atom_site_fract_x
 _atom_site_fract_y
 _atom_site_fract_z
 _atom_site_occupancy
  In  In0  1  0.01798610  0.50432719  0.48550293  1
  In  In1  1  0.48241838  0.19797447  -0.00175180  1
  In  In2  1  0.69125742  0.81568092  0.15835340  1
  In  In3  1  0.84213349  0.15842138  0.67766980  1
  In  In4  1  0.84235334  0.50563583  0.63156618  1
  In  In5  1  0.03432466  0.47125115  0.80963575  1
  In  In6  1  0.17948914  0.68182085  0.50833568  1
  In  In7  1  0.00546915  0.81347811  0.19754599  1
  In  In8  1  0.31989500  0.16397415  0.48697058  1
  In  In9  1  0.02051377  0.01613865  0.68693654  1
  In  In10  1  0.65164069  0.80991899  0.83376360  1
  In  In11  1  0.48751433  0.84579589  0.00670213  1
  In  In12  1  0.50371793  0.34260543  0.49638554  1
  In  In13  1  0.19065472  -0.02139520  0.50697152  1
  In  In14  1  0.85453315  0.51593978  0.31804101  1
  In  In15  1  0.01716429  0.82597157  0.47295100  1
  In  In16  1  0.47426665  0.00551503  0.81459732  1
  In  In17  1  0.32815009  0.66314704  0.00827806  1
  In  In18  1  0.65756643  0.14125556  0.52442404  1
  In  In19  1  0.02206098  -0.00626566  0.33981052  1
  In  In20  1  0.64516340  -0.00802701  0.32747942  1
  In  In21  1  0.00973757  0.67558321  0.66950131  1
  In  In22  1  0.32081504  0.51528481  0.51604387  1
  In  In23  1  0.48521051  0.67807773  0.79201011  1
  In  In24  1  0.82463819  0.82692467  0.01145100  1
  In  In25  1  0.67413733  -0.00227055  0.01445573  1
  In  In26  1  0.82655985  0.00439708  0.17733121  1
  In  In27  1  0.84530453  0.17697268  0.32939946  1
  In  In28  1  0.64560036  0.65609337  0.66233923  1
  In  In29  1  0.84149799  0.34273881  0.82237651  1
  In  In30  1  0.31979438  0.51003732  0.18893338  1
  In  In31  1  0.16028326  0.35307685  0.16785114  1
  In  In32  1  0.34213266  0.16187056  0.16748409  1
  In  In33  1  0.02337722  0.82853732  0.84794592  1
  In  In34  1  0.34730578  0.32876495  -0.02906593  1
  In  In35  1  0.49154753  0.51320323  0.35301502  1
  In  In36  1  0.32292951  -0.00653499  0.01182542  1
  In  In37  1  0.46885996  0.33807545  0.85212094  1
  In  In38  1  0.48691265  0.31266054  0.17546092  1
  In  In39  1  -0.00325197  0.34884502  0.32872395  1
  In  In40  1  0.49352616  0.15221609  0.31477446  1
  In  In41  1  0.03111444  0.16540445  0.83734281  1
  In  In42  1  0.66882596  0.34252544  0.02086397  1
  In  In43  1  0.29988915  0.31195616  0.67197937  1
  In  In44  1  0.69821199  0.69042173  0.00835506  1
  In  In45  1  0.14736778  -0.00760904  0.15490096  1
  In  In46  1  0.48219798  0.14339336  0.68688906  1
  In  In47  1  0.17356108  0.66021970  0.82390937  1
  In  In48  1  0.16128507  0.18894556  0.33887779  1
  In  In49  1  0.00783959  0.00218149  -0.00829681  1
  In  In50  1  0.66680406  0.51355547  0.49559444  1
  In  In51  1  0.16875162  0.17053019  -0.02052752  1
  In  In52  1  0.67110261  0.31557653  0.31086732  1
  In  In53  1  0.84150081  -0.00238491  0.51810982  1
  In  In54  1  0.50811889  0.48794544  -0.01315441  1
  In  In55  1  0.65359175  0.18408066  0.85372328  1
  In  In56  1  0.66804824  0.34602112  0.64009454  1
  In  In57  1  0.83817148  0.85457004  0.63920295  1
  In  In58  1  0.32183387  -0.02489178  0.33581619  1
  In  In59  1  0.67563198  -0.02404834  0.64308874  1
  In  In60  1  0.13868487  0.83037244  0.01284185  1
  In  In61  1  0.46825441  0.67088246  0.50650384  1
  In  In62  1  0.50866444  0.67138856  0.16791575  1
  In  In63  1  0.30663947  0.49646997  0.81808517  1
  In  In64  1  0.69179506  0.49958078  0.17601304  1
  In  In65  1  0.86294684  0.35059356  0.48544096  1
  In  In66  1  0.86899612  0.53094859  0.00211415  1
  In  In67  1  0.48172868  0.83456188  0.33181460  1
  In  In68  1  0.44993267  0.83582048  0.64544370  1
  In  In69  1  0.83010934  0.66222323  0.84029820  1
  In  In70  1  0.16154363  0.49001936  0.00598570  1
  In  In71  1  0.84832506  0.02673392  0.83914286  1
  Te  Te72  1  0.07567017  0.10397155  0.08505320  1
  Te  Te73  1  0.09994509  0.08309594  0.43306224  1
  Te  Te74  1  0.12860583  0.11299691  0.73227747  1
  Te  Te75  1  0.05727534  0.43661392  0.09917442  1
  Te  Te76  1  0.10643277  0.42520644  0.39707975  1
  Te  Te77  1  0.12850852  0.38366528  0.72292425  1
  Te  Te78  1  0.06442468  0.72490459  0.09094325  1
  Te  Te79  1  0.08368119  0.71654535  0.38805548  1
  Te  Te80  1  0.10816779  0.77417078  0.73306619  1
  Te  Te81  1  0.43248570  0.07681817  0.08067208  1
  Te  Te82  1  0.41539529  0.06871943  0.41444408  1
  Te  Te83  1  0.36696167  0.04575051  0.71374543  1
  Te  Te84  1  0.40957860  0.42021861  0.08657021  1
  Te  Te85  1  0.39665990  0.41505660  0.41849092  1
  Te  Te86  1  0.40561473  0.41144511  0.73753555  1
  Te  Te87  1  0.40231630  0.75890749  0.10165014  1
  Te  Te88  1  0.38504996  0.76657411  0.42606148  1
  Te  Te89  1  0.36858006  0.76449149  0.75170778  1
  Te  Te90  1  0.77108474  0.09864485  0.07184141  1
  Te  Te91  1  0.75491603  0.08505891  0.41777789  1
  Te  Te92  1  0.72755626  0.08145166  0.74975124  1
  Te  Te93  1  0.78175982  0.42598544  0.08023041  1
  Te  Te94  1  0.74646233  0.41517948  0.40722122  1
  Te  Te95  1  0.75402331  0.43203738  0.73370201  1
  Te  Te96  1  0.80451420  0.71110724  0.12243132  1
  Te  Te97  1  0.79791564  0.70943220  0.38044189  1
  Te  Te98  1  0.76111122  0.75567380  0.74001750  1
  Te  Te99  1  0.06913234  0.24891826  0.23428226  1
  Te  Te100  1  0.06403301  0.29475159  0.61930835  1
  Te  Te101  1  0.07040242  0.27110468  0.93447472  1
  Te  Te102  1  0.08538133  0.62092939  0.26174314  1
  Te  Te103  1  0.09892762  0.57949619  0.59202835  1
  Te  Te104  1  0.07871605  0.57939461  0.91116341  1
  Te  Te105  1  0.11411487  0.89535566  0.26857138  1
  Te  Te106  1  0.07614561  0.91308844  0.58596272  1
  Te  Te107  1  0.11342066  0.94058826  0.89958428  1
  Te  Te108  1  0.38832842  0.25862591  0.27822250  1
  Te  Te109  1  0.42213602  0.24589146  0.58359520  1
  Te  Te110  1  0.39056901  0.20972920  0.87836970  1
  Te  Te111  1  0.40908516  0.60796934  0.26571329  1
  Te  Te112  1  0.40997085  0.58568960  0.61273457  1
  Te  Te113  1  0.40833750  0.57645710  0.90914280  1
  Te  Te114  1  0.42028317  0.92981873  0.23572014  1
  Te  Te115  1  0.40772786  0.96119435  0.58163200  1
  Te  Te116  1  0.39503407  0.90723314  0.90323924  1
  Te  Te117  1  0.78833333  0.26848248  0.21986418  1
  Te  Te118  1  0.76724397  0.25047046  0.57214531  1
  Te  Te119  1  0.76307060  0.25968657  0.92495189  1
  Te  Te120  1  0.73287422  0.59871524  0.28016932  1
  Te  Te121  1  0.75761814  0.61478440  0.56724619  1
  Te  Te122  1  0.74267385  0.56984825  0.92188549  1
  Te  Te123  1  0.75630520  0.90383646  0.26722977  1
  Te  Te124  1  0.73345941  0.88502390  0.53253496  1
  Te  Te125  1  0.74798416  0.91343203  0.90549467  1
  Te  Te126  1  0.25925600  0.25817269  0.08324362  1
  Te  Te127  1  0.22312634  0.26935510  0.44676844  1
  Te  Te128  1  0.21367175  0.24190783  0.77029096  1
  Te  Te129  1  0.22772190  0.59264387  0.09899149  1
  Te  Te130  1  0.25760082  0.59944324  0.40802685  1
  Te  Te131  1  0.24900398  0.58880846  0.71779337  1
  Te  Te132  1  0.24896501  0.89279349  0.10041354  1
  Te  Te133  1  0.25326456  0.87152769  0.42084965  1
  Te  Te134  1  0.25713441  0.87299249  0.70161681  1
  Te  Te135  1  0.59411765  0.23416740  0.09798753  1
  Te  Te136  1  0.58815643  0.24039789  0.41812507  1
  Te  Te137  1  0.58786832  0.25037232  0.73186960  1
  Te  Te138  1  0.59268253  0.57803859  0.08045944  1
  Te  Te139  1  0.58292389  0.61535413  0.41843970  1
  Te  Te140  1  0.58860798  0.57610569  0.77124348  1
  Te  Te141  1  0.58472102  0.91319083  0.10365509  1
  Te  Te142  1  0.57184608  0.91018736  0.42417554  1
  Te  Te143  1  0.57460422  0.90581088  0.74448422  1
  Te  Te144  1  0.87335189  0.21312723  0.10894230  1
  Te  Te145  1  0.94765648  0.23901762  0.42634497  1
  Te  Te146  1  0.93956232  0.25460300  0.74429857  1
  Te  Te147  1  0.92665586  0.61674896  0.10782604  1
  Te  Te148  1  0.91465533  0.59757742  0.42936622  1
  Te  Te149  1  0.92386772  0.57579197  0.75195991  1
  Te  Te150  1  0.92839306  0.91370786  0.09114992  1
  Te  Te151  1  0.91081086  0.91481336  0.40766244  1
  Te  Te152  1  0.91975761  0.91374124  0.75813231  1
  Te  Te153  1  0.24006679  0.08266048  0.24960177  1
  Te  Te154  1  0.24176408  0.09138998  0.59289499  1
  Te  Te155  1  0.24791153  0.06769158  0.90843371  1
  Te  Te156  1  0.23193517  0.42720557  0.27556699  1
  Te  Te157  1  0.23326573  0.40905283  0.57864162  1
  Te  Te158  1  0.22790368  0.39777057  0.90417182  1
  Te  Te159  1  0.21024748  0.69138774  0.27641089  1
  Te  Te160  1  0.27206651  0.77469515  0.59419541  1
  Te  Te161  1  0.24073653  0.75491003  0.92384929  1
  Te  Te162  1  0.60574703  0.09965111  0.23450294  1
  Te  Te163  1  0.55046179  0.04763345  0.58017516  1
  Te  Te164  1  0.57423958  0.07127650  0.92027175  1
  Te  Te165  1  0.56986684  0.42375802  0.24860420  1
  Te  Te166  1  0.56498806  0.44734786  0.58938015  1
  Te  Te167  1  0.59919828  0.40408225  0.89781369  1
  Te  Te168  1  0.59509585  0.75320095  0.26051154  1
  Te  Te169  1  0.56960772  0.75975722  0.58304342  1
  Te  Te170  1  0.56224105  0.73399871  0.93214859  1
  Te  Te171  1  0.93702572  0.08276588  0.24892272  1
  Te  Te172  1  0.94175920  0.09480112  0.58050375  1
  Te  Te173  1  0.91991257  0.11559219  0.93634733  1
  Te  Te174  1  0.93278044  0.43289465  0.22260721  1
  Te  Te175  1  0.95493720  0.40344345  0.59951454  1
  Te  Te176  1  0.93454340  0.41917187  0.91622316  1
  Te  Te177  1  0.91070837  0.73494695  0.28913103  1
  Te  Te178  1  0.92269452  0.74868925  0.56852716  1
  Te  Te179  1  0.92564422  0.74321374  0.92756572  1
