# generated using pymatgen
data_In2Te3
_symmetry_space_group_name_H-M   'P 1'
_cell_length_a   18.88766444
_cell_length_b   18.88348357
_cell_length_c   18.87968918
_cell_angle_alpha   89.99641963
_cell_angle_beta   89.95521921
_cell_angle_gamma   89.93708079
_symmetry_Int_Tables_number   1
_chemical_formula_structural   In2Te3
_chemical_formula_sum   'In72 Te108'
_cell_volume   6733.71634327
_cell_formula_units_Z   36
loop_
 _symmetry_equiv_pos_site_id
 _symmetry_equiv_pos_as_xyz
  1  'x, y, z'
loop_
 _atom_site_type_symbol
 _atom_site_label
 _atom_site_symmetry_multiplicity
 _atom_site_fract_x
 _atom_site_fract_y
 _atom_site_fract_z
 _atom_site_occupancy
  In  In0  1  0.85003189  0.35198403  0.51115830  1
  In  In1  1  0.14327126  0.81536220  0.68791973  1
  In  In2  1  0.83279438  0.14829410  0.00062406  1
  In  In3  1  0.50110204  0.15678555  -0.00378525  1
  In  In4  1  0.84636614  0.15178638  0.68620198  1
  In  In5  1  0.82317271  -0.00967851  0.82942716  1
  In  In6  1  0.31385656  0.00070953  0.64127302  1
  In  In7  1  0.85755367  0.66721357  0.14186466  1
  In  In8  1  0.49729426  0.84431813  0.34735425  1
  In  In9  1  0.17929642  0.65977610  0.17210084  1
  In  In10  1  0.82236262  0.32331741  0.16754093  1
  In  In11  1  0.12247912  0.51692438  0.64968284  1
  In  In12  1  0.67769093  0.67602491  0.36259985  1
  In  In13  1  0.68036348  0.46346580  0.50449223  1
  In  In14  1  0.65201558  0.64212624  0.66792643  1
  In  In15  1  0.86831729  0.70554054  0.48914211  1
  In  In16  1  0.83578642  0.17882608  0.33180653  1
  In  In17  1  0.49672058  0.66121447  0.48656061  1
  In  In18  1  0.15741600  0.32365091  0.15504544  1
  In  In19  1  0.18303717  0.81576186  -0.01620933  1
  In  In20  1  0.49295132  0.01531485  0.16363613  1
  In  In21  1  0.01064027  0.33741475  0.32287083  1
  In  In22  1  0.32788184  0.31086894  0.34312428  1
  In  In23  1  0.81876596  0.01073101  0.17678767  1
  In  In24  1  0.33431592  0.50489608  0.15777979  1
  In  In25  1  0.31749383  0.16042514  0.83958020  1
  In  In26  1  0.85623219  0.52564901  0.66851204  1
  In  In27  1  0.65951942  0.88246307  0.51594489  1
  In  In28  1  -0.00079275  0.67916826  0.33552087  1
  In  In29  1  0.48104403  0.66105573  0.15559813  1
  In  In30  1  0.66783327  0.50560870  0.82522104  1
  In  In31  1  0.83312005  0.50578453  0.31924710  1
  In  In32  1  0.34967306  0.32927836  0.66283570  1
  In  In33  1  0.17342256  0.82246478  0.32546021  1
  In  In34  1  0.18089186  0.35603405  0.82810844  1
  In  In35  1  0.02259103  0.18153542  0.82145772  1
  In  In36  1  0.13472314  0.03049020  0.48391756  1
  In  In37  1  0.30843281  0.50131957  0.48636840  1
  In  In38  1  0.15856590  0.50972205  0.33332409  1
  In  In39  1  0.64839362  0.16231408  0.48438298  1
  In  In40  1  0.02040623  0.34746521  -0.02291516  1
  In  In41  1  0.49690847  0.16991997  0.33078710  1
  In  In42  1  0.85473078  0.81775290  0.64311394  1
  In  In43  1  0.14859912  0.29811741  0.52424530  1
  In  In44  1  0.50290657  -0.00536351  0.85047171  1
  In  In45  1  0.67114324  0.84009597  0.84930096  1
  In  In46  1  0.86753397  -0.01459332  0.48944235  1
  In  In47  1  0.49326645  0.48412402  0.30473928  1
  In  In48  1  0.32307157  0.34287213  0.01284794  1
  In  In49  1  0.02401733  -0.00693587  0.00347932  1
  In  In50  1  0.47416875  0.83786100  0.00686706  1
  In  In51  1  0.17980126  -0.00742768  0.84495965  1
  In  In52  1  0.31623609  0.83998879  0.51547677  1
  In  In53  1  0.84366889  0.68837361  0.84126364  1
  In  In54  1  0.48472192  0.83566949  0.66376331  1
  In  In55  1  0.66745695  0.66919024  0.00251978  1
  In  In56  1  0.32606126  0.65974142  0.69439838  1
  In  In57  1  -0.00814452  0.17400803  0.18348488  1
  In  In58  1  0.45802802  0.51480350  -0.02544503  1
  In  In59  1  0.17641592  -0.00763638  0.17482184  1
  In  In60  1  -0.00151901  0.85112779  0.17674188  1
  In  In61  1  0.85518902  0.32682503  0.83925948  1
  In  In62  1  0.67175319  0.30474187  0.67666279  1
  In  In63  1  0.65776678  0.84415069  0.18230099  1
  In  In64  1  0.66253497  0.30793434  0.00964133  1
  In  In65  1  0.50566110  0.48719308  0.67697923  1
  In  In66  1  0.35392609  0.00963555  0.32659609  1
  In  In67  1  0.67579806  0.47905735  0.16406163  1
  In  In68  1  0.49298669  0.16295734  0.64966300  1
  In  In69  1  0.00647635  0.66271933  -0.01542771  1
  In  In70  1  0.49703609  0.34815786  0.81132462  1
  In  In71  1  0.00336123  -0.01625351  0.67868721  1
  Te  Te72  1  0.08713338  0.09527035  0.09384255  1
  Te  Te73  1  0.06525713  0.12333375  0.39425451  1
  Te  Te74  1  0.10336062  0.07826100  0.74415891  1
  Te  Te75  1  0.08863886  0.42920525  0.07980461  1
  Te  Te76  1  0.09523655  0.40861787  0.42649710  1
  Te  Te77  1  0.07014086  0.42869455  0.75996410  1
  Te  Te78  1  0.08321950  0.75816913  0.09296013  1
  Te  Te79  1  0.10580290  0.73302534  0.42515778  1
  Te  Te80  1  0.06522438  0.71712041  0.77040969  1
  Te  Te81  1  0.39968599  0.07326398  0.06389738  1
  Te  Te82  1  0.42378828  0.08665664  0.42967958  1
  Te  Te83  1  0.40255513  0.07460784  0.74572912  1
  Te  Te84  1  0.43600314  0.41584987  0.08770603  1
  Te  Te85  1  0.41346702  0.41667392  0.41688779  1
  Te  Te86  1  0.38888928  0.44188866  0.76288204  1
  Te  Te87  1  0.38402433  0.73222512  0.06739216  1
  Te  Te88  1  0.39752077  0.75265907  0.41805509  1
  Te  Te89  1  0.41105362  0.75811221  0.76304270  1
  Te  Te90  1  0.73097074  0.10217451  0.09822868  1
  Te  Te91  1  0.76646057  0.08110371  0.42502505  1
  Te  Te92  1  0.73738251  0.08690466  0.75898129  1
  Te  Te93  1  0.76321458  0.41281194  0.05864758  1
  Te  Te94  1  0.75961851  0.39551332  0.39299743  1
  Te  Te95  1  0.75590941  0.41842710  0.73613655  1
  Te  Te96  1  0.74990664  0.76159606  0.08836219  1
  Te  Te97  1  0.74953811  0.78687757  0.43242608  1
  Te  Te98  1  0.74146222  0.74619612  0.73490271  1
  Te  Te99  1  0.10464362  0.22353328  0.28009874  1
  Te  Te100  1  0.04696275  0.23502231  0.60743326  1
  Te  Te101  1  0.11683505  0.24585267  0.92054276  1
  Te  Te102  1  0.06511441  0.58266558  0.23880726  1
  Te  Te103  1  0.07041706  0.61519761  0.55191206  1
  Te  Te104  1  0.12287917  0.63647339  0.89093405  1
  Te  Te105  1  0.07725901  0.93003628  0.27834290  1
  Te  Te106  1  0.09410500  0.91623950  0.57722634  1
  Te  Te107  1  0.07844134  0.89465950  0.90195355  1
  Te  Te108  1  0.40007019  0.23669056  0.23816149  1
  Te  Te109  1  0.41419177  0.24762601  0.55891671  1
  Te  Te110  1  0.40779509  0.26449300  0.90514602  1
  Te  Te111  1  0.39711976  0.59440185  0.26465822  1
  Te  Te112  1  0.41643975  0.57755987  0.58527303  1
  Te  Te113  1  0.36867827  0.62769738  0.94194283  1
  Te  Te114  1  0.41486135  0.90250889  0.23471246  1
  Te  Te115  1  0.42756638  0.93320771  0.56238963  1
  Te  Te116  1  0.39307863  0.92445571  0.91882480  1
  Te  Te117  1  0.73796102  0.21723597  0.22565233  1
  Te  Te118  1  0.76802821  0.24003162  0.57783473  1
  Te  Te119  1  0.75360521  0.23791971  0.90475443  1
  Te  Te120  1  0.74099846  0.59814204  0.23892777  1
  Te  Te121  1  0.75042546  0.58404953  0.56683054  1
  Te  Te122  1  0.75971473  0.58294285  0.91737835  1
  Te  Te123  1  0.75106431  0.91654184  0.26858188  1
  Te  Te124  1  0.77012872  0.93810937  0.60200965  1
  Te  Te125  1  0.74534349  0.92908410  0.93828576  1
  Te  Te126  1  0.26727337  0.24041803  0.10399550  1
  Te  Te127  1  0.25742812  0.22903261  0.44780022  1
  Te  Te128  1  0.24531889  0.24848965  0.73876222  1
  Te  Te129  1  0.23266328  0.56533198  0.06895186  1
  Te  Te130  1  0.23942196  0.60668366  0.41080644  1
  Te  Te131  1  0.21944782  0.57246930  0.74992135  1
  Te  Te132  1  0.24697369  0.91952857  0.06684998  1
  Te  Te133  1  0.24604507  0.93110474  0.41550791  1
  Te  Te134  1  0.25371220  0.90572849  0.74342139  1
  Te  Te135  1  0.56127426  0.24849517  0.09577679  1
  Te  Te136  1  0.58697060  0.26566169  0.40217469  1
  Te  Te137  1  0.57551071  0.22778970  0.76424774  1
  Te  Te138  1  0.57667335  0.57056342  0.07729065  1
  Te  Te139  1  0.58743275  0.55863159  0.41863717  1
  Te  Te140  1  0.55443501  0.59493576  0.77541838  1
  Te  Te141  1  0.58050710  0.92173003  0.07793493  1
  Te  Te142  1  0.59510838  0.94565382  0.39607345  1
  Te  Te143  1  0.58481832  0.91478614  0.74746853  1
  Te  Te144  1  0.92520875  0.25251983  0.06694613  1
  Te  Te145  1  0.93107644  0.25427241  0.42340612  1
  Te  Te146  1  0.94334218  0.27114433  0.72031390  1
  Te  Te147  1  0.92965924  0.56574989  0.06653425  1
  Te  Te148  1  0.92104810  0.57571070  0.41752982  1
  Te  Te149  1  0.94199405  0.60834449  0.75994561  1
  Te  Te150  1  0.91030278  0.93019520  0.08168970  1
  Te  Te151  1  0.91932250  0.85012711  0.45861806  1
  Te  Te152  1  0.91762650  0.89070110  0.76241375  1
  Te  Te153  1  0.25911046  0.09057159  0.24748960  1
  Te  Te154  1  0.23860348  0.10261125  0.56401324  1
  Te  Te155  1  0.25586057  0.07361165  0.94313282  1
  Te  Te156  1  0.24703470  0.41321522  0.25282387  1
  Te  Te157  1  0.23977482  0.41525039  0.59050368  1
  Te  Te158  1  0.23854822  0.43909794  0.93805225  1
  Te  Te159  1  0.26709104  0.76252152  0.22988119  1
  Te  Te160  1  0.23862110  0.73775480  0.59637246  1
  Te  Te161  1  0.25632836  0.72489123  0.88919088  1
  Te  Te162  1  0.58273504  0.05846782  0.27393489  1
  Te  Te163  1  0.59870629  0.07759169  0.59308433  1
  Te  Te164  1  0.60066025  0.07323510  0.92644301  1
  Te  Te165  1  0.59682717  0.39380956  0.25339688  1
  Te  Te166  1  0.57759478  0.38751123  0.58816502  1
  Te  Te167  1  0.58448023  0.41556355  0.91640483  1
  Te  Te168  1  0.57290328  0.73409821  0.26048093  1
  Te  Te169  1  0.58756116  0.75035084  0.57128466  1
  Te  Te170  1  0.57074815  0.75100824  0.92053987  1
  Te  Te171  1  0.92486094  0.06944568  0.27053030  1
  Te  Te172  1  0.93823865  0.08510252  0.58327047  1
  Te  Te173  1  0.93786016  0.08400306  0.90326695  1
  Te  Te174  1  0.92198581  0.41960897  0.23024575  1
  Te  Te175  1  0.94135643  0.44399457  0.58056531  1
  Te  Te176  1  0.94100504  0.43582926  0.88744189  1
  Te  Te177  1  0.90118191  0.76202713  0.25304030  1
  Te  Te178  1  0.96842748  0.72115406  0.60389135  1
  Te  Te179  1  0.90684247  0.76537285  0.94870502  1
