# generated using pymatgen
data_In2Te3
_symmetry_space_group_name_H-M   'P 1'
_cell_length_a   18.87939821
_cell_length_b   18.86521602
_cell_length_c   18.87075019
_cell_angle_alpha   89.99540456
_cell_angle_beta   89.95102559
_cell_angle_gamma   90.12902968
_symmetry_Int_Tables_number   1
_chemical_formula_structural   In2Te3
_chemical_formula_sum   'In72 Te108'
_cell_volume   6721.06094319
_cell_formula_units_Z   36
loop_
 _symmetry_equiv_pos_site_id
 _symmetry_equiv_pos_as_xyz
  1  'x, y, z'
loop_
 _atom_site_type_symbol
 _atom_site_label
 _atom_site_symmetry_multiplicity
 _atom_site_fract_x
 _atom_site_fract_y
 _atom_site_fract_z
 _atom_site_occupancy
  In  In0  1  0.64475824  0.35825060  0.64575760  1
  In  In1  1  0.17532125  0.82740185  -0.00316829  1
  In  In2  1  0.01808471  0.83251332  0.50005705  1
  In  In3  1  0.81917208  0.66070383  0.48991899  1
  In  In4  1  0.33341128  0.15250753  0.49865087  1
  In  In5  1  0.48783630  0.65767648  0.18739613  1
  In  In6  1  0.66311471  0.16953216  0.48413783  1
  In  In7  1  0.50441089  -0.03420814  0.46212848  1
  In  In8  1  0.34171177  0.50580679  0.17727184  1
  In  In9  1  0.83582607  0.84798064  0.67069536  1
  In  In10  1  0.81928002  0.30148898  0.48665802  1
  In  In11  1  0.66365732  0.51505142  0.16591473  1
  In  In12  1  0.50112716  -0.02100148  0.85475440  1
  In  In13  1  0.86942393  0.16413966  0.66198466  1
  In  In14  1  0.49627306  0.85366851  -0.00314586  1
  In  In15  1  0.83624181  0.68011556  0.82991879  1
  In  In16  1  0.65367178  0.31382278  -0.03334043  1
  In  In17  1  0.64150081  0.51128229  0.50135780  1
  In  In18  1  0.81465018  -0.03040049  0.19537102  1
  In  In19  1  0.17708656  0.35558244  0.50079300  1
  In  In20  1  0.35489938  0.00218729  -0.02026468  1
  In  In21  1  0.68489027  0.17834325  0.80902952  1
  In  In22  1  0.84841369  0.15579190  0.33131511  1
  In  In23  1  0.68532908  -0.01486191  0.00888397  1
  In  In24  1  0.85342872  0.34795198  0.17202944  1
  In  In25  1  0.01863893  0.32844871  0.67950168  1
  In  In26  1  0.83514319  0.82892153  0.03147755  1
  In  In27  1  0.84240433  0.67781796  0.17734699  1
  In  In28  1  0.84351912  0.50375525  0.66693429  1
  In  In29  1  0.48797454  0.34583301  0.19560933  1
  In  In30  1  0.46264540  0.35457532  0.83594336  1
  In  In31  1  0.04642766  0.62441164  -0.03079518  1
  In  In32  1  0.19794246  0.53876542  0.63699180  1
  In  In33  1  0.66883684  -0.00926782  0.67942776  1
  In  In34  1  0.83293784  -0.01531564  0.50352758  1
  In  In35  1  0.66829907  0.84154285  0.83299598  1
  In  In36  1  0.70120108  0.69306079  -0.00712912  1
  In  In37  1  0.65499530  0.67601019  0.33352432  1
  In  In38  1  0.41991566  0.73993781  0.58417418  1
  In  In39  1  0.00779497  0.65143953  0.67314108  1
  In  In40  1  0.66951120  0.32864700  0.33683053  1
  In  In41  1  0.84581765  0.31879027  0.80491243  1
  In  In42  1  0.17268457  -0.01704824  0.50942543  1
  In  In43  1  0.16768447  0.34958509  0.82743373  1
  In  In44  1  0.14752596  -0.00443086  0.17841685  1
  In  In45  1  -0.01071034  0.03495560  -0.01974849  1
  In  In46  1  0.62421919  0.54507858  0.78799603  1
  In  In47  1  0.49655206  -0.01310728  0.20993249  1
  In  In48  1  0.20800970  0.80002517  0.38966248  1
  In  In49  1  -0.00686735  0.15968708  0.50131262  1
  In  In50  1  0.02286268  0.32990812  -0.00439926  1
  In  In51  1  0.31812713  0.66429761  -0.01553805  1
  In  In52  1  0.00859408  0.81686783  0.82607717  1
  In  In53  1  0.30858271  0.52041651  0.81902728  1
  In  In54  1  0.33838159  0.84068512  0.18541360  1
  In  In55  1  0.33260237  -0.01281139  0.65662026  1
  In  In56  1  0.49217504  0.17270647  0.65321747  1
  In  In57  1  0.48031887  0.49405528  0.01432419  1
  In  In58  1  0.33286421  0.17861976  0.16667650  1
  In  In59  1  0.16223649  0.16292826  0.32754910  1
  In  In60  1  0.31039407  0.17372075  0.80748959  1
  In  In61  1  0.00003949  0.48905584  0.50841118  1
  In  In62  1  0.45374611  0.37815479  0.48613659  1
  In  In63  1  0.18246657  0.34401160  0.16733975  1
  In  In64  1  0.15790499  0.00166342  0.79598477  1
  In  In65  1  0.00355728  0.51914827  0.19352191  1
  In  In66  1  0.16324142  0.66928246  0.18060492  1
  In  In67  1  0.64825631  0.13448787  0.16803043  1
  In  In68  1  0.00880793  0.83444374  0.19336086  1
  In  In69  1  0.49660367  0.17304466  -0.01887327  1
  In  In70  1  -0.00130609  0.15741633  0.17595428  1
  In  In71  1  0.84195922  0.47792546  -0.00377653  1
  Te  Te72  1  0.09485440  0.09425570  0.07627749  1
  Te  Te73  1  0.08283819  0.06977753  0.41713674  1
  Te  Te74  1  0.06830263  0.10111503  0.74299050  1
  Te  Te75  1  0.08063161  0.43137120  0.09385582  1
  Te  Te76  1  0.09355834  0.43336179  0.40824596  1
  Te  Te77  1  0.10224633  0.44624096  0.71966634  1
  Te  Te78  1  0.07468207  0.74818101  0.08276315  1
  Te  Te79  1  0.07321951  0.73365924  0.40352891  1
  Te  Te80  1  0.10376524  0.73613072  0.74818990  1
  Te  Te81  1  0.43855537  0.07489749  0.08458937  1
  Te  Te82  1  0.44533741  0.09508025  0.41953295  1
  Te  Te83  1  0.43052227  0.08253143  0.76259639  1
  Te  Te84  1  0.39449543  0.39268938  0.08529256  1
  Te  Te85  1  0.37889614  0.43606321  0.37140764  1
  Te  Te86  1  0.40634566  0.44410555  0.73602375  1
  Te  Te87  1  0.40975612  0.75084484  0.07977542  1
  Te  Te88  1  0.38284777  0.74926974  0.43357051  1
  Te  Te89  1  0.41509720  0.72352240  0.73643385  1
  Te  Te90  1  0.76890233  0.07787690  0.09649116  1
  Te  Te91  1  0.74744952  0.07051371  0.40678060  1
  Te  Te92  1  0.77610449  0.07340639  0.74783138  1
  Te  Te93  1  0.73437954  0.40795668  0.08213728  1
  Te  Te94  1  0.74745374  0.42095834  0.42991169  1
  Te  Te95  1  0.73971064  0.41752818  0.75226527  1
  Te  Te96  1  0.72885600  0.76575408  0.12160566  1
  Te  Te97  1  0.75633928  0.76276875  0.40117490  1
  Te  Te98  1  0.73870737  0.74666582  0.73702236  1
  Te  Te99  1  0.07908772  0.26303551  0.24959539  1
  Te  Te100  1  0.09258464  0.24727207  0.57511917  1
  Te  Te101  1  0.11215262  0.24451755  0.91680250  1
  Te  Te102  1  0.08922484  0.59708121  0.28717206  1
  Te  Te103  1  0.08887588  0.60548711  0.55317263  1
  Te  Te104  1  0.13735632  0.54208483  0.88775481  1
  Te  Te105  1  0.12262274  0.88651456  0.27708659  1
  Te  Te106  1  0.10500092  0.89100371  0.60358031  1
  Te  Te107  1  0.08220279  0.92193677  0.92247950  1
  Te  Te108  1  0.41359665  0.24428439  0.27010306  1
  Te  Te109  1  0.39940566  0.26527313  0.58108112  1
  Te  Te110  1  0.38626045  0.25426295  0.92054429  1
  Te  Te111  1  0.42837891  0.56344460  0.28782891  1
  Te  Te112  1  0.37254607  0.58179532  0.54329540  1
  Te  Te113  1  0.42227328  0.58499235  0.90866194  1
  Te  Te114  1  0.39323721  0.92292465  0.29846792  1
  Te  Te115  1  0.44247640  0.91343500  0.58785624  1
  Te  Te116  1  0.38828213  0.88179987  0.89135598  1
  Te  Te117  1  0.75399056  0.24127127  0.24497988  1
  Te  Te118  1  0.73841447  0.23773154  0.60584548  1
  Te  Te119  1  0.77994499  0.23725426  0.92150664  1
  Te  Te120  1  0.75762816  0.58178580  0.26140482  1
  Te  Te121  1  0.73749647  0.58562032  0.59640227  1
  Te  Te122  1  0.75265600  0.57428722  0.91336166  1
  Te  Te123  1  0.72322535  0.90585557  0.29020523  1
  Te  Te124  1  0.72783199  0.89845050  0.57344940  1
  Te  Te125  1  0.77664971  0.91054199  0.91395839  1
  Te  Te126  1  0.23829612  0.24236312  0.07557560  1
  Te  Te127  1  0.25063254  0.24982986  0.41430625  1
  Te  Te128  1  0.24852486  0.27806402  0.72667363  1
  Te  Te129  1  0.24417810  0.57952215  0.08720420  1
  Te  Te130  1  0.27093049  0.63645437  0.44956860  1
  Te  Te131  1  0.28388683  0.63293793  0.71890577  1
  Te  Te132  1  0.25823588  0.92535451  0.08311020  1
  Te  Te133  1  0.27876920  0.93226610  0.41822471  1
  Te  Te134  1  0.25001008  0.90059499  0.74188714  1
  Te  Te135  1  0.57785795  0.25246676  0.08916377  1
  Te  Te136  1  0.57109409  0.28311908  0.44344399  1
  Te  Te137  1  0.56946730  0.26409723  0.75453537  1
  Te  Te138  1  0.58018056  0.59955211  0.07183936  1
  Te  Te139  1  0.55956653  0.61801047  0.43816551  1
  Te  Te140  1  0.54785085  0.64951918  0.70507875  1
  Te  Te141  1  0.58555603  0.91909052  0.10163592  1
  Te  Te142  1  0.59793706  0.88267839  0.38204141  1
  Te  Te143  1  0.56266029  0.89792807  0.74002096  1
  Te  Te144  1  0.92235696  0.24989080  0.08167646  1
  Te  Te145  1  0.93559083  0.26028099  0.39980590  1
  Te  Te146  1  0.96642217  0.21579851  0.77416622  1
  Te  Te147  1  0.91564331  0.58398866  0.07743675  1
  Te  Te148  1  0.90434807  0.56100761  0.42172696  1
  Te  Te149  1  0.92738058  0.57144546  0.77557124  1
  Te  Te150  1  0.93497865  0.92750614  0.09153561  1
  Te  Te151  1  0.92411250  0.90955649  0.41628302  1
  Te  Te152  1  0.92294065  0.91885141  0.76482636  1
  Te  Te153  1  0.25744233  0.07370212  0.25008897  1
  Te  Te154  1  0.23777845  0.09023490  0.59920455  1
  Te  Te155  1  0.24756344  0.07478718  0.90493722  1
  Te  Te156  1  0.25052878  0.42958480  0.27061884  1
  Te  Te157  1  0.28686842  0.44720109  0.55472694  1
  Te  Te158  1  0.24562663  0.43451812  0.92574645  1
  Te  Te159  1  0.27605675  0.72694632  0.26262377  1
  Te  Te160  1  0.26795410  0.76955703  0.53947575  1
  Te  Te161  1  0.21414478  0.72474397  0.89673251  1
  Te  Te162  1  0.56995064  0.09322091  0.28492486  1
  Te  Te163  1  0.58697673  0.07691007  0.58202850  1
  Te  Te164  1  0.60776810  0.08287422  0.91230587  1
  Te  Te165  1  0.58403154  0.43708786  0.27032548  1
  Te  Te166  1  0.53682526  0.45188614  0.59808060  1
  Te  Te167  1  0.57918523  0.43301498  0.90914686  1
  Te  Te168  1  0.55070831  0.76438923  0.26896145  1
  Te  Te169  1  0.56822775  0.71591733  0.56275168  1
  Te  Te170  1  0.58148320  0.75112977  0.91890562  1
  Te  Te171  1  0.93168333  0.05106708  0.26132420  1
  Te  Te172  1  0.94071487  0.04951958  0.59254751  1
  Te  Te173  1  0.88453699  0.11064123  0.91676472  1
  Te  Te174  1  0.90793451  0.43706380  0.27317503  1
  Te  Te175  1  0.90350421  0.38350488  0.59300791  1
  Te  Te176  1  0.93223972  0.40696853  0.89679062  1
  Te  Te177  1  0.91203046  0.76139043  0.27675328  1
  Te  Te178  1  0.91196041  0.73938457  0.59372315  1
  Te  Te179  1  0.92390169  0.74330030  0.93697842  1
