# generated using pymatgen
data_In2Te3
_symmetry_space_group_name_H-M   'P 1'
_cell_length_a   18.96619361
_cell_length_b   19.02275638
_cell_length_c   19.00998020
_cell_angle_alpha   89.75770540
_cell_angle_beta   89.58364594
_cell_angle_gamma   90.33293765
_symmetry_Int_Tables_number   1
_chemical_formula_structural   In2Te3
_chemical_formula_sum   'In72 Te108'
_cell_volume   6858.23764595
_cell_formula_units_Z   36
loop_
 _symmetry_equiv_pos_site_id
 _symmetry_equiv_pos_as_xyz
  1  'x, y, z'
loop_
 _atom_site_type_symbol
 _atom_site_label
 _atom_site_symmetry_multiplicity
 _atom_site_fract_x
 _atom_site_fract_y
 _atom_site_fract_z
 _atom_site_occupancy
  In  In0  1  0.13036564  0.00883590  0.86704620  1
  In  In1  1  0.32740661  0.65461916  0.01493413  1
  In  In2  1  0.48493577  0.01148789  0.52394104  1
  In  In3  1  0.66577546  0.16376409  0.49121873  1
  In  In4  1  0.33650185  0.19217601  0.51468951  1
  In  In5  1  0.69202780  0.84361589  0.85982675  1
  In  In6  1  0.61642701  0.49024036  0.71153710  1
  In  In7  1  0.65774026  0.81919846  0.50803547  1
  In  In8  1  0.50899068  0.32526610  0.49234790  1
  In  In9  1  0.84476760  0.16061052  0.66776576  1
  In  In10  1  0.54136332  0.17596738  -0.06130143  1
  In  In11  1  0.00239402  0.00061780  0.68080087  1
  In  In12  1  0.73595806  0.06305177  -0.01754207  1
  In  In13  1  0.31815744  0.01829894  0.34665392  1
  In  In14  1  0.52191449  0.32618463  0.81455066  1
  In  In15  1  0.06641487  0.08311968  0.29658200  1
  In  In16  1  -0.06821376  0.70091907  0.31111470  1
  In  In17  1  0.35075818  0.65083759  0.30868135  1
  In  In18  1  0.74431015  0.84072419  0.10549344  1
  In  In19  1  0.83350811  0.16662827  0.34109074  1
  In  In20  1  0.49458458  -0.02068534  0.81722407  1
  In  In21  1  0.52650448  0.84690220  0.31204040  1
  In  In22  1  0.14238515  0.68615229  0.51667263  1
  In  In23  1  0.35201642  0.86738918  0.47092660  1
  In  In24  1  -0.00673209  0.65822143  0.01564444  1
  In  In25  1  0.69253932  0.01565895  0.66697820  1
  In  In26  1  0.51364435  0.46529582  0.31653720  1
  In  In27  1  0.52004865  0.81779910  0.63906318  1
  In  In28  1  0.70937787  0.66404165  0.34566854  1
  In  In29  1  0.34227835  0.67922854  0.67756728  1
  In  In30  1  0.17095834  0.33928799  0.82970645  1
  In  In31  1  0.13653717  0.86736586  0.32788373  1
  In  In32  1  0.32876404  0.86724051  0.17000783  1
  In  In33  1  0.83536958  0.64828419  0.84814862  1
  In  In34  1  0.15219751  0.80088100  0.68528693  1
  In  In35  1  0.85100000  0.84913141  0.67480749  1
  In  In36  1  -0.00728208  0.85150009  0.50824214  1
  In  In37  1  0.84193721  0.49796736  0.33579825  1
  In  In38  1  0.12924205  0.30933854  0.12096821  1
  In  In39  1  0.70373906  0.32257550  -0.02284592  1
  In  In40  1  0.30929344  0.02026653  0.01241000  1
  In  In41  1  0.15317809  0.32265707  0.47381454  1
  In  In42  1  0.52722120  0.65667940  0.15718774  1
  In  In43  1  0.30104743  0.01738212  0.69147625  1
  In  In44  1  0.52928871  0.68846338  0.50034555  1
  In  In45  1  0.57058500  0.03016119  0.11816246  1
  In  In46  1  0.51236607  0.32660806  0.14406862  1
  In  In47  1  -0.02224138  0.19431245  0.14711420  1
  In  In48  1  0.67724421  0.51457213  0.49287070  1
  In  In49  1  0.14568366  0.47468756  -0.01419419  1
  In  In50  1  -0.00362504  0.32983196  0.32619152  1
  In  In51  1  0.33767282  0.82073689  0.83911309  1
  In  In52  1  0.50521663  0.80789016  -0.00819410  1
  In  In53  1  0.32744850  0.14887853  0.18004059  1
  In  In54  1  0.12751505  0.52977520  0.33747716  1
  In  In55  1  0.14000717  0.69279771  0.19854013  1
  In  In56  1  -0.02535661  0.64251915  0.68982612  1
  In  In57  1  0.30717926  0.47291296  0.14509471  1
  In  In58  1  0.32621712  0.52251966  0.51740720  1
  In  In59  1  0.33454415  0.33734540  0.31189213  1
  In  In60  1  0.71695781  0.17534496  0.16549213  1
  In  In61  1  -0.02207307  0.34596277  0.66285825  1
  In  In62  1  0.84694694  0.47572138  -0.03011846  1
  In  In63  1  0.16829989  0.18919960  -0.01267769  1
  In  In64  1  0.50649503  0.51708188  -0.00720837  1
  In  In65  1  0.68984194  -0.01412720  0.32031203  1
  In  In66  1  0.84018801  0.34236699  0.50267879  1
  In  In67  1  0.06985689  -0.04172430  0.11134366  1
  In  In68  1  0.15808798  0.66245895  0.83280619  1
  In  In69  1  0.16859419  0.50120102  0.66907635  1
  In  In70  1  0.15070353  0.16480855  0.67538303  1
  In  In71  1  0.35636237  0.36343124  0.68311322  1
  Te  Te72  1  0.06479274  0.10136481  0.06200413  1
  Te  Te73  1  0.03268271  0.05675579  0.43806046  1
  Te  Te74  1  0.05696616  0.10621110  0.77984518  1
  Te  Te75  1  0.06302549  0.43680286  0.10078657  1
  Te  Te76  1  0.05700803  0.42896707  0.42682148  1
  Te  Te77  1  0.07185982  0.42577637  0.75538540  1
  Te  Te78  1  0.06767553  0.76320910  0.09194475  1
  Te  Te79  1  0.06472857  0.75233205  0.40721550  1
  Te  Te80  1  0.04429181  0.74666081  0.77588459  1
  Te  Te81  1  0.42686470  0.07874422  0.08702510  1
  Te  Te82  1  0.41932395  0.10225696  0.42335713  1
  Te  Te83  1  0.41694277  0.08281184  0.75081090  1
  Te  Te84  1  0.41517232  0.40866005  0.06306377  1
  Te  Te85  1  0.40047164  0.42438743  0.42153048  1
  Te  Te86  1  0.45948321  0.44745615  0.74693342  1
  Te  Te87  1  0.41064003  0.75466369  0.10854334  1
  Te  Te88  1  0.42985897  0.75701781  0.40066875  1
  Te  Te89  1  0.44579668  0.75156245  0.75981788  1
  Te  Te90  1  0.79600079  0.06016355  0.11826316  1
  Te  Te91  1  0.76105996  0.06364133  0.42767806  1
  Te  Te92  1  0.79426858  0.05600031  0.76514215  1
  Te  Te93  1  0.77025600  0.40569923  0.07912737  1
  Te  Te94  1  0.74023119  0.40691576  0.41120823  1
  Te  Te95  1  0.69828849  0.37554806  0.75922677  1
  Te  Te96  1  0.78311735  0.70100539  0.06550454  1
  Te  Te97  1  0.76831952  0.77214941  0.42383495  1
  Te  Te98  1  0.76795250  0.75740009  0.76264956  1
  Te  Te99  1  0.09342098  0.23900657  0.25103163  1
  Te  Te100  1  0.07216281  0.25389601  0.58256153  1
  Te  Te101  1  0.06635589  0.26874999  0.91369332  1
  Te  Te102  1  0.03019635  0.59919843  0.24740739  1
  Te  Te103  1  0.06832397  0.57553077  0.58514469  1
  Te  Te104  1  0.06197233  0.57199232  0.90828298  1
  Te  Te105  1  0.02063115  0.90933257  0.24712966  1
  Te  Te106  1  0.09651546  0.91192060  0.60005417  1
  Te  Te107  1  0.06244220  0.89180306  0.92037196  1
  Te  Te108  1  0.42990880  0.24310445  0.24391603  1
  Te  Te109  1  0.43529759  0.25767403  0.60802901  1
  Te  Te110  1  0.42388247  0.24870300  0.89742012  1
  Te  Te111  1  0.42244148  0.55136133  0.21840820  1
  Te  Te112  1  0.43388365  0.59900329  0.58694445  1
  Te  Te113  1  0.42040788  0.60586788  0.91484377  1
  Te  Te114  1  0.42208734  0.94399831  0.26036968  1
  Te  Te115  1  0.40196088  0.91661450  0.61130644  1
  Te  Te116  1  0.40548816  0.91654786  0.93705889  1
  Te  Te117  1  0.78027135  0.27429908  0.25446637  1
  Te  Te118  1  0.75092281  0.24798913  0.58235521  1
  Te  Te119  1  0.75151837  0.23831812  0.86295023  1
  Te  Te120  1  0.74262142  0.56263538  0.24911735  1
  Te  Te121  1  0.73061354  0.59359841  0.60137501  1
  Te  Te122  1  0.72992136  0.55349604  0.90489752  1
  Te  Te123  1  0.77302219  0.89231968  0.24511091  1
  Te  Te124  1  0.75813714  0.91509892  0.57638033  1
  Te  Te125  1  0.76707813  0.91320866  0.96885058  1
  Te  Te126  1  0.26500735  0.25189365  0.08585810  1
  Te  Te127  1  0.25248686  0.23935325  0.39691648  1
  Te  Te128  1  0.25471618  0.25721296  0.73491241  1
  Te  Te129  1  0.22569717  0.59648185  0.11193193  1
  Te  Te130  1  0.24054311  0.60028003  0.41942725  1
  Te  Te131  1  0.26173154  0.57876392  0.75877475  1
  Te  Te132  1  0.22017896  0.92024584  0.08160483  1
  Te  Te133  1  0.22318139  0.93561552  0.43263452  1
  Te  Te134  1  0.23185337  0.90586461  0.77053755  1
  Te  Te135  1  0.60715103  0.22584368  0.06521368  1
  Te  Te136  1  0.58713644  0.24585462  0.40009813  1
  Te  Te137  1  0.63000247  0.23993328  0.75931961  1
  Te  Te138  1  0.61246235  0.56951110  0.07970094  1
  Te  Te139  1  0.56881141  0.58134964  0.39703909  1
  Te  Te140  1  0.62122457  0.59835533  0.81214355  1
  Te  Te141  1  0.59171913  0.88695621  0.09051388  1
  Te  Te142  1  0.57594369  0.92999880  0.43249443  1
  Te  Te143  1  0.60151235  0.90522831  0.73683227  1
  Te  Te144  1  0.88471317  0.27267737  0.05863232  1
  Te  Te145  1  0.92852356  0.24297688  0.43020682  1
  Te  Te146  1  0.89907738  0.26436333  0.75804797  1
  Te  Te147  1  0.88622696  0.57301069  0.07799082  1
  Te  Te148  1  0.90366006  0.60384900  0.41709623  1
  Te  Te149  1  0.88735584  0.54389777  0.75651780  1
  Te  Te150  1  0.96220235  0.89534077  0.03243639  1
  Te  Te151  1  0.94500934  0.94138315  0.40188644  1
  Te  Te152  1  0.91069798  0.93515739  0.77942828  1
  Te  Te153  1  0.21653913  0.07017373  0.24831157  1
  Te  Te154  1  0.23892928  0.09115104  0.57521612  1
  Te  Te155  1  0.25030536  0.09763847  0.89783536  1
  Te  Te156  1  0.22597945  0.43287111  0.26800032  1
  Te  Te157  1  0.24331718  0.40470296  0.57272024  1
  Te  Te158  1  0.25897526  0.42117492  0.91381026  1
  Te  Te159  1  0.25051056  0.77532381  0.26883731  1
  Te  Te160  1  0.26100442  0.75844115  0.57757885  1
  Te  Te161  1  0.24016827  0.74582282  0.92913997  1
  Te  Te162  1  0.60906370  0.09036244  0.24906331  1
  Te  Te163  1  0.58204449  0.09582597  0.60178192  1
  Te  Te164  1  0.60090040  0.04450089  0.90512711  1
  Te  Te165  1  0.60721345  0.39865385  0.22811532  1
  Te  Te166  1  0.58470175  0.42366171  0.57516929  1
  Te  Te167  1  0.58576151  0.40184803  0.92947987  1
  Te  Te168  1  0.61045331  0.74000470  0.25171668  1
  Te  Te169  1  0.62730301  0.70490865  0.61834817  1
  Te  Te170  1  0.60680353  0.73400678  0.91576889  1
  Te  Te171  1  0.92074766  0.08943448  0.24353533  1
  Te  Te172  1  0.92939742  0.07597037  0.57723064  1
  Te  Te173  1  0.85105923  0.15876798  0.95796843  1
  Te  Te174  1  0.90135288  0.39866623  0.24055697  1
  Te  Te175  1  0.88680794  0.44254668  0.59924458  1
  Te  Te176  1  0.95119359  0.36883687  0.95461357  1
  Te  Te177  1  0.85452947  0.75406693  0.19290387  1
  Te  Te178  1  0.91999884  0.74542698  0.58918634  1
  Te  Te179  1  0.88952054  0.74524947  0.94790231  1
