# generated using pymatgen
data_In2Te3
_symmetry_space_group_name_H-M   'P 1'
_cell_length_a   19.02977625
_cell_length_b   19.00819669
_cell_length_c   19.00475900
_cell_angle_alpha   89.81149643
_cell_angle_beta   90.24291897
_cell_angle_gamma   89.66697862
_symmetry_Int_Tables_number   1
_chemical_formula_structural   In2Te3
_chemical_formula_sum   'In72 Te108'
_cell_volume   6874.21863314
_cell_formula_units_Z   36
loop_
 _symmetry_equiv_pos_site_id
 _symmetry_equiv_pos_as_xyz
  1  'x, y, z'
loop_
 _atom_site_type_symbol
 _atom_site_label
 _atom_site_symmetry_multiplicity
 _atom_site_fract_x
 _atom_site_fract_y
 _atom_site_fract_z
 _atom_site_occupancy
  In  In0  1  0.82965478  0.81592775  0.01863723  1
  In  In1  1  0.15237893  0.62720304  0.57258582  1
  In  In2  1  0.62088616  0.81058187  0.18067956  1
  In  In3  1  0.17508906  0.02920802  0.15549699  1
  In  In4  1  0.25359993  0.80092651  0.42038286  1
  In  In5  1  0.15842851  0.80590331  -0.01294397  1
  In  In6  1  0.51603400  0.15015947  -0.00107515  1
  In  In7  1  -0.00782959  0.65308117  -0.03090730  1
  In  In8  1  0.81492208  0.16070669  -0.00719866  1
  In  In9  1  0.82147588  0.68064545  0.48983046  1
  In  In10  1  -0.03104426  0.48486119  0.16742837  1
  In  In11  1  0.00890193  0.84397577  0.18578360  1
  In  In12  1  0.38549027  0.78213486  0.18651011  1
  In  In13  1  0.17920814  0.34849857  0.83189355  1
  In  In14  1  0.17554548  0.15040606  -0.04363788  1
  In  In15  1  0.50020096  0.00534654  0.50341424  1
  In  In16  1  0.82372611  0.00315853  0.82631791  1
  In  In17  1  0.18409838  0.13803480  0.67905178  1
  In  In18  1  -0.00193846  0.49618665  0.80620960  1
  In  In19  1  0.84979048  0.50214397  0.65868460  1
  In  In20  1  -0.02439927  -0.01508643  -0.01339950  1
  In  In21  1  0.03219844  0.81616679  0.80462135  1
  In  In22  1  0.83233092  0.32557461  0.17705986  1
  In  In23  1  0.85039944  0.86090041  0.63631667  1
  In  In24  1  0.83384495  0.32726496  0.83697244  1
  In  In25  1  0.34563602  0.65664122  0.65311146  1
  In  In26  1  0.48086577  0.00467515  0.85261251  1
  In  In27  1  0.19310064  0.32444379  0.18821328  1
  In  In28  1  0.19580875  0.48216700  -0.00563333  1
  In  In29  1  0.83452123  0.01146526  0.49511653  1
  In  In30  1  0.35072022  0.18519567  0.49383886  1
  In  In31  1  -0.02228113  0.14326944  0.17737406  1
  In  In32  1  -0.00422515  0.68505600  0.35752695  1
  In  In33  1  0.49774758  0.35530702  0.51303937  1
  In  In34  1  0.02851917  0.32406246  -0.00960183  1
  In  In35  1  0.32246209  0.64577185  0.34164868  1
  In  In36  1  0.16211394  0.34176138  0.50649024  1
  In  In37  1  0.51204337  0.20007469  0.33870492  1
  In  In38  1  0.81030050  0.81025906  0.34626501  1
  In  In39  1  0.64570638  0.55570139  0.19069443  1
  In  In40  1  0.68711248  0.84493852  0.81826780  1
  In  In41  1  -0.03567777  0.34724334  0.37438421  1
  In  In42  1  0.33254384  0.51117860  0.49382419  1
  In  In43  1  0.51925287  0.51350971  0.34725114  1
  In  In44  1  0.68044371  0.19769600  0.51481590  1
  In  In45  1  0.15464592  0.65222401  0.18456749  1
  In  In46  1  0.64964560  0.66252799  -0.00352432  1
  In  In47  1  0.66219946  0.80192936  0.45639332  1
  In  In48  1  0.66129234  0.51979501  0.85616148  1
  In  In49  1  0.63459492  0.36074585  -0.00132253  1
  In  In50  1  0.68805628  0.67150438  0.64028280  1
  In  In51  1  0.00000642  0.18055464  0.51991518  1
  In  In52  1  0.49171545  0.66449020  0.85004768  1
  In  In53  1  0.04445152  0.84303387  0.52673425  1
  In  In54  1  0.67915743  0.19558957  0.14907247  1
  In  In55  1  0.34224927  0.17192197  0.18161523  1
  In  In56  1  0.30908575  -0.03361142  0.65826834  1
  In  In57  1  0.50925525  0.84109345  0.66225218  1
  In  In58  1  0.60174259  0.36051788  0.70964190  1
  In  In59  1  0.64580969  0.00127290  0.32125066  1
  In  In60  1  0.81443751  0.50798158  -0.00618424  1
  In  In61  1  0.48710569  -0.01577461  0.17367748  1
  In  In62  1  0.19412624  0.66859717  0.80810204  1
  In  In63  1  0.13740178  0.17410656  0.35383226  1
  In  In64  1  0.35407557  0.30019764  -0.01030858  1
  In  In65  1  0.31754519  0.50116197  0.14455417  1
  In  In66  1  0.34693306  0.14496682  0.83314520  1
  In  In67  1  0.36997042  0.35814073  0.68748280  1
  In  In68  1  0.69846194  0.02682202  0.64939927  1
  In  In69  1  0.84134324  0.20679707  0.64358449  1
  In  In70  1  0.32010288  -0.02149195  -0.01189178  1
  In  In71  1  -0.01137373  0.01289859  0.33937936  1
  Te  Te72  1  0.07156902  0.08931512  0.06102988  1
  Te  Te73  1  0.07950954  0.07078689  0.44608861  1
  Te  Te74  1  0.08454127  0.04440133  0.72240633  1
  Te  Te75  1  0.08870856  0.42460735  0.08798180  1
  Te  Te76  1  0.08339622  0.42175373  0.41119294  1
  Te  Te77  1  0.11338076  0.43874215  0.73274915  1
  Te  Te78  1  0.06228909  0.74008746  0.08664207  1
  Te  Te79  1  0.09807361  0.78838917  0.39954328  1
  Te  Te80  1  0.08074490  0.70472459  0.71887816  1
  Te  Te81  1  0.39498991  0.08645445  0.06770811  1
  Te  Te82  1  0.42613381  0.09167964  0.40201861  1
  Te  Te83  1  0.41288475  0.05767033  0.72891553  1
  Te  Te84  1  0.40415603  0.39668670  0.08653141  1
  Te  Te85  1  0.41112971  0.41695017  0.40686268  1
  Te  Te86  1  0.47707819  0.43526217  0.75232073  1
  Te  Te87  1  0.43988203  0.70506795  0.06562134  1
  Te  Te88  1  0.41777368  0.74890992  0.38549399  1
  Te  Te89  1  0.42110958  0.75215582  0.74414535  1
  Te  Te90  1  0.73912820  0.07945803  0.08544288  1
  Te  Te91  1  0.72459191  0.08461376  0.42074610  1
  Te  Te92  1  0.76352439  0.11755975  0.74680296  1
  Te  Te93  1  0.74278868  0.41754158  0.08881492  1
  Te  Te94  1  0.86546912  0.33800250  0.48864962  1
  Te  Te95  1  0.76041664  0.44195538  0.77031212  1
  Te  Te96  1  0.73171787  0.73641098  0.09987450  1
  Te  Te97  1  0.69178293  0.68768491  0.35445766  1
  Te  Te98  1  0.77317499  0.76431532  0.72486261  1
  Te  Te99  1  0.07124271  0.24739862  0.23739659  1
  Te  Te100  1  0.10191703  0.24676851  0.60769398  1
  Te  Te101  1  0.08219945  0.24081726  0.87552650  1
  Te  Te102  1  0.04858613  0.57833363  0.25833942  1
  Te  Te103  1  0.06253276  0.51034714  0.58741731  1
  Te  Te104  1  0.09902975  0.56784993  0.90791857  1
  Te  Te105  1  0.09590361  0.94420655  0.25591135  1
  Te  Te106  1  0.11625346  0.92168746  0.63364533  1
  Te  Te107  1  0.08450454  0.91521153  0.91008053  1
  Te  Te108  1  0.41238889  0.27344624  0.25681792  1
  Te  Te109  1  0.43472234  0.24980377  0.60123989  1
  Te  Te110  1  0.45691657  0.24324868  0.88048721  1
  Te  Te111  1  0.40733294  0.56136291  0.25186737  1
  Te  Te112  1  0.44019927  0.57841206  0.56989140  1
  Te  Te113  1  0.41292267  0.60459977  0.95814732  1
  Te  Te114  1  0.38910336  0.91377150  0.25267425  1
  Te  Te115  1  0.40905859  0.89627154  0.56024747  1
  Te  Te116  1  0.41452952  0.89272728  0.91760600  1
  Te  Te117  1  0.74953411  0.24602863  0.26599953  1
  Te  Te118  1  0.71705933  0.29265096  0.62505418  1
  Te  Te119  1  0.72722883  0.26435116  0.92301306  1
  Te  Te120  1  0.76616760  0.59028315  0.26405688  1
  Te  Te121  1  0.75109532  0.56203656  0.55734333  1
  Te  Te122  1  0.76557082  0.62013713  0.90674067  1
  Te  Te123  1  0.72981719  0.89743942  0.25066833  1
  Te  Te124  1  0.72835837  0.90575506  0.55470615  1
  Te  Te125  1  0.75504716  0.91880613  0.93140801  1
  Te  Te126  1  0.23404062  0.24216212  0.06361185  1
  Te  Te127  1  0.24826642  0.26028945  0.41034405  1
  Te  Te128  1  0.27201920  0.25259282  0.75220322  1
  Te  Te129  1  0.23976407  0.60936352  0.06819454  1
  Te  Te130  1  0.21458739  0.58797258  0.43784834  1
  Te  Te131  1  0.27898883  0.56690820  0.74713645  1
  Te  Te132  1  0.22698246  0.90764643  0.08214786  1
  Te  Te133  1  0.27045433  0.93577530  0.47105475  1
  Te  Te134  1  0.22710793  0.86153078  0.71802996  1
  Te  Te135  1  0.55885832  0.26471354  0.08767767  1
  Te  Te136  1  0.60109297  0.28882270  0.42308130  1
  Te  Te137  1  0.57654044  0.24051130  0.78849075  1
  Te  Te138  1  0.55053352  0.58476306  0.07745179  1
  Te  Te139  1  0.58297745  0.61361023  0.43294919  1
  Te  Te140  1  0.60458031  0.61956794  0.75592016  1
  Te  Te141  1  0.56834768  0.90687906  0.08298181  1
  Te  Te142  1  0.56366758  0.90771983  0.40486723  1
  Te  Te143  1  0.60365789  0.93770761  0.73073020  1
  Te  Te144  1  0.91841580  0.25139723  0.07295470  1
  Te  Te145  1  0.90795100  0.20987835  0.40474390  1
  Te  Te146  1  0.92958121  0.26958247  0.74315762  1
  Te  Te147  1  0.90622921  0.59289657  0.07901972  1
  Te  Te148  1  0.91550566  0.58657054  0.42945001  1
  Te  Te149  1  0.91821511  0.60110985  0.74347602  1
  Te  Te150  1  0.90571041  0.91914512  0.10204745  1
  Te  Te151  1  0.90736359  0.90573947  0.41498902  1
  Te  Te152  1  0.92467473  0.91855216  0.75278434  1
  Te  Te153  1  0.24514211  0.09870339  0.26993354  1
  Te  Te154  1  0.26301575  0.08086858  0.56071346  1
  Te  Te155  1  0.24096787  0.04355697  0.87439802  1
  Te  Te156  1  0.23264040  0.44681168  0.25265251  1
  Te  Te157  1  0.26841238  0.41477435  0.59055986  1
  Te  Te158  1  0.29520126  0.41335783  0.90400035  1
  Te  Te159  1  0.24425249  0.75020073  0.25163005  1
  Te  Te160  1  0.25354281  0.73799965  0.56085817  1
  Te  Te161  1  0.26233799  0.76700308  0.89297383  1
  Te  Te162  1  0.56862800  0.09914034  0.23285306  1
  Te  Te163  1  0.58384636  0.10255856  0.58420866  1
  Te  Te164  1  0.59798015  0.06653958  0.91274378  1
  Te  Te165  1  0.59785727  0.43284566  0.25264780  1
  Te  Te166  1  0.55933057  0.45854790  0.59949364  1
  Te  Te167  1  0.54766433  0.44572055  0.91388753  1
  Te  Te168  1  0.51288139  0.74614748  0.26232460  1
  Te  Te169  1  0.57412550  0.74242473  0.56737756  1
  Te  Te170  1  0.59030537  0.76932724  0.90486485  1
  Te  Te171  1  0.88231100  0.06455558  0.25170274  1
  Te  Te172  1  0.91857395  0.07824199  0.59843895  1
  Te  Te173  1  0.91747149  0.09647918  0.90190658  1
  Te  Te174  1  0.87815760  0.43117675  0.27533780  1
  Te  Te175  1  0.94793479  0.40507710  0.59785016  1
  Te  Te176  1  0.92661396  0.42239761  0.92850818  1
  Te  Te177  1  0.90877636  0.74907162  0.24903226  1
  Te  Te178  1  0.93206947  0.75335106  0.56913323  1
  Te  Te179  1  0.92426541  0.77245145  0.90851219  1
