# generated using pymatgen
data_In2Te3
_symmetry_space_group_name_H-M   'P 1'
_cell_length_a   19.03674000
_cell_length_b   19.02125116
_cell_length_c   18.99557727
_cell_angle_alpha   89.93343018
_cell_angle_beta   89.79388322
_cell_angle_gamma   90.02006233
_symmetry_Int_Tables_number   1
_chemical_formula_structural   In2Te3
_chemical_formula_sum   'In72 Te108'
_cell_volume   6878.29857705
_cell_formula_units_Z   36
loop_
 _symmetry_equiv_pos_site_id
 _symmetry_equiv_pos_as_xyz
  1  'x, y, z'
loop_
 _atom_site_type_symbol
 _atom_site_label
 _atom_site_symmetry_multiplicity
 _atom_site_fract_x
 _atom_site_fract_y
 _atom_site_fract_z
 _atom_site_occupancy
  In  In0  1  0.82309053  0.48004361  0.66942134  1
  In  In1  1  0.33644472  0.17046794  0.83091197  1
  In  In2  1  -0.00148443  0.48368767  0.16726422  1
  In  In3  1  0.48597663  0.64355951  0.87073076  1
  In  In4  1  0.81841194  0.66585277  0.16018839  1
  In  In5  1  0.68139569  0.68638871  0.32444559  1
  In  In6  1  0.81376807  0.01685482  0.48901651  1
  In  In7  1  -0.02703004  0.10877075  -0.00750039  1
  In  In8  1  0.34170458  0.02224014  0.67456036  1
  In  In9  1  0.66848087  0.30077189  0.66633511  1
  In  In10  1  0.63349202  0.32171457  0.31572050  1
  In  In11  1  -0.01004301  0.18644872  0.50719674  1
  In  In12  1  0.32742251  0.49181112  0.46584905  1
  In  In13  1  0.82696476  0.49427226  0.33142863  1
  In  In14  1  -0.02093802  0.82747311  0.83098663  1
  In  In15  1  0.30702630  0.83844435  0.52778034  1
  In  In16  1  0.36862064  0.82494466  0.17786770  1
  In  In17  1  0.47930501  0.68022538  0.53385327  1
  In  In18  1  0.38465170  0.07291493  0.31817961  1
  In  In19  1  0.86371620  0.85115578  0.64072596  1
  In  In20  1  0.17230999  0.15833385  0.00739149  1
  In  In21  1  0.33358814  0.65290060  0.34294642  1
  In  In22  1  0.66498838  0.16681693  0.83921135  1
  In  In23  1  0.37209214  -0.01260255  0.02042874  1
  In  In24  1  0.67201337  0.68840032  0.66849297  1
  In  In25  1  0.80566613  0.02079737  0.14752388  1
  In  In26  1  0.33995304  0.84023628  0.85500914  1
  In  In27  1  0.18672265  0.83215491  -0.00104030  1
  In  In28  1  0.81698839  0.28691416  0.13952558  1
  In  In29  1  0.14595965  0.82621761  0.35146178  1
  In  In30  1  0.00851167  0.65491381  0.35725255  1
  In  In31  1  0.01428354  0.01296731  0.68673965  1
  In  In32  1  -0.01089784  0.29946601  0.33111601  1
  In  In33  1  0.52576560  0.66552717  0.15349520  1
  In  In34  1  0.56643631  0.90353972  0.32568663  1
  In  In35  1  0.82460070  0.49644229  -0.01096525  1
  In  In36  1  0.19753705  0.17000168  0.33339894  1
  In  In37  1  0.51173159  0.84711595  0.68649147  1
  In  In38  1  0.53836656  0.02856531  0.17604225  1
  In  In39  1  0.19315058  0.66629064  0.13787366  1
  In  In40  1  -0.01797018  0.03319479  0.33605935  1
  In  In41  1  0.68890586  0.84593250  0.82439346  1
  In  In42  1  0.20537800  0.33519545  0.17736674  1
  In  In43  1  -0.03431493  0.85510577  0.20333960  1
  In  In44  1  0.51077599  0.15527716  0.66080312  1
  In  In45  1  0.79958957  0.17126398  0.65438092  1
  In  In46  1  0.66564270  0.51230816  0.50073868  1
  In  In47  1  0.17069358  0.32892781  0.45828468  1
  In  In48  1  0.48246830  0.48389165  0.68743141  1
  In  In49  1  0.79165074  0.88482875  0.33977840  1
  In  In50  1  0.67161689  0.30497489  -0.00871046  1
  In  In51  1  0.20729872  0.47190257  -0.01666372  1
  In  In52  1  0.30740988  0.66329247  0.68813845  1
  In  In53  1  0.81535946  0.83029776  0.00608314  1
  In  In54  1  0.51468586  0.15890898  -0.00475525  1
  In  In55  1  0.65893136  0.48460440  0.80999596  1
  In  In56  1  0.65968696  0.64718305  -0.03267812  1
  In  In57  1  0.13479297  0.83295335  0.67699750  1
  In  In58  1  0.45636210  0.34430402  0.14225603  1
  In  In59  1  0.19865041  0.02482282  0.51799448  1
  In  In60  1  0.16452632  0.47692747  0.66938168  1
  In  In61  1  -0.01504940  0.50762346  0.84437140  1
  In  In62  1  0.16091981  0.00683076  0.83418884  1
  In  In63  1  0.53233833  0.30050161  0.50273458  1
  In  In64  1  0.01627956  0.69693555  -0.00001234  1
  In  In65  1  0.16763387  0.67354465  0.83945337  1
  In  In66  1  0.02245099  0.31328196  -0.01924017  1
  In  In67  1  -0.02032355  0.33771456  0.66568295  1
  In  In68  1  0.17212840  0.49191511  0.31243074  1
  In  In69  1  0.46846888  0.36078321  0.85857040  1
  In  In70  1  -0.01374140  0.48981957  0.52086828  1
  In  In71  1  0.51084776  0.50721952  0.32859292  1
  Te  Te72  1  0.08565788  0.05631432  0.06765108  1
  Te  Te73  1  0.09162564  0.10084472  0.42837074  1
  Te  Te74  1  0.11932919  0.10260444  0.73257333  1
  Te  Te75  1  0.09636255  0.40699986  0.08239812  1
  Te  Te76  1  0.06104543  0.42412058  0.39691280  1
  Te  Te77  1  0.06883548  0.40829329  0.76526432  1
  Te  Te78  1  0.08380122  0.77603802  0.10658124  1
  Te  Te79  1  0.05287151  0.76250031  0.45150997  1
  Te  Te80  1  0.05709402  0.72506241  0.75166559  1
  Te  Te81  1  0.42592256  0.09900129  0.10634981  1
  Te  Te82  1  0.45144605  0.08883187  0.44606665  1
  Te  Te83  1  0.44146663  0.07586189  0.77343522  1
  Te  Te84  1  0.39040158  0.44001097  0.04963213  1
  Te  Te85  1  0.45307034  0.41701239  0.43408450  1
  Te  Te86  1  0.37760048  0.39772670  0.74630031  1
  Te  Te87  1  0.42273564  0.73642023  0.07644129  1
  Te  Te88  1  0.39761189  0.75583811  0.43267025  1
  Te  Te89  1  0.41592602  0.74323907  0.75359209  1
  Te  Te90  1  0.73603748  0.10534155  0.04722243  1
  Te  Te91  1  0.72686433  0.04564736  0.36942287  1
  Te  Te92  1  0.71780896  0.07650261  0.73433477  1
  Te  Te93  1  0.74617825  0.40742318  0.08117973  1
  Te  Te94  1  0.72336831  0.41185980  0.40509425  1
  Te  Te95  1  0.75658167  0.37991541  0.76196053  1
  Te  Te96  1  0.71884235  0.73838412  0.07701780  1
  Te  Te97  1  0.75978557  0.76400589  0.41716309  1
  Te  Te98  1  0.78016173  0.75996444  0.74030850  1
  Te  Te99  1  0.09813875  0.24588535  0.24498884  1
  Te  Te100  1  0.08788478  0.27537698  0.57786763  1
  Te  Te101  1  0.10426947  0.22612463  0.89245067  1
  Te  Te102  1  0.08216498  0.59233797  0.23329252  1
  Te  Te103  1  0.07951744  0.57069346  0.59667152  1
  Te  Te104  1  0.09128688  0.58012088  0.94041456  1
  Te  Te105  1  0.07744796  0.93211934  0.26686765  1
  Te  Te106  1  0.08953231  0.93712431  0.57830766  1
  Te  Te107  1  0.08429963  0.90156644  0.91234317  1
  Te  Te108  1  0.38130824  0.28759638  0.25787647  1
  Te  Te109  1  0.42929335  0.25793844  0.59642218  1
  Te  Te110  1  0.40678585  0.24873958  0.94011425  1
  Te  Te111  1  0.41998871  0.58840718  0.23998790  1
  Te  Te112  1  0.39071047  0.57106592  0.59076734  1
  Te  Te113  1  0.42204199  0.52043571  0.91840425  1
  Te  Te114  1  0.42604494  0.93035335  0.27117351  1
  Te  Te115  1  0.41659339  0.92050958  0.59145551  1
  Te  Te116  1  0.44784301  0.91047838  0.92265613  1
  Te  Te117  1  0.73557285  0.23638436  0.25106735  1
  Te  Te118  1  0.70958332  0.22203527  0.54857251  1
  Te  Te119  1  0.77775507  0.21270702  0.93284992  1
  Te  Te120  1  0.73213454  0.57100917  0.24140221  1
  Te  Te121  1  0.75734439  0.59437208  0.58633330  1
  Te  Te122  1  0.75915358  0.57529142  0.87798200  1
  Te  Te123  1  0.72413471  0.90564547  0.20594387  1
  Te  Te124  1  0.74967945  0.91934670  0.57784675  1
  Te  Te125  1  0.76343149  0.93298013  0.91632560  1
  Te  Te126  1  0.26550428  0.24177440  0.08322231  1
  Te  Te127  1  0.29087523  0.26269924  0.40108389  1
  Te  Te128  1  0.26119932  0.28197253  0.77079409  1
  Te  Te129  1  0.26917891  0.54637916  0.09584727  1
  Te  Te130  1  0.22009095  0.58841849  0.42014735  1
  Te  Te131  1  0.24368247  0.55934141  0.77574030  1
  Te  Te132  1  0.26771113  0.90878623  0.09931908  1
  Te  Te133  1  0.24614713  0.92151860  0.41724679  1
  Te  Te134  1  0.25015180  0.90376567  0.75024791  1
  Te  Te135  1  0.57418402  0.25486432  0.09499493  1
  Te  Te136  1  0.54150466  0.21785288  0.37758430  1
  Te  Te137  1  0.56290795  0.26269568  0.77022531  1
  Te  Te138  1  0.58641719  0.56697080  0.06445731  1
  Te  Te139  1  0.57118603  0.60772196  0.43044107  1
  Te  Te140  1  0.57230577  0.59753860  0.74170430  1
  Te  Te141  1  0.60729044  0.92124303  0.10851040  1
  Te  Te142  1  0.61802635  0.95887081  0.45383066  1
  Te  Te143  1  0.61137652  0.94061062  0.73973602  1
  Te  Te144  1  0.94520883  0.23072378  0.08172630  1
  Te  Te145  1  0.89051443  0.22606669  0.40819388  1
  Te  Te146  1  0.91120833  0.22694912  0.73987936  1
  Te  Te147  1  0.91903557  0.58018168  0.07971748  1
  Te  Te148  1  0.89895871  0.58079844  0.43053541  1
  Te  Te149  1  0.91985689  0.57145125  0.73053813  1
  Te  Te150  1  0.91090457  0.92053975  0.08267972  1
  Te  Te151  1  0.91452183  0.92592366  0.41654466  1
  Te  Te152  1  0.90790171  0.93944877  0.76351484  1
  Te  Te153  1  0.26033668  0.07375546  0.24408708  1
  Te  Te154  1  0.27894669  0.12293604  0.58898240  1
  Te  Te155  1  0.27249214  0.05654682  0.92262223  1
  Te  Te156  1  0.29358625  0.41547948  0.26948444  1
  Te  Te157  1  0.24975454  0.40612058  0.56273912  1
  Te  Te158  1  0.22155803  0.34854100  0.90482385  1
  Te  Te159  1  0.24614544  0.74999833  0.25871452  1
  Te  Te160  1  0.21742828  0.73493897  0.59143815  1
  Te  Te161  1  0.27312708  0.72678906  0.93350144  1
  Te  Te162  1  0.61456645  0.10240807  0.27840746  1
  Te  Te163  1  0.56763968  0.07562559  0.54811791  1
  Te  Te164  1  0.62204923  0.06696592  0.94717132  1
  Te  Te165  1  0.56769877  0.41931615  0.22143048  1
  Te  Te166  1  0.59333429  0.42361980  0.60241996  1
  Te  Te167  1  0.59195129  0.41756720  0.92666980  1
  Te  Te168  1  0.56613662  0.76240718  0.26836063  1
  Te  Te169  1  0.58951744  0.77397693  0.57553024  1
  Te  Te170  1  0.58310331  0.75595304  0.89704739  1
  Te  Te171  1  0.89520963  0.09607417  0.23767614  1
  Te  Te172  1  0.91717236  0.07940623  0.58747702  1
  Te  Te173  1  0.90771077  0.13179914  0.86493603  1
  Te  Te174  1  0.89943004  0.39567663  0.23864803  1
  Te  Te175  1  0.88133956  0.38888125  0.56268366  1
  Te  Te176  1  0.91114895  0.39550721  0.91677022  1
  Te  Te177  1  0.91071768  0.72827884  0.26186059  1
  Te  Te178  1  0.95527847  0.76163102  0.57419467  1
  Te  Te179  1  0.89755692  0.73363883  0.91885196  1
