# generated using pymatgen
data_In2Te3
_symmetry_space_group_name_H-M   'P 1'
_cell_length_a   18.75775508
_cell_length_b   18.75698241
_cell_length_c   18.76789854
_cell_angle_alpha   89.99666173
_cell_angle_beta   89.97196376
_cell_angle_gamma   90.02929671
_symmetry_Int_Tables_number   1
_chemical_formula_structural   In2Te3
_chemical_formula_sum   'In72 Te108'
_cell_volume   6603.27477501
_cell_formula_units_Z   36
loop_
 _symmetry_equiv_pos_site_id
 _symmetry_equiv_pos_as_xyz
  1  'x, y, z'
loop_
 _atom_site_type_symbol
 _atom_site_label
 _atom_site_symmetry_multiplicity
 _atom_site_fract_x
 _atom_site_fract_y
 _atom_site_fract_z
 _atom_site_occupancy
  In  In0  1  0.00084027  0.15703061  0.81501021  1
  In  In1  1  0.19048153  0.17259674  -0.00555296  1
  In  In2  1  0.67005115  0.18191271  0.51478808  1
  In  In3  1  0.01384917  0.51454046  0.51810267  1
  In  In4  1  0.67939704  0.34747596  0.64884871  1
  In  In5  1  0.17601154  0.34842165  0.82502883  1
  In  In6  1  0.16024662  0.49742155  -0.01683446  1
  In  In7  1  0.84423738  0.66307086  0.82622103  1
  In  In8  1  0.14886750  0.66214424  0.18042410  1
  In  In9  1  0.34134159  0.49319674  0.17010045  1
  In  In10  1  0.51106696  0.63489346  0.79890021  1
  In  In11  1  0.48965704  0.64832006  0.52163937  1
  In  In12  1  0.01142656  -0.01333568  0.65504634  1
  In  In13  1  0.00293802  0.65579795  0.35171063  1
  In  In14  1  0.66895075  0.34374825  -0.02210739  1
  In  In15  1  0.83386148  0.49749978  -0.00402334  1
  In  In16  1  -0.02847675  0.38162882  0.32988531  1
  In  In17  1  0.67735946  -0.00576750  0.68311916  1
  In  In18  1  0.50673206  0.17277255  -0.01601445  1
  In  In19  1  0.34133741  0.33519095  0.35458232  1
  In  In20  1  0.81876934  0.64915776  0.18159700  1
  In  In21  1  0.66070444  0.66211105  0.01030754  1
  In  In22  1  0.51850212  0.33578599  0.14906617  1
  In  In23  1  0.51138839  0.81673202  0.65050979  1
  In  In24  1  0.85257345  -0.01757255  0.50163961  1
  In  In25  1  0.68414743  0.34636186  0.32353612  1
  In  In26  1  0.33721051  0.67346586  -0.02075221  1
  In  In27  1  0.68445040  0.83404879  0.83375682  1
  In  In28  1  -0.02364385  -0.03168695  0.36512309  1
  In  In29  1  0.16593059  0.83095578  0.35674072  1
  In  In30  1  0.17660458  0.52320837  0.36657644  1
  In  In31  1  0.49648249  0.35518895  0.81111342  1
  In  In32  1  0.30329694  0.17932463  0.17603997  1
  In  In33  1  0.30695394  0.67854696  0.65879761  1
  In  In34  1  -0.00239353  0.64982426  -0.02705840  1
  In  In35  1  0.48720426  0.78830823  0.35025043  1
  In  In36  1  0.83983063  0.80664455  0.65057453  1
  In  In37  1  0.00596329  0.17205789  0.50258618  1
  In  In38  1  -0.02482555  0.33992171  -0.00713819  1
  In  In39  1  0.32995338  0.16369489  0.82290634  1
  In  In40  1  0.16463589  0.01400661  0.18038448  1
  In  In41  1  0.80284973  0.02683939  0.15830927  1
  In  In42  1  0.67537278  0.16443875  0.86537700  1
  In  In43  1  0.48481486  -0.01492590  0.49690340  1
  In  In44  1  0.48556934  0.17177737  0.67373970  1
  In  In45  1  0.50872332  0.36248541  0.51119241  1
  In  In46  1  0.49072182  0.84638017  -0.00861800  1
  In  In47  1  0.66376206  0.86371569  0.18315276  1
  In  In48  1  0.33149483  0.34802706  0.65656549  1
  In  In49  1  -0.01140897  0.80971681  0.15892209  1
  In  In50  1  0.84187203  0.01735965  0.82495450  1
  In  In51  1  -0.00208512  0.32210509  0.66627124  1
  In  In52  1  0.17742705  0.83730008  -0.04249750  1
  In  In53  1  0.48895820  0.64160644  0.18155924  1
  In  In54  1  0.49542600  0.14456842  0.34348641  1
  In  In55  1  0.31814781  -0.01572054  0.67212769  1
  In  In56  1  0.83726757  0.16311199  0.33115645  1
  In  In57  1  0.17757383  -0.02286097  0.51500505  1
  In  In58  1  0.34797973  0.00830746  -0.02312417  1
  In  In59  1  0.50488466  -0.00061845  0.17157666  1
  In  In60  1  0.00500937  -0.01590256  -0.02305055  1
  In  In61  1  0.17820641  0.50023776  0.66156671  1
  In  In62  1  0.67170833  0.50305279  0.50249295  1
  In  In63  1  0.32454512  0.84450800  0.18370010  1
  In  In64  1  0.18370252  0.17217618  0.34527204  1
  In  In65  1  0.69336823  0.67713640  0.36020161  1
  In  In66  1  0.83779533  0.83077196  -0.02145830  1
  In  In67  1  0.65149086  -0.02075231  0.33869422  1
  In  In68  1  0.15808109  0.32684885  0.16230919  1
  In  In69  1  0.66524708  0.52029037  0.18192460  1
  In  In70  1  0.83220317  0.51835509  0.66676053  1
  In  In71  1  -0.01824412  0.18811746  0.15513574  1
  Te  Te72  1  0.08403378  0.09135511  0.07524866  1
  Te  Te73  1  0.08262752  0.06784604  0.41438330  1
  Te  Te74  1  0.09623230  0.08370708  0.72972030  1
  Te  Te75  1  0.07014942  0.42206437  0.08399975  1
  Te  Te76  1  0.08547399  0.41414889  0.42530891  1
  Te  Te77  1  0.07199819  0.42789668  0.74902012  1
  Te  Te78  1  0.09163190  0.75296019  0.06114719  1
  Te  Te79  1  0.11102351  0.71850592  0.44157619  1
  Te  Te80  1  0.11960797  0.78547657  0.76870834  1
  Te  Te81  1  0.40782270  0.09342726  0.09132078  1
  Te  Te82  1  0.39824957  0.09049418  0.43941646  1
  Te  Te83  1  0.42273377  0.06106708  0.75715820  1
  Te  Te84  1  0.42118654  0.41576210  0.07260428  1
  Te  Te85  1  0.41513219  0.44067465  0.42786779  1
  Te  Te86  1  0.39983343  0.44850109  0.74365595  1
  Te  Te87  1  0.42090026  0.75516267  0.09601840  1
  Te  Te88  1  0.38440097  0.72963462  0.44374413  1
  Te  Te89  1  0.41762854  0.74326590  0.74672981  1
  Te  Te90  1  0.71264857  0.10751514  0.07815330  1
  Te  Te91  1  0.74700124  0.07576476  0.42382358  1
  Te  Te92  1  0.75457212  0.10961129  0.74058696  1
  Te  Te93  1  0.74104521  0.42239164  0.09157554  1
  Te  Te94  1  0.75718357  0.39782108  0.44141559  1
  Te  Te95  1  0.73567071  0.43876783  0.75559717  1
  Te  Te96  1  0.75442708  0.75892591  0.08519644  1
  Te  Te97  1  0.78433961  0.77695452  0.41616290  1
  Te  Te98  1  0.73751416  0.73105502  0.73749735  1
  Te  Te99  1  0.07486969  0.24751006  0.26363964  1
  Te  Te100  1  0.09959114  0.25122150  0.58394913  1
  Te  Te101  1  0.08623993  0.25384322  0.91798882  1
  Te  Te102  1  0.06994233  0.55689806  0.25513078  1
  Te  Te103  1  0.09829374  0.61245680  0.59624552  1
  Te  Te104  1  0.09057032  0.58136720  0.88078184  1
  Te  Te105  1  0.07998573  0.90254133  0.24476636  1
  Te  Te106  1  0.09432158  0.87645985  0.59114238  1
  Te  Te107  1  0.08657928  0.92012672  0.86720482  1
  Te  Te108  1  0.42179978  0.25050488  0.24659236  1
  Te  Te109  1  0.41574335  0.25287454  0.56828523  1
  Te  Te110  1  0.41222003  0.26138491  0.90525130  1
  Te  Te111  1  0.40081906  0.57510297  0.27936260  1
  Te  Te112  1  0.40234132  0.56897834  0.61483020  1
  Te  Te113  1  0.43030089  0.58126380  0.91130488  1
  Te  Te114  1  0.43098881  0.91074842  0.27208617  1
  Te  Te115  1  0.39725896  0.89090451  0.57919054  1
  Te  Te116  1  0.38632950  0.89062801  0.89701300  1
  Te  Te117  1  0.76083473  0.25125444  0.24014166  1
  Te  Te118  1  0.77692874  0.25875066  0.58044602  1
  Te  Te119  1  0.77233079  0.27074220  0.89952535  1
  Te  Te120  1  0.77619611  0.54945789  0.29123872  1
  Te  Te121  1  0.74916771  0.60604218  0.57637873  1
  Te  Te122  1  0.74165238  0.58294101  0.90878311  1
  Te  Te123  1  0.77569778  0.92175778  0.26819799  1
  Te  Te124  1  0.74226514  0.90583599  0.57941240  1
  Te  Te125  1  0.74896296  0.94091571  0.92169770  1
  Te  Te126  1  0.26885081  0.28144571  0.06696356  1
  Te  Te127  1  0.24174013  0.26673887  0.44226569  1
  Te  Te128  1  0.24148818  0.24630624  0.73187064  1
  Te  Te129  1  0.24763651  0.59260349  0.08402673  1
  Te  Te130  1  0.27381062  0.61831889  0.42222575  1
  Te  Te131  1  0.24354155  0.58984174  0.76458816  1
  Te  Te132  1  0.24470148  0.92199160  0.07783559  1
  Te  Te133  1  0.27142112  0.91356351  0.41863467  1
  Te  Te134  1  0.22196749  0.88719067  0.74857386  1
  Te  Te135  1  0.60983714  0.22984118  0.08323409  1
  Te  Te136  1  0.57919733  0.25480090  0.41392742  1
  Te  Te137  1  0.59357551  0.25243541  0.74517678  1
  Te  Te138  1  0.56328121  0.56390193  0.07339089  1
  Te  Te139  1  0.58349504  0.58562356  0.40885696  1
  Te  Te140  1  0.61540412  0.54522876  0.74013508  1
  Te  Te141  1  0.59301396  0.93294058  0.06523080  1
  Te  Te142  1  0.57825230  0.88209257  0.43124189  1
  Te  Te143  1  0.57521304  0.90941736  0.75668010  1
  Te  Te144  1  0.88101701  0.25953243  0.07671694  1
  Te  Te145  1  0.91899812  0.26175078  0.41392325  1
  Te  Te146  1  0.90519688  0.25822214  0.76496211  1
  Te  Te147  1  0.92266036  0.58401251  0.08899482  1
  Te  Te148  1  0.90691074  0.58918945  0.44406003  1
  Te  Te149  1  0.93847257  0.60146426  0.73112781  1
  Te  Te150  1  0.91227495  0.92196050  0.08519557  1
  Te  Te151  1  0.92432697  0.84875677  0.45466828  1
  Te  Te152  1  0.90948862  0.90964918  0.74227841  1
  Te  Te153  1  0.27168878  0.06622669  0.27492268  1
  Te  Te154  1  0.24381312  0.08548118  0.59235804  1
  Te  Te155  1  0.23327930  0.06743975  0.89402672  1
  Te  Te156  1  0.23809906  0.41422417  0.25971644  1
  Te  Te157  1  0.25214475  0.42484958  0.55636457  1
  Te  Te158  1  0.26727200  0.42331345  0.91316096  1
  Te  Te159  1  0.25293994  0.73619938  0.26321369  1
  Te  Te160  1  0.20027836  0.74997869  0.57764548  1
  Te  Te161  1  0.23059439  0.71808196  0.87876615  1
  Te  Te162  1  0.60155704  0.09169821  0.24736554  1
  Te  Te163  1  0.57979257  0.07671864  0.58392453  1
  Te  Te164  1  0.56650573  0.06956725  0.89726943  1
  Te  Te165  1  0.57007786  0.42701125  0.25996052  1
  Te  Te166  1  0.56988969  0.45499709  0.61935241  1
  Te  Te167  1  0.57675925  0.43512552  0.90809556  1
  Te  Te168  1  0.59852945  0.73841140  0.24327814  1
  Te  Te169  1  0.60404276  0.72317385  0.58133235  1
  Te  Te170  1  0.57918825  0.74620466  0.91048639  1
  Te  Te171  1  0.93313222  0.07342343  0.24760766  1
  Te  Te172  1  0.91291638  0.08892772  0.59230057  1
  Te  Te173  1  0.91321748  0.09638404  0.93375508  1
  Te  Te174  1  0.87542416  0.43790736  0.23642697  1
  Te  Te175  1  0.91282544  0.41778112  0.58168476  1
  Te  Te176  1  0.92413378  0.43812967  0.89529243  1
  Te  Te177  1  0.90450752  0.74545183  0.26599431  1
  Te  Te178  1  0.93027820  0.73430739  0.55844117  1
  Te  Te179  1  0.94099065  0.76645912  0.89053943  1
