# generated using pymatgen
data_In2Te3
_symmetry_space_group_name_H-M   'P 1'
_cell_length_a   19.04858956
_cell_length_b   19.06807521
_cell_length_c   19.02284254
_cell_angle_alpha   90.20488688
_cell_angle_beta   89.97113886
_cell_angle_gamma   90.01247962
_symmetry_Int_Tables_number   1
_chemical_formula_structural   In2Te3
_chemical_formula_sum   'In72 Te108'
_cell_volume   6909.43047937
_cell_formula_units_Z   36
loop_
 _symmetry_equiv_pos_site_id
 _symmetry_equiv_pos_as_xyz
  1  'x, y, z'
loop_
 _atom_site_type_symbol
 _atom_site_label
 _atom_site_symmetry_multiplicity
 _atom_site_fract_x
 _atom_site_fract_y
 _atom_site_fract_z
 _atom_site_occupancy
  In  In0  1  0.33596225  0.50724284  0.50193377  1
  In  In1  1  0.83529835  0.35926212  0.86025033  1
  In  In2  1  0.02024543  0.33577800  -0.02384694  1
  In  In3  1  0.48710493  0.16384587  0.68550449  1
  In  In4  1  0.67630621  0.17141566  0.17049501  1
  In  In5  1  0.49721004  0.33849840  0.16362908  1
  In  In6  1  0.18117996  0.84067255  0.31962896  1
  In  In7  1  0.00708899  0.14702380  0.82320636  1
  In  In8  1  0.17532288  0.81722105  0.68091323  1
  In  In9  1  -0.00858166  0.65251931  0.68209642  1
  In  In10  1  0.81434237  0.82996374  -0.04537529  1
  In  In11  1  0.49145827  0.16678243  0.28851687  1
  In  In12  1  0.17638455  0.14084138  0.68845740  1
  In  In13  1  0.01092272  0.66617150  -0.01164751  1
  In  In14  1  0.84077550  0.33556137  0.47422378  1
  In  In15  1  0.79836218  0.66604448  0.81825586  1
  In  In16  1  0.51180220  0.82961684  -0.01946662  1
  In  In17  1  0.20378391  0.65995649  0.18021178  1
  In  In18  1  0.52203168  0.35614018  0.48468230  1
  In  In19  1  -0.01729530  0.81877685  0.14741292  1
  In  In20  1  0.76632465  0.87163105  0.32148321  1
  In  In21  1  0.34452378  -0.00367060  0.32444782  1
  In  In22  1  -0.00293659  0.49344673  0.13479859  1
  In  In23  1  0.47286360  0.00377440  0.51270136  1
  In  In24  1  0.83559141  0.68125894  0.51592684  1
  In  In25  1  0.82588011  0.51911422  0.31549449  1
  In  In26  1  0.30759565  0.16866088  0.51820270  1
  In  In27  1  0.51248258  0.67119394  0.11377652  1
  In  In28  1  0.66621483  -0.00684710  0.66090489  1
  In  In29  1  0.15289466  0.68304680  0.51424521  1
  In  In30  1  0.52107916  0.85284646  0.32564969  1
  In  In31  1  0.35641993  0.34785609  0.66484056  1
  In  In32  1  0.16053658  0.51908229  0.67252246  1
  In  In33  1  0.83938525  0.16912184  -0.01209921  1
  In  In34  1  0.51847028  0.80766685  0.70847857  1
  In  In35  1  0.15179509  0.02018828  0.17020974  1
  In  In36  1  -0.00118375  -0.01145151  -0.01085337  1
  In  In37  1  -0.01791865  0.15755294  0.18674372  1
  In  In38  1  -0.01209166  0.17039528  0.50391801  1
  In  In39  1  0.80233562  0.69754367  0.14925936  1
  In  In40  1  0.65997996  0.17208773  0.46530275  1
  In  In41  1  0.31757022  0.46102008  0.16889845  1
  In  In42  1  0.17957566  -0.01842905  0.83869161  1
  In  In43  1  0.67040678  0.50197061  0.84669395  1
  In  In44  1  0.67099531  -0.00415755  -0.01581973  1
  In  In45  1  0.68480192  0.50812164  0.50726728  1
  In  In46  1  0.82724939  0.01249853  0.49468980  1
  In  In47  1  0.64398871  0.83678864  0.52194395  1
  In  In48  1  0.66721797  0.34249833  0.01500351  1
  In  In49  1  0.36245994  0.64652457  0.33610960  1
  In  In50  1  0.32726871  0.14923843  0.85335164  1
  In  In51  1  0.14966969  0.17035899  0.35951015  1
  In  In52  1  0.82518179  0.34373120  0.16463877  1
  In  In53  1  -0.00336573  0.01292831  0.35009357  1
  In  In54  1  0.00553621  0.80989426  0.50975373  1
  In  In55  1  -0.01322823  0.32992974  0.65296666  1
  In  In56  1  0.41510619  0.62459327  0.75628738  1
  In  In57  1  0.17917558  0.84803162  -0.00038223  1
  In  In58  1  0.65922344  0.65861999  0.32320977  1
  In  In59  1  0.51297437  0.48435810  0.31474541  1
  In  In60  1  0.49136521  0.66498217  0.53173379  1
  In  In61  1  0.63959210  0.14397739  0.83462848  1
  In  In62  1  0.20693689  0.66306537  0.85719884  1
  In  In63  1  0.82257877  0.17828103  0.65146632  1
  In  In64  1  -0.01421056  0.66168546  0.29449240  1
  In  In65  1  0.49913102  0.30547973  0.85063181  1
  In  In66  1  0.17438140  0.34903318  0.82971917  1
  In  In67  1  0.35241041  0.21179053  0.09075448  1
  In  In68  1  0.13470476  0.34832780  0.48503163  1
  In  In69  1  0.32912497  0.82098385  0.51856569  1
  In  In70  1  0.17228685  0.48796598  0.01794863  1
  In  In71  1  0.34167206  -0.00311751  0.02326702  1
  Te  Te72  1  0.06566118  0.09489332  0.07315042  1
  Te  Te73  1  0.09123432  0.06874474  0.45295921  1
  Te  Te74  1  0.07700279  0.04106792  0.74180884  1
  Te  Te75  1  0.09930937  0.38430769  0.10353043  1
  Te  Te76  1  0.11458456  0.45126320  0.38606728  1
  Te  Te77  1  0.07243100  0.41981995  0.74443673  1
  Te  Te78  1  0.10121268  0.74242331  0.09089921  1
  Te  Te79  1  0.08582801  0.74218674  0.38353891  1
  Te  Te80  1  0.09874712  0.72069232  0.76574337  1
  Te  Te81  1  0.41308280  0.08196507  0.12119894  1
  Te  Te82  1  0.41424725  0.10426014  0.41400522  1
  Te  Te83  1  0.39013360  0.07291462  0.74385004  1
  Te  Te84  1  0.42543644  0.43185957  0.07645393  1
  Te  Te85  1  0.40971089  0.41824495  0.40448948  1
  Te  Te86  1  0.42462049  0.40860592  0.77777236  1
  Te  Te87  1  0.40900763  0.76386732  0.06542700  1
  Te  Te88  1  0.43600839  0.75710692  0.42321869  1
  Te  Te89  1  0.39204109  0.77030506  0.77456457  1
  Te  Te90  1  0.75739826  0.08100751  0.07689514  1
  Te  Te91  1  0.76606303  0.09935225  0.39604391  1
  Te  Te92  1  0.74978968  0.08611397  0.74631864  1
  Te  Te93  1  0.77414441  0.43056892  0.05947113  1
  Te  Te94  1  0.74334422  0.42328584  0.39741415  1
  Te  Te95  1  0.74981981  0.41460633  0.75819601  1
  Te  Te96  1  0.72137185  0.78304638  0.06149030  1
  Te  Te97  1  0.72904637  0.75009226  0.42167049  1
  Te  Te98  1  0.72902042  0.78568337  0.76246185  1
  Te  Te99  1  0.06167576  0.24836868  0.27115421  1
  Te  Te100  1  0.09611088  0.23892882  0.59675470  1
  Te  Te101  1  0.10233171  0.23374939  0.90029072  1
  Te  Te102  1  0.08948479  0.57445106  0.22904093  1
  Te  Te103  1  0.06376597  0.57696708  0.57081301  1
  Te  Te104  1  0.09941377  0.56926479  0.91450330  1
  Te  Te105  1  0.06881339  0.91116155  0.23991979  1
  Te  Te106  1  0.10584788  0.89173987  0.57596418  1
  Te  Te107  1  0.07289365  0.89044037  0.90214381  1
  Te  Te108  1  0.38888069  0.26083279  0.23567086  1
  Te  Te109  1  0.42898876  0.25404185  0.57002310  1
  Te  Te110  1  0.41190803  0.22928786  0.94629838  1
  Te  Te111  1  0.44308948  0.58442383  0.22592967  1
  Te  Te112  1  0.42690253  0.55771591  0.61100381  1
  Te  Te113  1  0.45965135  0.61014970  0.89981905  1
  Te  Te114  1  0.43710346  0.92909115  0.23454490  1
  Te  Te115  1  0.43517092  0.88946817  0.60088057  1
  Te  Te116  1  0.44092468  0.94855110  0.92483204  1
  Te  Te117  1  0.76665683  0.24795259  0.25568479  1
  Te  Te118  1  0.73956229  0.26189605  0.56027616  1
  Te  Te119  1  0.73430979  0.24439965  0.90978948  1
  Te  Te120  1  0.73118273  0.58109619  0.21560636  1
  Te  Te121  1  0.77122533  0.58217361  0.59995813  1
  Te  Te122  1  0.75017115  0.58970688  0.93879030  1
  Te  Te123  1  0.68482747  0.93933420  0.22376227  1
  Te  Te124  1  0.76257408  0.90721145  0.58405121  1
  Te  Te125  1  0.68328725  0.90273588  0.86100420  1
  Te  Te126  1  0.23584383  0.29480978  0.06417950  1
  Te  Te127  1  0.24769445  0.26731914  0.42188056  1
  Te  Te128  1  0.26728141  0.25367669  0.74692458  1
  Te  Te129  1  0.27645258  0.58022145  0.07687746  1
  Te  Te130  1  0.24927122  0.60176597  0.42311585  1
  Te  Te131  1  0.26967935  0.56004854  0.76690998  1
  Te  Te132  1  0.24727558  0.91795142  0.11430698  1
  Te  Te133  1  0.26017558  0.91707679  0.42355704  1
  Te  Te134  1  0.27050659  0.88827429  0.77026512  1
  Te  Te135  1  0.57934961  0.23975954  0.07935392  1
  Te  Te136  1  0.57417504  0.26076122  0.37976803  1
  Te  Te137  1  0.59264737  0.25447918  0.74146674  1
  Te  Te138  1  0.61704840  0.61583305  0.02270899  1
  Te  Te139  1  0.57077770  0.58502711  0.42145496  1
  Te  Te140  1  0.56906992  0.60111377  0.78537054  1
  Te  Te141  1  0.60448505  0.90011233  0.08019116  1
  Te  Te142  1  0.58471462  0.94132133  0.43077451  1
  Te  Te143  1  0.56252675  0.94263521  0.75385146  1
  Te  Te144  1  0.92486580  0.25879478  0.07218495  1
  Te  Te145  1  0.94209747  0.25889575  0.39722395  1
  Te  Te146  1  0.91337613  0.24836249  0.75907649  1
  Te  Te147  1  0.91306368  0.60908048  0.08725423  1
  Te  Te148  1  0.91295988  0.59880768  0.40977149  1
  Te  Te149  1  0.89613900  0.57318582  0.75782366  1
  Te  Te150  1  0.89654700  0.90637419  0.06396805  1
  Te  Te151  1  0.92184161  0.90717687  0.42970724  1
  Te  Te152  1  0.83134481  0.88675370  0.81460806  1
  Te  Te153  1  0.24064065  0.09306041  0.26605269  1
  Te  Te154  1  0.26602717  0.05981449  0.60430564  1
  Te  Te155  1  0.23504935  0.07298988  0.94489523  1
  Te  Te156  1  0.22807823  0.44501926  0.28017877  1
  Te  Te157  1  0.23950864  0.41661178  0.58468836  1
  Te  Te158  1  0.26141262  0.39060444  0.94402196  1
  Te  Te159  1  0.29056243  0.75662942  0.25761401  1
  Te  Te160  1  0.26682545  0.71653497  0.60544664  1
  Te  Te161  1  0.28038731  0.75391374  0.94852652  1
  Te  Te162  1  0.59886835  0.07146857  0.25234200  1
  Te  Te163  1  0.58401740  0.09538720  0.57811394  1
  Te  Te164  1  0.55517457  0.07399319  0.93227655  1
  Te  Te165  1  0.60478491  0.41616282  0.22560019  1
  Te  Te166  1  0.59034282  0.43060766  0.58835448  1
  Te  Te167  1  0.57233052  0.41714773  0.92674135  1
  Te  Te168  1  0.57751622  0.74667949  0.23425013  1
  Te  Te169  1  0.60508791  0.72221680  0.61130558  1
  Te  Te170  1  0.57588259  0.71122188  0.90427355  1
  Te  Te171  1  0.90226897  0.05191552  0.24698482  1
  Te  Te172  1  0.91909592  0.07469734  0.59901232  1
  Te  Te173  1  0.90440960  0.06584429  0.89878716  1
  Te  Te174  1  0.92360016  0.42584637  0.24785375  1
  Te  Te175  1  0.91667396  0.42104614  0.56546183  1
  Te  Te176  1  0.93532196  0.44237745  0.92509484  1
  Te  Te177  1  0.88201189  0.77186200  0.25792600  1
  Te  Te178  1  0.91211145  0.76432596  0.61857849  1
  Te  Te179  1  0.91868322  0.73350125  0.89369055  1
