# generated using pymatgen
data_In2Te3
_symmetry_space_group_name_H-M   'P 1'
_cell_length_a   18.76617110
_cell_length_b   18.76104615
_cell_length_c   18.76362624
_cell_angle_alpha   90.05986175
_cell_angle_beta   89.99559761
_cell_angle_gamma   90.00875701
_symmetry_Int_Tables_number   1
_chemical_formula_structural   In2Te3
_chemical_formula_sum   'In72 Te108'
_cell_volume   6606.16251585
_cell_formula_units_Z   36
loop_
 _symmetry_equiv_pos_site_id
 _symmetry_equiv_pos_as_xyz
  1  'x, y, z'
loop_
 _atom_site_type_symbol
 _atom_site_label
 _atom_site_symmetry_multiplicity
 _atom_site_fract_x
 _atom_site_fract_y
 _atom_site_fract_z
 _atom_site_occupancy
  In  In0  1  0.64396267  0.69673287  0.66193793  1
  In  In1  1  0.65735063  0.16579477  0.81760439  1
  In  In2  1  0.17213971  0.50813736  0.31271974  1
  In  In3  1  0.83235454  0.54983559  0.01477959  1
  In  In4  1  0.66733438  0.67747296  0.33511661  1
  In  In5  1  0.01778181  0.48674724  0.48522419  1
  In  In6  1  0.46714215  0.31314599  0.51595989  1
  In  In7  1  0.49523404  0.12357392  0.34210857  1
  In  In8  1  0.31609950  0.51059406  0.14471057  1
  In  In9  1  0.65192630  0.15022393  0.52809782  1
  In  In10  1  0.33795784  0.33513609  0.01029079  1
  In  In11  1  0.52337795  0.67233561  0.16965212  1
  In  In12  1  0.30408707  0.84366841  0.82037096  1
  In  In13  1  0.82843167  0.81049205  0.01940348  1
  In  In14  1  0.00002782  0.53063572  0.84664268  1
  In  In15  1  0.48471954  0.00298908  0.79893108  1
  In  In16  1  0.82610185  0.35818109  0.82182748  1
  In  In17  1  0.16568591  0.32950475  0.82408409  1
  In  In18  1  0.64540993  0.83711111  0.83219296  1
  In  In19  1  0.36122895  0.83886154  0.20517760  1
  In  In20  1  0.81395960  0.67875319  0.84673955  1
  In  In21  1  0.82585456  -0.01750562  0.16263380  1
  In  In22  1  0.00622890  0.31484148  0.66123627  1
  In  In23  1  0.47332487  0.32086227  0.17395004  1
  In  In24  1  0.85985629  -0.02502762  0.79846437  1
  In  In25  1  0.34131410  0.67372717  0.34730099  1
  In  In26  1  0.01667751  0.83028859  0.49173612  1
  In  In27  1  0.33985772  0.50349134  0.84159798  1
  In  In28  1  0.83202367  0.34418641  0.19439510  1
  In  In29  1  0.35220180  0.15764830  0.17948302  1
  In  In30  1  0.83401624  0.15212610  -0.00507112  1
  In  In31  1  0.66798217  0.51159693  0.16026165  1
  In  In32  1  0.17150511  0.81786608  0.33720218  1
  In  In33  1  0.49256577  0.17161661  0.00861358  1
  In  In34  1  0.83545207  0.29185765  0.49932603  1
  In  In35  1  -0.01230250  0.82543136  0.16096954  1
  In  In36  1  0.50020442  0.32683002  0.82440133  1
  In  In37  1  0.17406827  0.32861521  0.17209995  1
  In  In38  1  0.49835554  0.82221036  0.01137472  1
  In  In39  1  0.18522944  0.46822755  0.63553946  1
  In  In40  1  0.83244883  0.50499204  0.29925912  1
  In  In41  1  0.63742531  0.33308353  0.00558694  1
  In  In42  1  0.48347044  0.51314385  0.66103721  1
  In  In43  1  0.49646394  0.48410541  0.34477032  1
  In  In44  1  0.33761123  0.84686136  0.50623270  1
  In  In45  1  0.82087103  0.82239288  0.32396193  1
  In  In46  1  0.17905856  -0.00109198  0.82493028  1
  In  In47  1  0.14964192  0.68224330  0.83226350  1
  In  In48  1  0.83210406  0.67498541  0.48624393  1
  In  In49  1  0.68020387  0.32390353  0.34816382  1
  In  In50  1  -0.00060577  0.66938730  0.00927951  1
  In  In51  1  0.17000449  0.82931045  -0.00981528  1
  In  In52  1  0.65788784  0.50154826  0.50032937  1
  In  In53  1  0.83501004  0.15696733  0.36925008  1
  In  In54  1  0.01881006  0.34686979  0.01769969  1
  In  In55  1  0.32592180  0.00798519  -0.00953774  1
  In  In56  1  0.65832284  -0.02219878  0.00999482  1
  In  In57  1  0.18570903  0.02007471  0.16895910  1
  In  In58  1  0.17415160  0.00194822  0.49914957  1
  In  In59  1  0.00594412  0.70046391  0.66991199  1
  In  In60  1  0.00856985  0.00864663  0.34358059  1
  In  In61  1  0.02530064  0.16143061  0.15823807  1
  In  In62  1  0.50356242  0.67026692  0.85703010  1
  In  In63  1  0.17386109  0.68067345  0.50157547  1
  In  In64  1  0.80730760  -0.01617318  0.52479908  1
  In  In65  1  0.32761162  0.66351335  0.65546840  1
  In  In66  1  0.18880251  0.15790182  0.66827989  1
  In  In67  1  0.82708241  0.15556457  0.62522085  1
  In  In68  1  0.00224767  0.16915370  0.49297128  1
  In  In69  1  0.01190405  0.17476220  0.83216953  1
  In  In70  1  0.48508058  0.85044695  0.65443315  1
  In  In71  1  0.81456749  0.47885225  0.68411922  1
  Te  Te72  1  0.09226300  0.06909183  0.06566893  1
  Te  Te73  1  0.10931373  0.10439471  0.40311380  1
  Te  Te74  1  0.07494828  0.08035070  0.73233910  1
  Te  Te75  1  0.10036145  0.44078240  0.10173949  1
  Te  Te76  1  0.11661954  0.40319495  0.41073807  1
  Te  Te77  1  0.06649636  0.42533196  0.75081652  1
  Te  Te78  1  0.10128341  0.74503962  0.09754391  1
  Te  Te79  1  0.06941568  0.72140076  0.39675337  1
  Te  Te80  1  0.08324392  0.79572668  0.75848023  1
  Te  Te81  1  0.43017820  0.05939664  0.09070713  1
  Te  Te82  1  0.40337718  0.07777422  0.44922411  1
  Te  Te83  1  0.43686191  0.12061341  0.71999295  1
  Te  Te84  1  0.43412912  0.43149427  0.07898152  1
  Te  Te85  1  0.39578307  0.41361058  0.42882861  1
  Te  Te86  1  0.40141936  0.40941826  0.73794244  1
  Te  Te87  1  0.40369057  0.73870756  0.09567548  1
  Te  Te88  1  0.43025596  0.76322931  0.42483874  1
  Te  Te89  1  0.41977006  0.74880133  0.75251013  1
  Te  Te90  1  0.73590351  0.08454693  0.08909865  1
  Te  Te91  1  0.72549469  0.06524821  0.42327009  1
  Te  Te92  1  0.75940299  0.08088628  0.74205913  1
  Te  Te93  1  0.75774657  0.41382910  0.07906381  1
  Te  Te94  1  0.76646527  0.42588196  0.42220796  1
  Te  Te95  1  0.70433489  0.40955877  0.75502461  1
  Te  Te96  1  0.74475363  0.72554295  0.10113412  1
  Te  Te97  1  0.72809095  0.77548371  0.43801640  1
  Te  Te98  1  0.75234384  0.77086806  0.74114793  1
  Te  Te99  1  0.09460641  0.24000064  0.26117248  1
  Te  Te100  1  0.10817610  0.25677845  0.56589958  1
  Te  Te101  1  0.09933699  0.24557129  0.93519931  1
  Te  Te102  1  0.06185314  0.55498582  0.22533999  1
  Te  Te103  1  0.08090082  0.58811964  0.58989789  1
  Te  Te104  1  0.11107850  0.57485556  0.94243898  1
  Te  Te105  1  0.08560607  0.91638729  0.24890431  1
  Te  Te106  1  0.08971809  0.91778035  0.58537189  1
  Te  Te107  1  0.08712713  0.92439056  0.91538315  1
  Te  Te108  1  0.40912944  0.24929663  0.28900725  1
  Te  Te109  1  0.39823630  0.20269470  0.58903960  1
  Te  Te110  1  0.40330242  0.24039667  0.90803322  1
  Te  Te111  1  0.42006308  0.57832446  0.24821263  1
  Te  Te112  1  0.40930312  0.58916675  0.55835173  1
  Te  Te113  1  0.40843154  0.59171707  0.93820499  1
  Te  Te114  1  0.42323351  0.95049052  0.28351597  1
  Te  Te115  1  0.44202906  0.95844158  0.55173914  1
  Te  Te116  1  0.42399158  0.90890254  0.90773646  1
  Te  Te117  1  0.75138358  0.22853132  0.25508829  1
  Te  Te118  1  0.72691982  0.26783241  0.60066950  1
  Te  Te119  1  0.74331236  0.25187723  0.91855891  1
  Te  Te120  1  0.75789137  0.62329857  0.22108573  1
  Te  Te121  1  0.74730667  0.59134323  0.58927341  1
  Te  Te122  1  0.73912522  0.56480869  0.90272099  1
  Te  Te123  1  0.72973372  0.91530799  0.25206146  1
  Te  Te124  1  0.71949756  0.90925991  0.61461920  1
  Te  Te125  1  0.75818994  0.91696095  0.91033906  1
  Te  Te126  1  0.25565134  0.23155069  0.08496882  1
  Te  Te127  1  0.22732737  0.29683564  0.45843411  1
  Te  Te128  1  0.26475128  0.26571124  0.73618675  1
  Te  Te129  1  0.21680738  0.58048596  0.06320032  1
  Te  Te130  1  0.25530439  0.57661532  0.42825316  1
  Te  Te131  1  0.23609958  0.58021301  0.74682077  1
  Te  Te132  1  0.26790997  0.90684532  0.09394876  1
  Te  Te133  1  0.25995769  0.92359470  0.39715603  1
  Te  Te134  1  0.27498446  0.94795826  0.72235236  1
  Te  Te135  1  0.58510759  0.23586641  0.11237069  1
  Te  Te136  1  0.57733458  0.24305693  0.42351985  1
  Te  Te137  1  0.55880278  0.22947809  0.72389853  1
  Te  Te138  1  0.58282300  0.58467837  0.06514948  1
  Te  Te139  1  0.56909116  0.59530535  0.42116936  1
  Te  Te140  1  0.58119315  0.58981308  0.75152791  1
  Te  Te141  1  0.57827380  0.90212372  0.10760777  1
  Te  Te142  1  0.55506153  0.93165664  0.35684565  1
  Te  Te143  1  0.60465688  0.93690452  0.72169196  1
  Te  Te144  1  0.91405955  0.25159391  0.08360664  1
  Te  Te145  1  0.94020571  0.26764609  0.39233263  1
  Te  Te146  1  0.89984945  0.24201673  0.74663347  1
  Te  Te147  1  0.94121619  0.57720407  0.11371043  1
  Te  Te148  1  0.91950249  0.57723801  0.40888501  1
  Te  Te149  1  0.90929157  0.59609801  0.74170582  1
  Te  Te150  1  0.92580434  0.92407561  0.06379931  1
  Te  Te151  1  0.90789743  0.91924309  0.41384565  1
  Te  Te152  1  0.94765784  0.87806989  0.73048745  1
  Te  Te153  1  0.25569339  0.09488450  0.27418592  1
  Te  Te154  1  0.27592876  0.10029391  0.55570761  1
  Te  Te155  1  0.26145138  0.10015687  0.89639376  1
  Te  Te156  1  0.27608114  0.41033229  0.25208962  1
  Te  Te157  1  0.28901910  0.38744050  0.56149569  1
  Te  Te158  1  0.24296683  0.41744695  0.92395061  1
  Te  Te159  1  0.24937592  0.73121016  0.24021569  1
  Te  Te160  1  0.23809209  0.77529312  0.60162215  1
  Te  Te161  1  0.26685835  0.73490999  0.91842490  1
  Te  Te162  1  0.58457437  0.04053443  0.25662524  1
  Te  Te163  1  0.55113848  0.06626377  0.59712017  1
  Te  Te164  1  0.57564681  0.07607697  0.91438218  1
  Te  Te165  1  0.59505270  0.40918848  0.25148242  1
  Te  Te166  1  0.56888311  0.41115576  0.58236466  1
  Te  Te167  1  0.56352994  0.42365447  0.91687178  1
  Te  Te168  1  0.57083512  0.77257580  0.27011412  1
  Te  Te169  1  0.56038884  0.76272671  0.55924539  1
  Te  Te170  1  0.61013876  0.74055954  0.94293944  1
  Te  Te171  1  0.91218937  0.08347499  0.24931070  1
  Te  Te172  1  0.93312298  0.05949539  0.57463366  1
  Te  Te173  1  0.92559340  0.07188447  0.90593544  1
  Te  Te174  1  0.94585310  0.41718138  0.25677008  1
  Te  Te175  1  0.91398594  0.41250396  0.58353563  1
  Te  Te176  1  0.92017305  0.42482771  0.92541314  1
  Te  Te177  1  0.92391981  0.73796397  0.26056293  1
  Te  Te178  1  0.90349068  0.77185337  0.58092512  1
  Te  Te179  1  0.92621381  0.75900676  0.91148062  1
