# generated using pymatgen
data_In2Te3
_symmetry_space_group_name_H-M   'P 1'
_cell_length_a   18.96039081
_cell_length_b   18.99804121
_cell_length_c   18.97423655
_cell_angle_alpha   89.91817744
_cell_angle_beta   89.98478745
_cell_angle_gamma   90.08015879
_symmetry_Int_Tables_number   1
_chemical_formula_structural   In2Te3
_chemical_formula_sum   'In72 Te108'
_cell_volume   6834.70126947
_cell_formula_units_Z   36
loop_
 _symmetry_equiv_pos_site_id
 _symmetry_equiv_pos_as_xyz
  1  'x, y, z'
loop_
 _atom_site_type_symbol
 _atom_site_label
 _atom_site_symmetry_multiplicity
 _atom_site_fract_x
 _atom_site_fract_y
 _atom_site_fract_z
 _atom_site_occupancy
  In  In0  1  0.85049539  0.50966622  -0.01480426  1
  In  In1  1  0.66753491  0.82670857  0.83862404  1
  In  In2  1  0.02565541  0.64701900  0.64868902  1
  In  In3  1  0.51978533  -0.00806543  0.83782591  1
  In  In4  1  0.00868320  0.48363774  0.15931038  1
  In  In5  1  0.33239262  0.65065118  0.65870183  1
  In  In6  1  0.15241082  0.66860158  0.84378229  1
  In  In7  1  0.07825081  0.15467055  0.83217735  1
  In  In8  1  0.20256115  0.85379246  0.65881176  1
  In  In9  1  -0.00077062  0.48855326  0.81386864  1
  In  In10  1  0.86279544  0.00763118  0.83124006  1
  In  In11  1  0.32514585  0.49277822  0.50952410  1
  In  In12  1  0.83799605  0.15808591  0.33327587  1
  In  In13  1  0.32830659  0.85677247  0.17697760  1
  In  In14  1  0.81576249  0.35989566  0.82346176  1
  In  In15  1  -0.01836425  0.80242099  0.84299985  1
  In  In16  1  0.82308080  0.33054985  0.50753023  1
  In  In17  1  0.32690003  0.03464035  -0.03544970  1
  In  In18  1  0.52323655  0.66152705  0.83590966  1
  In  In19  1  0.65945219  0.16361325  0.13969647  1
  In  In20  1  0.50505774  0.00407663  0.15370771  1
  In  In21  1  0.50304544  0.47651425  -0.00240398  1
  In  In22  1  0.47230530  0.15242963  0.35176969  1
  In  In23  1  0.81205581  0.82834469  0.68036850  1
  In  In24  1  0.65054487  0.01409398  0.66268380  1
  In  In25  1  0.19051055  0.29791846  0.14878011  1
  In  In26  1  0.15010012  0.35297162  0.48627290  1
  In  In27  1  0.17794961  0.01379695  0.19062820  1
  In  In28  1  0.64494969  0.84012853  0.51976033  1
  In  In29  1  0.52999215  0.36975893  0.52458372  1
  In  In30  1  0.67103019  0.49751820  0.19396526  1
  In  In31  1  0.45047245  0.84243501  0.64128403  1
  In  In32  1  0.16157079  0.68196596  0.17798005  1
  In  In33  1  0.83642242  0.51471544  0.33382600  1
  In  In34  1  0.64827642  0.15430222  0.48946486  1
  In  In35  1  0.50589529  0.50435392  0.33448569  1
  In  In36  1  0.02531200  0.84036513  0.50491142  1
  In  In37  1  0.00100566  0.35810671  0.66768434  1
  In  In38  1  0.18965992  0.14995815  0.64428060  1
  In  In39  1  -0.00033260  0.15342076  0.48916455  1
  In  In40  1  0.85542803  0.16601843  0.65903617  1
  In  In41  1  0.01020953  0.17492455  0.17208387  1
  In  In42  1  0.47266889  0.30703279  0.84255261  1
  In  In43  1  -0.00923475  0.84147216  0.15668006  1
  In  In44  1  0.65774064  0.18325567  0.83670614  1
  In  In45  1  0.16678550  0.50508118  0.35972892  1
  In  In46  1  0.68358219  0.81184965  0.15963538  1
  In  In47  1  0.19844945  0.83067900  0.37125432  1
  In  In48  1  0.69573811  0.65638591  0.00010322  1
  In  In49  1  0.84218911  0.83670355  0.30867848  1
  In  In50  1  0.32875739  0.85047018  0.83689904  1
  In  In51  1  0.46609922  0.16205764  0.67182088  1
  In  In52  1  0.84824419  0.33429900  0.15440482  1
  In  In53  1  0.64992180  0.33380121  -0.00681964  1
  In  In54  1  0.33412292  0.50208300  0.82762383  1
  In  In55  1  0.32042131  0.32107560  0.66456997  1
  In  In56  1  0.01102485  -0.00224848  -0.01442020  1
  In  In57  1  0.82857865  0.67713599  0.49885874  1
  In  In58  1  0.33648087  0.67508802  0.03418377  1
  In  In59  1  0.66257789  0.35291420  0.32122271  1
  In  In60  1  0.65458209  -0.02416004  0.33843500  1
  In  In61  1  0.18499067  0.16062690  0.33413522  1
  In  In62  1  0.14129698  0.84573865  0.01236034  1
  In  In63  1  0.34165524  0.49560868  0.16443511  1
  In  In64  1  0.50917941  0.67523434  0.18040655  1
  In  In65  1  0.65816797  0.66149433  0.34649737  1
  In  In66  1  0.66456078  0.01633583  -0.01077344  1
  In  In67  1  0.15906691  0.47800396  -0.02413384  1
  In  In68  1  0.32916514  0.31620770  0.32299111  1
  In  In69  1  0.66044706  0.67744917  0.66831488  1
  In  In70  1  0.01534574  -0.01340158  0.33405036  1
  In  In71  1  0.42428112  0.84339942  0.39735541  1
  Te  Te72  1  0.09255271  0.07993788  0.08786765  1
  Te  Te73  1  0.10712597  0.06610598  0.42404872  1
  Te  Te74  1  0.07183638  0.08513937  0.70372585  1
  Te  Te75  1  0.08967346  0.38625926  0.07524246  1
  Te  Te76  1  0.04971072  0.45615773  0.44262160  1
  Te  Te77  1  0.10526382  0.40172979  0.76223136  1
  Te  Te78  1  0.06573138  0.73199512  0.07189314  1
  Te  Te79  1  0.09611164  0.74173512  0.42471525  1
  Te  Te80  1  0.09669913  0.75956467  0.73651789  1
  Te  Te81  1  0.41270037  0.08475393  0.07352037  1
  Te  Te82  1  0.37354813  0.08038668  0.43306002  1
  Te  Te83  1  0.41161695  0.06727129  0.77098005  1
  Te  Te84  1  0.39439649  0.40021044  0.06438033  1
  Te  Te85  1  0.41471621  0.40818057  0.41106036  1
  Te  Te86  1  0.41781999  0.40842539  0.74338513  1
  Te  Te87  1  0.43109638  0.77355526  0.09556275  1
  Te  Te88  1  0.36379089  0.72664771  0.46682015  1
  Te  Te89  1  0.40925180  0.74546528  0.76055510  1
  Te  Te90  1  0.76227617  0.09577992  0.06362580  1
  Te  Te91  1  0.74913523  0.06793768  0.41665122  1
  Te  Te92  1  0.74403413  0.08296651  0.76017576  1
  Te  Te93  1  0.74363928  0.42092173  0.08525114  1
  Te  Te94  1  0.74354407  0.43096444  0.42048071  1
  Te  Te95  1  0.76391179  0.42562659  0.70255261  1
  Te  Te96  1  0.78589869  0.76034290  0.06047561  1
  Te  Te97  1  0.73847485  0.77804725  0.41716582  1
  Te  Te98  1  0.75896076  0.72466367  0.77656005  1
  Te  Te99  1  0.09447001  0.25958320  0.26424214  1
  Te  Te100  1  0.07278708  0.25436069  0.57739474  1
  Te  Te101  1  0.13761958  0.22286004  0.95076074  1
  Te  Te102  1  0.08343262  0.57891752  0.25501902  1
  Te  Te103  1  0.08637261  0.54916040  0.56229153  1
  Te  Te104  1  0.06165679  0.58213602  0.92487250  1
  Te  Te105  1  0.10799861  0.89471070  0.25427728  1
  Te  Te106  1  0.11266433  0.93463292  0.57461728  1
  Te  Te107  1  0.08399833  0.90695715  0.88793713  1
  Te  Te108  1  0.41554177  0.23156904  0.24106295  1
  Te  Te109  1  0.42636556  0.26876345  0.56790494  1
  Te  Te110  1  0.37279786  0.27401005  0.94665293  1
  Te  Te111  1  0.40843634  0.59372656  0.25866619  1
  Te  Te112  1  0.42401306  0.55160554  0.60189531  1
  Te  Te113  1  0.41296589  0.59099210  0.93187813  1
  Te  Te114  1  0.43442361  0.92188982  0.26025193  1
  Te  Te115  1  0.35910684  0.93551002  0.57322663  1
  Te  Te116  1  0.42430468  0.91847321  0.93175316  1
  Te  Te117  1  0.74859658  0.25004795  0.24884300  1
  Te  Te118  1  0.73878299  0.22996838  0.58530469  1
  Te  Te119  1  0.75793655  0.25568074  0.92202878  1
  Te  Te120  1  0.75637388  0.61123055  0.24351677  1
  Te  Te121  1  0.74039312  0.59235936  0.57872457  1
  Te  Te122  1  0.73836468  0.55625096  0.90364702  1
  Te  Te123  1  0.75108724  0.92921555  0.23074998  1
  Te  Te124  1  0.74905448  0.92931821  0.58514379  1
  Te  Te125  1  0.75667184  0.92702123  0.90656667  1
  Te  Te126  1  0.26334538  0.21733045  0.04708832  1
  Te  Te127  1  0.25112532  0.25288636  0.43586376  1
  Te  Te128  1  0.26458612  0.21727250  0.75147133  1
  Te  Te129  1  0.23201805  0.57431759  0.08091493  1
  Te  Te130  1  0.26945951  0.59537370  0.41708630  1
  Te  Te131  1  0.23023066  0.58043069  0.74914479  1
  Te  Te132  1  0.25136427  0.93267675  0.06921330  1
  Te  Te133  1  0.30022358  0.93233668  0.41224377  1
  Te  Te134  1  0.26378732  0.95021805  0.75314131  1
  Te  Te135  1  0.56344519  0.25437477  0.07967507  1
  Te  Te136  1  0.57646687  0.26219427  0.40942307  1
  Te  Te137  1  0.57217513  0.25190030  0.73511199  1
  Te  Te138  1  0.58181498  0.57891225  0.08938570  1
  Te  Te139  1  0.57480789  0.58272830  0.43619601  1
  Te  Te140  1  0.57533064  0.57442878  0.73347393  1
  Te  Te141  1  0.59942344  0.91281284  0.07930575  1
  Te  Te142  1  0.55113249  0.92529571  0.43765353  1
  Te  Te143  1  0.57605834  0.89383190  0.73062319  1
  Te  Te144  1  0.92764927  0.24415360  0.07306050  1
  Te  Te145  1  0.91872344  0.25768726  0.41268846  1
  Te  Te146  1  0.91452752  0.26356550  0.75361521  1
  Te  Te147  1  0.90814912  0.57319583  0.10234494  1
  Te  Te148  1  0.92044128  0.60820551  0.40821277  1
  Te  Te149  1  0.93146459  0.60121976  0.75009901  1
  Te  Te150  1  0.91471736  0.93385037  0.07475640  1
  Te  Te151  1  0.91599544  0.91163871  0.41762760  1
  Te  Te152  1  0.92662105  0.90770197  0.74075470  1
  Te  Te153  1  0.28548822  0.09483901  0.24784642  1
  Te  Te154  1  0.30076285  0.08063017  0.57175364  1
  Te  Te155  1  0.20239760  0.08911853  0.90027801  1
  Te  Te156  1  0.23952947  0.41700317  0.24728199  1
  Te  Te157  1  0.22638011  0.42095887  0.59915085  1
  Te  Te158  1  0.25584269  0.39780042  0.89876989  1
  Te  Te159  1  0.26866592  0.74664974  0.26122834  1
  Te  Te160  1  0.24887998  0.73954631  0.57151175  1
  Te  Te161  1  0.24904114  0.75140775  0.93325711  1
  Te  Te162  1  0.58728206  0.08935219  0.26217386  1
  Te  Te163  1  0.54728314  0.07705062  0.57326541  1
  Te  Te164  1  0.56193128  0.10861381  0.92586366  1
  Te  Te165  1  0.55450478  0.40703247  0.22885916  1
  Te  Te166  1  0.64027661  0.41364683  0.60706856  1
  Te  Te167  1  0.57957027  0.41299619  0.88527392  1
  Te  Te168  1  0.58497083  0.77041007  0.26922320  1
  Te  Te169  1  0.54785936  0.74396255  0.58157665  1
  Te  Te170  1  0.58685088  0.74891947  0.94029054  1
  Te  Te171  1  0.92537893  0.07085862  0.24624235  1
  Te  Te172  1  0.90934168  0.06807679  0.56698717  1
  Te  Te173  1  0.94653344  0.10765940  0.90362413  1
  Te  Te174  1  0.92118677  0.41033518  0.26194291  1
  Te  Te175  1  0.89084373  0.42983288  0.59671418  1
  Te  Te176  1  0.92841483  0.40083083  0.91777361  1
  Te  Te177  1  0.93796091  0.74380626  0.25212164  1
  Te  Te178  1  0.91616914  0.75991930  0.59159984  1
  Te  Te179  1  0.88217537  0.75687017  0.93689445  1
