# generated using pymatgen
data_In2Te3
_symmetry_space_group_name_H-M   'P 1'
_cell_length_a   18.75335921
_cell_length_b   18.76022526
_cell_length_c   18.75818913
_cell_angle_alpha   90.10070298
_cell_angle_beta   90.02780663
_cell_angle_gamma   90.00026127
_symmetry_Int_Tables_number   1
_chemical_formula_structural   In2Te3
_chemical_formula_sum   'In72 Te108'
_cell_volume   6599.44341442
_cell_formula_units_Z   36
loop_
 _symmetry_equiv_pos_site_id
 _symmetry_equiv_pos_as_xyz
  1  'x, y, z'
loop_
 _atom_site_type_symbol
 _atom_site_label
 _atom_site_symmetry_multiplicity
 _atom_site_fract_x
 _atom_site_fract_y
 _atom_site_fract_z
 _atom_site_occupancy
  In  In0  1  0.67468824  0.50379643  0.16446407  1
  In  In1  1  0.33230639  -0.01718098  0.67487336  1
  In  In2  1  0.49698251  -0.00579353  0.86587072  1
  In  In3  1  0.82344872  0.16126315  0.01217095  1
  In  In4  1  0.48546038  0.18738222  0.65013682  1
  In  In5  1  0.50015664  0.82882619  0.00206965  1
  In  In6  1  -0.00231688  0.81502256  0.51537200  1
  In  In7  1  0.50797808  0.80604153  0.33484868  1
  In  In8  1  0.51665627  0.49856674  0.32780214  1
  In  In9  1  0.31839347  0.00452154  0.32946186  1
  In  In10  1  0.01221907  0.81151684  0.83230973  1
  In  In11  1  0.17326302  0.49777970  0.29982474  1
  In  In12  1  0.86697950  0.81414962  0.67596867  1
  In  In13  1  0.51314644  0.65866606  0.82889095  1
  In  In14  1  0.48046350  0.15525638  -0.01167591  1
  In  In15  1  0.49533026  0.65146608  0.47733999  1
  In  In16  1  0.32405739  0.82403495  0.17189780  1
  In  In17  1  0.01133961  0.36393464  0.66591293  1
  In  In18  1  0.00119463  0.16290635  0.82040629  1
  In  In19  1  0.34736506  0.34062918  0.65447453  1
  In  In20  1  0.18435199  0.33026242  0.51254031  1
  In  In21  1  0.17692325  0.16553339  0.31150119  1
  In  In22  1  0.81927002  0.34185896  0.17647497  1
  In  In23  1  0.84490363  0.37003519  0.85069595  1
  In  In24  1  0.19892983  0.18808640  0.02558407  1
  In  In25  1  -0.00370051  0.15987013  0.18148552  1
  In  In26  1  -0.00680641  0.66843478  0.66812454  1
  In  In27  1  -0.01655827  0.49797511  0.49309936  1
  In  In28  1  0.84314104  0.34717666  0.48096460  1
  In  In29  1  0.16288005  0.35212490  0.83644204  1
  In  In30  1  0.64566018  0.20274505  0.45829189  1
  In  In31  1  0.48591560  0.33682071  0.18750256  1
  In  In32  1  0.69110777  0.83226445  0.85112876  1
  In  In33  1  0.34299114  0.18729889  0.50721743  1
  In  In34  1  0.32357074  0.51828611  0.15608811  1
  In  In35  1  0.50066026  0.00358665  0.14613206  1
  In  In36  1  0.82899494  0.66318750  0.85071197  1
  In  In37  1  0.66764412  -0.00839704  0.32384720  1
  In  In38  1  0.82516781  0.16438854  0.65960363  1
  In  In39  1  -0.00126273  0.32465974  0.33198434  1
  In  In40  1  0.14557735  0.17685049  0.65793579  1
  In  In41  1  0.67743072  0.82052844  0.47958449  1
  In  In42  1  0.14742252  -0.00853604  0.49196933  1
  In  In43  1  0.32182302  0.64712005  0.65696974  1
  In  In44  1  -0.00223140  -0.01046383  0.68324154  1
  In  In45  1  0.16636599  0.66929700  0.49692011  1
  In  In46  1  0.50002924  0.49575878  -0.01018580  1
  In  In47  1  0.00365951  -0.01714412  0.01270109  1
  In  In48  1  0.00724898  0.52840279  0.13199423  1
  In  In49  1  0.50337168  0.67685630  0.16699465  1
  In  In50  1  0.16935968  0.81431306  0.01085764  1
  In  In51  1  0.16315080  0.81514106  0.31228684  1
  In  In52  1  0.49650114  0.83713979  0.65518497  1
  In  In53  1  0.68176732  0.17841187  0.17757181  1
  In  In54  1  0.32248103  0.82774709  0.85704653  1
  In  In55  1  0.66647749  0.38176148  0.64782509  1
  In  In56  1  0.81829387  0.49937073  0.32968436  1
  In  In57  1  0.81212737  0.80292126  0.02842009  1
  In  In58  1  0.00964253  0.82431305  0.17137144  1
  In  In59  1  -0.00306459  -0.00097815  0.31793483  1
  In  In60  1  0.67167775  0.01411646  0.67476109  1
  In  In61  1  0.68655761  0.62263232  0.64066726  1
  In  In62  1  0.31727070  0.50234419  0.84154684  1
  In  In63  1  0.47101284  0.01071368  0.51614892  1
  In  In64  1  0.49957099  0.33019632  0.84753028  1
  In  In65  1  0.66208261  0.35164281  0.01662167  1
  In  In66  1  0.82646669  0.00466388  0.50667215  1
  In  In67  1  0.83108285  0.81054942  0.32195803  1
  In  In68  1  0.33576227  0.49310293  0.49930871  1
  In  In69  1  0.00601941  0.36188315  -0.00148990  1
  In  In70  1  0.65259759  0.15625379  0.84327526  1
  In  In71  1  0.32562763  0.15767443  0.84685318  1
  Te  Te72  1  0.08793696  0.09014991  0.08237426  1
  Te  Te73  1  0.07741126  0.09671266  0.40721518  1
  Te  Te74  1  0.10559764  0.06951714  0.75914884  1
  Te  Te75  1  0.11325023  0.43443982  0.07614836  1
  Te  Te76  1  0.09385446  0.41803850  0.41571558  1
  Te  Te77  1  0.07530168  0.45148785  0.76820192  1
  Te  Te78  1  0.07181132  0.71923718  0.07846176  1
  Te  Te79  1  0.06627767  0.73845908  0.40344428  1
  Te  Te80  1  0.10280233  0.73466091  0.74405640  1
  Te  Te81  1  0.39528677  0.09592993  0.09427817  1
  Te  Te82  1  0.41682782  0.09797717  0.40438414  1
  Te  Te83  1  0.43148093  0.08280165  0.75181126  1
  Te  Te84  1  0.41041643  0.41446283  0.07994967  1
  Te  Te85  1  0.40568522  0.42031993  0.39031821  1
  Te  Te86  1  0.42236940  0.42589185  0.75663942  1
  Te  Te87  1  0.40008522  0.73565784  0.07108822  1
  Te  Te88  1  0.39985288  0.74211674  0.41141186  1
  Te  Te89  1  0.41540039  0.75177870  0.75309030  1
  Te  Te90  1  0.74818718  0.07104177  0.09992638  1
  Te  Te91  1  0.74521791  0.09075085  0.41303452  1
  Te  Te92  1  0.76781869  0.07963967  0.77411864  1
  Te  Te93  1  0.78256202  0.43901970  0.06077660  1
  Te  Te94  1  0.72924908  0.43517631  0.43585962  1
  Te  Te95  1  0.74438430  0.43710468  0.76273826  1
  Te  Te96  1  0.73279374  0.72585757  0.13028024  1
  Te  Te97  1  0.74891226  0.71598854  0.40492816  1
  Te  Te98  1  0.74159229  0.74105142  0.73812299  1
  Te  Te99  1  0.09668752  0.26946906  0.22743244  1
  Te  Te100  1  0.05806326  0.25885294  0.56409432  1
  Te  Te101  1  0.08590747  0.24679179  0.91895492  1
  Te  Te102  1  0.07894230  0.59766555  0.24333904  1
  Te  Te103  1  0.08126066  0.57522599  0.58169423  1
  Te  Te104  1  0.10852191  0.62215888  0.96145186  1
  Te  Te105  1  0.10290328  0.93088447  0.23219550  1
  Te  Te106  1  0.09116916  0.89974373  0.60091475  1
  Te  Te107  1  0.09475305  0.91122446  0.91451846  1
  Te  Te108  1  0.42888400  0.23570593  0.27790508  1
  Te  Te109  1  0.45337073  0.30051023  0.54678662  1
  Te  Te110  1  0.38993151  0.26734711  0.93262869  1
  Te  Te111  1  0.41542578  0.59064643  0.25606766  1
  Te  Te112  1  0.43684909  0.56834527  0.59217990  1
  Te  Te113  1  0.40858619  0.59693041  0.92248836  1
  Te  Te114  1  0.42579689  0.91275926  0.25743244  1
  Te  Te115  1  0.38796913  0.89168817  0.56229052  1
  Te  Te116  1  0.39191173  0.92794954  0.95085924  1
  Te  Te117  1  0.75919318  0.25520316  0.27996067  1
  Te  Te118  1  0.73735578  0.25708286  0.57654678  1
  Te  Te119  1  0.74761594  0.25972120  0.91630743  1
  Te  Te120  1  0.77407588  0.60268335  0.22040180  1
  Te  Te121  1  0.77068308  0.53506745  0.55600083  1
  Te  Te122  1  0.76561833  0.58273210  0.95727004  1
  Te  Te123  1  0.75224496  0.90540471  0.23968630  1
  Te  Te124  1  0.75079847  0.90664444  0.59720558  1
  Te  Te125  1  0.76893852  0.91720305  0.94083503  1
  Te  Te126  1  0.24718184  0.27640984  0.13389170  1
  Te  Te127  1  0.26114078  0.26231111  0.40115687  1
  Te  Te128  1  0.25252695  0.25132785  0.74131961  1
  Te  Te129  1  0.21633665  0.56242723  0.05711700  1
  Te  Te130  1  0.25262283  0.58130745  0.40641086  1
  Te  Te131  1  0.22930255  0.58833803  0.75728473  1
  Te  Te132  1  0.24349574  0.91630361  0.08916423  1
  Te  Te133  1  0.24204403  0.90174745  0.41284239  1
  Te  Te134  1  0.24126566  0.90549101  0.75946222  1
  Te  Te135  1  0.57141465  0.24750775  0.07891481  1
  Te  Te136  1  0.54453885  0.26952441  0.37184491  1
  Te  Te137  1  0.59066275  0.25598684  0.74552092  1
  Te  Te138  1  0.58712272  0.58893759  0.07274301  1
  Te  Te139  1  0.60804908  0.59144262  0.40145365  1
  Te  Te140  1  0.59963864  0.56879425  0.74834892  1
  Te  Te141  1  0.59266721  0.90239599  0.09052033  1
  Te  Te142  1  0.57228931  0.92212206  0.43182812  1
  Te  Te143  1  0.57987073  0.91701062  0.75880703  1
  Te  Te144  1  0.92054980  0.26221285  0.08113338  1
  Te  Te145  1  0.90910536  0.23618818  0.40890676  1
  Te  Te146  1  0.91187128  0.26436487  0.74767459  1
  Te  Te147  1  0.89037584  0.57351560  0.05048660  1
  Te  Te148  1  0.91838230  0.58678245  0.39585938  1
  Te  Te149  1  0.91846526  0.58150990  0.76383005  1
  Te  Te150  1  0.90482844  0.91046918  0.10124225  1
  Te  Te151  1  0.91812084  0.91202130  0.42430747  1
  Te  Te152  1  0.90709125  0.91600859  0.78061172  1
  Te  Te153  1  0.26245932  0.08596954  0.21831994  1
  Te  Te154  1  0.24811310  0.08547297  0.57707190  1
  Te  Te155  1  0.23830560  0.07820806  0.93306589  1
  Te  Te156  1  0.26773086  0.39903734  0.23404233  1
  Te  Te157  1  0.23684674  0.43507874  0.60784302  1
  Te  Te158  1  0.24009233  0.42285906  0.94360477  1
  Te  Te159  1  0.24152607  0.71757454  0.23371994  1
  Te  Te160  1  0.25059538  0.75420719  0.58484481  1
  Te  Te161  1  0.23243700  0.71825875  0.91141314  1
  Te  Te162  1  0.57775828  0.08922807  0.24850548  1
  Te  Te163  1  0.59067614  0.09393826  0.57202625  1
  Te  Te164  1  0.60158363  0.06383482  0.95251612  1
  Te  Te165  1  0.61217913  0.39697089  0.25164547  1
  Te  Te166  1  0.54959255  0.42249610  0.57007034  1
  Te  Te167  1  0.60392519  0.43087949  0.89923026  1
  Te  Te168  1  0.61174191  0.75328036  0.23963715  1
  Te  Te169  1  0.59002362  0.74124722  0.58202963  1
  Te  Te170  1  0.60014461  0.73738236  0.92800684  1
  Te  Te171  1  0.89350241  0.07808031  0.24804239  1
  Te  Te172  1  0.93238771  0.08517173  0.58310404  1
  Te  Te173  1  0.92376504  0.08354500  0.92498024  1
  Te  Te174  1  0.93132416  0.42805480  0.23939425  1
  Te  Te175  1  0.88795024  0.43546494  0.60488108  1
  Te  Te176  1  0.95456341  0.46156688  0.89815544  1
  Te  Te177  1  0.92378100  0.72490126  0.24146357  1
  Te  Te178  1  0.89108870  0.71643060  0.56221019  1
  Te  Te179  1  0.92639406  0.74392167  0.93718419  1
