# generated using pymatgen
data_In2Te3
_symmetry_space_group_name_H-M   'P 1'
_cell_length_a   18.90872672
_cell_length_b   18.91572341
_cell_length_c   18.89938666
_cell_angle_alpha   89.96566959
_cell_angle_beta   89.95133700
_cell_angle_gamma   90.05885000
_symmetry_Int_Tables_number   1
_chemical_formula_structural   In2Te3
_chemical_formula_sum   'In72 Te108'
_cell_volume   6759.77882497
_cell_formula_units_Z   36
loop_
 _symmetry_equiv_pos_site_id
 _symmetry_equiv_pos_as_xyz
  1  'x, y, z'
loop_
 _atom_site_type_symbol
 _atom_site_label
 _atom_site_symmetry_multiplicity
 _atom_site_fract_x
 _atom_site_fract_y
 _atom_site_fract_z
 _atom_site_occupancy
  In  In0  1  0.84952732  0.65910103  0.15659482  1
  In  In1  1  0.15120951  0.50003079  0.33136119  1
  In  In2  1  0.15088686  0.01408979  0.17620114  1
  In  In3  1  0.64244786  0.16456876  0.17064391  1
  In  In4  1  0.83977038  0.35425319  0.20217000  1
  In  In5  1  0.82850038  0.69727703  0.80120338  1
  In  In6  1  0.50012982  0.15777481  0.33424682  1
  In  In7  1  0.01851379  0.66815701  -0.02081664  1
  In  In8  1  0.31774163  0.48987504  0.18021243  1
  In  In9  1  0.20071821  0.70217829  0.52860535  1
  In  In10  1  0.35649418  0.12061796  0.81074586  1
  In  In11  1  0.18527690  0.84641216  0.00818095  1
  In  In12  1  -0.01325894  0.50439878  0.51739807  1
  In  In13  1  0.49369167  0.14437850  0.01457037  1
  In  In14  1  0.65068569  0.52773121  0.83867427  1
  In  In15  1  0.17044810  0.49740720  0.64725107  1
  In  In16  1  0.31639723  0.49301007  0.83255279  1
  In  In17  1  0.16075230  0.68195446  0.79341202  1
  In  In18  1  0.01941243  0.66525855  0.34919846  1
  In  In19  1  0.84042767  0.16266716  0.64277011  1
  In  In20  1  0.50083832  0.30915700  0.50918776  1
  In  In21  1  0.66802545  0.00289226  0.66044898  1
  In  In22  1  0.66677607  0.32545857  0.67359683  1
  In  In23  1  0.48380194  0.49844160  0.02361869  1
  In  In24  1  0.15668056  0.34437624  0.82502380  1
  In  In25  1  0.00027651  0.16907151  0.19022143  1
  In  In26  1  0.29474963  0.17651164  0.46878579  1
  In  In27  1  0.64565438  0.51118631  0.18115695  1
  In  In28  1  0.05071090  0.16264030  0.47460233  1
  In  In29  1  0.65947862  0.70280623  -0.04888117  1
  In  In30  1  0.64684995  -0.01988128  -0.00477350  1
  In  In31  1  0.34632220  0.32576994  0.67080903  1
  In  In32  1  0.50438060  0.66801352  0.50750373  1
  In  In33  1  0.18396948  0.14269965  0.00815701  1
  In  In34  1  0.64800608  0.15625833  0.82490348  1
  In  In35  1  0.66462731  0.84490726  0.51217391  1
  In  In36  1  0.16229854  0.49299520  0.01174836  1
  In  In37  1  0.49254554  -0.00429009  0.51443036  1
  In  In38  1  0.67348401  0.66148450  0.35410725  1
  In  In39  1  0.17077523  -0.00540674  0.83886379  1
  In  In40  1  0.81798053  0.85202611  0.01578495  1
  In  In41  1  0.49493319  0.66359702  0.16361545  1
  In  In42  1  0.35505634  0.48784923  0.48782315  1
  In  In43  1  0.50454640  0.68744012  0.81092287  1
  In  In44  1  0.65268320  0.30178531  0.01966880  1
  In  In45  1  -0.01613019  0.85984081  0.47891466  1
  In  In46  1  0.66990328  0.00942463  0.34928620  1
  In  In47  1  0.65447651  0.34393078  0.34268764  1
  In  In48  1  0.84127346  0.48209946  -0.00123951  1
  In  In49  1  0.44360343  0.86182124  0.31732983  1
  In  In50  1  0.32254227  0.16622913  0.19367484  1
  In  In51  1  0.65709993  0.84733877  0.18402285  1
  In  In52  1  0.01219710  0.32985910  0.32733510  1
  In  In53  1  0.84002694  0.52280974  0.66697126  1
  In  In54  1  0.82564482  0.14993458  0.35755257  1
  In  In55  1  0.35907111  0.89052390  0.79714140  1
  In  In56  1  -0.02390918  0.15759538  0.83933277  1
  In  In57  1  0.49335478  0.32262115  0.84446067  1
  In  In58  1  0.85226238  0.68152530  0.51191620  1
  In  In59  1  0.00855908  0.83422660  0.82196441  1
  In  In60  1  0.63603804  0.83721734  0.80899032  1
  In  In61  1  0.17832657  0.17249074  0.65299450  1
  In  In62  1  0.85609532  0.15049240  -0.01357731  1
  In  In63  1  0.32265416  0.65297047  0.32215149  1
  In  In64  1  0.01294399  0.33142956  0.01548700  1
  In  In65  1  0.22567105  0.84912963  0.35175287  1
  In  In66  1  0.01261313  -0.01510110  0.65437472  1
  In  In67  1  0.83233745  0.03211129  0.18385503  1
  In  In68  1  0.34089257  0.67989425  -0.01243081  1
  In  In69  1  0.67732754  0.48472081  0.50071713  1
  In  In70  1  0.84476318  0.32167458  0.81691968  1
  In  In71  1  0.00595371  0.83653852  0.18127125  1
  Te  Te72  1  0.05902544  0.08521689  0.07684087  1
  Te  Te73  1  0.13969031  0.05977293  0.41121114  1
  Te  Te74  1  0.08784009  0.09071949  0.75026317  1
  Te  Te75  1  0.09945953  0.40200621  0.10974688  1
  Te  Te76  1  0.07903158  0.41627350  0.43519540  1
  Te  Te77  1  0.07665292  0.42517523  0.73466660  1
  Te  Te78  1  0.08912097  0.75348029  0.08296084  1
  Te  Te79  1  0.10695161  0.76538793  0.42527064  1
  Te  Te80  1  0.07539653  0.76771277  0.70726560  1
  Te  Te81  1  0.40885005  0.07449662  0.11374948  1
  Te  Te82  1  0.40548635  0.07772891  0.42030448  1
  Te  Te83  1  0.41182559  0.01667938  0.72273305  1
  Te  Te84  1  0.39195532  0.40399501  0.08458932  1
  Te  Te85  1  0.42416011  0.38451195  0.40730851  1
  Te  Te86  1  0.42771664  0.42495396  0.75273306  1
  Te  Te87  1  0.40031312  0.75479878  0.09953393  1
  Te  Te88  1  0.41332637  0.74254859  0.40631923  1
  Te  Te89  1  0.39696583  0.75506410  0.73542240  1
  Te  Te90  1  0.73553441  0.08467349  0.07155717  1
  Te  Te91  1  0.75956826  0.06002771  0.45629801  1
  Te  Te92  1  0.76001891  0.08835573  0.75116695  1
  Te  Te93  1  0.74069918  0.41171254  0.09177177  1
  Te  Te94  1  0.76467238  0.41824603  0.40259537  1
  Te  Te95  1  0.74464189  0.42493968  0.76578367  1
  Te  Te96  1  0.73897004  0.74598817  0.09249616  1
  Te  Te97  1  0.76035666  0.76438834  0.42228930  1
  Te  Te98  1  0.72543971  0.76043432  0.71971629  1
  Te  Te99  1  0.11222406  0.23677884  0.26212620  1
  Te  Te100  1  0.09958173  0.26367966  0.56984928  1
  Te  Te101  1  0.08398608  0.23469433  0.91912904  1
  Te  Te102  1  0.09819428  0.60359627  0.24220058  1
  Te  Te103  1  0.08820647  0.60241030  0.57370220  1
  Te  Te104  1  0.10751688  0.57803996  0.89753607  1
  Te  Te105  1  0.10195801  0.90619983  0.27249628  1
  Te  Te106  1  0.09398815  0.94787907  0.53319518  1
  Te  Te107  1  0.07651072  0.91840192  0.93019265  1
  Te  Te108  1  0.40484010  0.25736876  0.28006869  1
  Te  Te109  1  0.39957360  0.21921887  0.57851459  1
  Te  Te110  1  0.40607550  0.22526602  0.91886707  1
  Te  Te111  1  0.42712437  0.56473755  0.25648762  1
  Te  Te112  1  0.40955908  0.58364750  0.58328632  1
  Te  Te113  1  0.42893369  0.57879449  0.90542248  1
  Te  Te114  1  0.34746015  0.94789101  0.24429266  1
  Te  Te115  1  0.39895479  0.88082916  0.55021940  1
  Te  Te116  1  0.42659352  0.90060946  0.92583486  1
  Te  Te117  1  0.75070812  0.23599837  0.24994742  1
  Te  Te118  1  0.76334288  0.27090086  0.57719096  1
  Te  Te119  1  0.74981962  0.24422411  0.91212962  1
  Te  Te120  1  0.75758116  0.58130247  0.25367391  1
  Te  Te121  1  0.74323478  0.59844885  0.57923013  1
  Te  Te122  1  0.76641936  0.58926160  0.91902415  1
  Te  Te123  1  0.76290697  0.92073384  0.26353870  1
  Te  Te124  1  0.76714990  0.93173147  0.57513307  1
  Te  Te125  1  0.73992390  0.90865128  0.89935858  1
  Te  Te126  1  0.23570883  0.24327592  0.10039307  1
  Te  Te127  1  0.22667099  0.26583266  0.36841594  1
  Te  Te128  1  0.26146898  0.24235031  0.77139060  1
  Te  Te129  1  0.25768908  0.58908733  0.08055345  1
  Te  Te130  1  0.23993209  0.58649185  0.43331284  1
  Te  Te131  1  0.26246370  0.58833528  0.72841632  1
  Te  Te132  1  0.25741517  0.93308898  0.10631970  1
  Te  Te133  1  0.28063608  0.92676920  0.47040652  1
  Te  Te134  1  0.22764397  0.91311943  0.72933954  1
  Te  Te135  1  0.54004733  0.25825916  0.10885527  1
  Te  Te136  1  0.60083663  0.22859262  0.42481677  1
  Te  Te137  1  0.55715787  0.23666074  0.73545274  1
  Te  Te138  1  0.59534393  0.59719297  0.05952159  1
  Te  Te139  1  0.57693302  0.56443346  0.41715546  1
  Te  Te140  1  0.58620608  0.59746550  0.72860131  1
  Te  Te141  1  0.56188129  0.91411710  0.09551498  1
  Te  Te142  1  0.56603955  0.90747724  0.40209294  1
  Te  Te143  1  0.55329431  0.93368231  0.72974894  1
  Te  Te144  1  0.90241712  0.25291061  0.09396662  1
  Te  Te145  1  0.92678476  0.24311520  0.41890911  1
  Te  Te146  1  0.93903640  0.25016527  0.72438392  1
  Te  Te147  1  0.94005978  0.57125487  0.07201163  1
  Te  Te148  1  0.90870489  0.58218935  0.41265766  1
  Te  Te149  1  0.92507817  0.59695863  0.76024672  1
  Te  Te150  1  0.91412126  0.93089788  0.10214632  1
  Te  Te151  1  0.90844504  0.93976588  0.38264109  1
  Te  Te152  1  0.91633657  0.91794896  0.74347882  1
  Te  Te153  1  0.23789068  0.06924978  0.29011437  1
  Te  Te154  1  0.24980222  0.07238884  0.56838438  1
  Te  Te155  1  0.27867557  0.05566355  0.92659521  1
  Te  Te156  1  0.25523794  0.40132608  0.28683029  1
  Te  Te157  1  0.25983036  0.39942739  0.57190071  1
  Te  Te158  1  0.25258717  0.39792805  0.93078320  1
  Te  Te159  1  0.25208773  0.75351001  0.24259472  1
  Te  Te160  1  0.28578921  0.78991520  0.61591406  1
  Te  Te161  1  0.24330070  0.75672461  0.89984098  1
  Te  Te162  1  0.56905139  0.05543072  0.24301266  1
  Te  Te163  1  0.59215233  0.08965186  0.56741838  1
  Te  Te164  1  0.55802446  0.06267312  0.90250863  1
  Te  Te165  1  0.56580461  0.40747240  0.24506503  1
  Te  Te166  1  0.57505629  0.41456557  0.59064744  1
  Te  Te167  1  0.59006100  0.40843630  0.92766217  1
  Te  Te168  1  0.57928585  0.74323199  0.26488468  1
  Te  Te169  1  0.57291006  0.76564596  0.59523431  1
  Te  Te170  1  0.53345698  0.79312407  0.92812057  1
  Te  Te171  1  0.94234185  0.06197062  0.29174050  1
  Te  Te172  1  0.94565031  0.08786352  0.56433673  1
  Te  Te173  1  0.90927686  0.04263028  0.90356912  1
  Te  Te174  1  0.95099424  0.43711832  0.24483620  1
  Te  Te175  1  0.88960214  0.41292738  0.58264966  1
  Te  Te176  1  0.93491635  0.40706193  0.90650488  1
  Te  Te177  1  0.91618129  0.74481207  0.26211176  1
  Te  Te178  1  0.93845611  0.77173291  0.59127869  1
  Te  Te179  1  0.90636930  0.75988046  0.92974062  1
