# generated using pymatgen
data_In2Te3
_symmetry_space_group_name_H-M   'P 1'
_cell_length_a   18.92089621
_cell_length_b   18.93768612
_cell_length_c   18.93003115
_cell_angle_alpha   90.03906622
_cell_angle_beta   89.96331258
_cell_angle_gamma   90.24178962
_symmetry_Int_Tables_number   1
_chemical_formula_structural   In2Te3
_chemical_formula_sum   'In72 Te108'
_cell_volume   6782.90742632
_cell_formula_units_Z   36
loop_
 _symmetry_equiv_pos_site_id
 _symmetry_equiv_pos_as_xyz
  1  'x, y, z'
loop_
 _atom_site_type_symbol
 _atom_site_label
 _atom_site_symmetry_multiplicity
 _atom_site_fract_x
 _atom_site_fract_y
 _atom_site_fract_z
 _atom_site_occupancy
  In  In0  1  0.68896738  0.34418233  0.37258146  1
  In  In1  1  -0.02465587  0.84278609  0.51978982  1
  In  In2  1  0.35542406  0.15993092  0.84235982  1
  In  In3  1  0.15211036  0.34430436  0.52277742  1
  In  In4  1  0.13770447  0.17224560  0.35470554  1
  In  In5  1  0.33987768  0.02899849  0.33056026  1
  In  In6  1  0.18406985  -0.02195883  0.16369417  1
  In  In7  1  0.81869159  -0.00951418  0.16638905  1
  In  In8  1  0.66976154  0.50799784  0.50823443  1
  In  In9  1  0.00913714  0.67281427  0.00119452  1
  In  In10  1  -0.02416388  0.33331995  0.64903967  1
  In  In11  1  0.17081304  0.31958907  0.83608457  1
  In  In12  1  0.47675412  0.35921578  0.48888637  1
  In  In13  1  0.21631242  0.37494959  0.18374080  1
  In  In14  1  0.15070738  -0.00182030  0.48661921  1
  In  In15  1  0.35266052  0.66863348  -0.02077569  1
  In  In16  1  0.49245843  0.16852113  0.00732573  1
  In  In17  1  0.83004317  0.82606952  -0.02397176  1
  In  In18  1  0.49639113  0.50494359  0.65588839  1
  In  In19  1  -0.00811254  0.16694093  0.19134223  1
  In  In20  1  0.64791390  0.81866802  0.50235388  1
  In  In21  1  0.65327321  0.68155084  -0.04386355  1
  In  In22  1  0.32733977  0.18094202  0.48799148  1
  In  In23  1  0.65030199  0.51536584  0.16281247  1
  In  In24  1  0.65204159  0.31690927  0.00510398  1
  In  In25  1  0.65519065  0.67906597  0.68015963  1
  In  In26  1  0.32520536  0.33645858  0.67821072  1
  In  In27  1  0.50221779  -0.01721634  0.13162427  1
  In  In28  1  0.49412228  0.36156320  0.17895308  1
  In  In29  1  0.66212566  -0.02588135  0.31522747  1
  In  In30  1  0.68062670  0.15261309  0.84661318  1
  In  In31  1  -0.00999102  -0.00525949  0.66748252  1
  In  In32  1  0.34172979  0.82148924  0.12420093  1
  In  In33  1  0.15948757  0.65222821  0.17561313  1
  In  In34  1  0.35225341  0.67489066  0.68576382  1
  In  In35  1  0.50455692  0.82445780  0.30350034  1
  In  In36  1  0.17952426  0.51087191  -0.01824879  1
  In  In37  1  0.51166463  0.17310568  0.33646736  1
  In  In38  1  0.82619169  0.17991842  0.37443526  1
  In  In39  1  0.00307752  0.84370155  0.16163534  1
  In  In40  1  0.17186438  0.50047609  0.67389890  1
  In  In41  1  0.17773710  0.17601232  0.01355582  1
  In  In42  1  -0.00304004  0.67736917  0.32177853  1
  In  In43  1  0.15640401  0.82801105  0.31938885  1
  In  In44  1  0.53604943  0.00218030  0.56405333  1
  In  In45  1  0.35354999  0.49546484  0.81943870  1
  In  In46  1  0.64014366  0.66059807  0.34010522  1
  In  In47  1  -0.02127300  0.18211052  0.82747199  1
  In  In48  1  0.35451251  0.63384316  0.30975988  1
  In  In49  1  0.00078853  0.48618776  0.16141081  1
  In  In50  1  0.84880085  0.36324607  0.83425238  1
  In  In51  1  0.51760648  0.17110103  0.69917907  1
  In  In52  1  0.16032066  0.64533200  0.51575831  1
  In  In53  1  0.02733030  0.79656346  0.79943704  1
  In  In54  1  0.32463773  -0.00449196  0.65641951  1
  In  In55  1  0.82631852  0.00000179  0.48683139  1
  In  In56  1  0.35748120  0.85752457  0.86890770  1
  In  In57  1  0.82275490  0.31119562  0.17727568  1
  In  In58  1  0.00940337  0.01755643  -0.03250123  1
  In  In59  1  -0.00467270  0.34417097  0.34769760  1
  In  In60  1  0.31698375  0.79779464  0.49431258  1
  In  In61  1  0.35880242  0.17528408  0.17237284  1
  In  In62  1  0.66402681  0.47845474  0.83984868  1
  In  In63  1  0.52002299  0.84739054  0.67884497  1
  In  In64  1  0.16268485  -0.00466850  0.82182408  1
  In  In65  1  0.82943759  0.51941034  0.00424335  1
  In  In66  1  0.81849529  0.67099114  0.51055667  1
  In  In67  1  -0.02006127  0.52686764  0.80299743  1
  In  In68  1  0.85004346  0.15488147  0.01368333  1
  In  In69  1  0.82707559  0.81746382  0.67122507  1
  In  In70  1  0.68382473  -0.01513229  -0.00361792  1
  In  In71  1  0.80357560  0.51653537  0.35276165  1
  Te  Te72  1  0.07979895  0.08123770  0.08884491  1
  Te  Te73  1  0.04654848  0.07929321  0.42240593  1
  Te  Te74  1  0.07423487  0.09310854  0.74775674  1
  Te  Te75  1  0.11015964  0.41797501  0.08195475  1
  Te  Te76  1  0.08405338  0.43180429  0.42453111  1
  Te  Te77  1  0.07607166  0.40887042  0.75874935  1
  Te  Te78  1  0.10260653  0.75991261  0.08421918  1
  Te  Te79  1  0.08122198  0.75786082  0.43055456  1
  Te  Te80  1  0.10624094  0.71866113  0.70510264  1
  Te  Te81  1  0.39304590  0.06935782  0.07175875  1
  Te  Te82  1  0.43329124  0.08103478  0.43890556  1
  Te  Te83  1  0.42704168  0.05652291  0.75242415  1
  Te  Te84  1  0.39593337  0.44399689  0.10858915  1
  Te  Te85  1  0.40161500  0.41317942  0.37543900  1
  Te  Te86  1  0.44353988  0.39525215  0.75094078  1
  Te  Te87  1  0.45469796  0.76428054  0.04408518  1
  Te  Te88  1  0.42046216  0.73956982  0.40228124  1
  Te  Te89  1  0.44364408  0.75815590  0.77625271  1
  Te  Te90  1  0.73577969  0.09492291  0.09101443  1
  Te  Te91  1  0.71602911  0.07311087  0.41437883  1
  Te  Te92  1  0.71409597  0.06247040  0.73439675  1
  Te  Te93  1  0.75063713  0.41324900  0.08889894  1
  Te  Te94  1  0.79454703  0.40935940  0.46702610  1
  Te  Te95  1  0.74888107  0.41185512  0.73979937  1
  Te  Te96  1  0.74522782  0.73856878  0.05659983  1
  Te  Te97  1  0.74433726  0.75219121  0.40667903  1
  Te  Te98  1  0.72728998  0.77114090  0.77219957  1
  Te  Te99  1  0.08842507  0.27448738  0.24285092  1
  Te  Te100  1  0.08196062  0.24323678  0.60170089  1
  Te  Te101  1  0.07336626  0.24800747  0.92866280  1
  Te  Te102  1  0.08133135  0.56153591  0.26690233  1
  Te  Te103  1  0.06854223  0.54702766  0.57838817  1
  Te  Te104  1  0.08580157  0.59292179  0.89750389  1
  Te  Te105  1  0.07302913  0.93963529  0.25984271  1
  Te  Te106  1  0.09083774  0.90908238  0.59409805  1
  Te  Te107  1  0.07952359  0.90004509  0.90605622  1
  Te  Te108  1  0.40793458  0.26915268  0.28125507  1
  Te  Te109  1  0.41818766  0.24577011  0.59230249  1
  Te  Te110  1  0.41225358  0.26295258  0.93024057  1
  Te  Te111  1  0.43034679  0.55811476  0.20636731  1
  Te  Te112  1  0.39768684  0.58284126  0.58089349  1
  Te  Te113  1  0.44039612  0.57417116  0.90804616  1
  Te  Te114  1  0.39912483  0.92194020  0.23977623  1
  Te  Te115  1  0.40740560  0.89577512  0.57590886  1
  Te  Te116  1  0.46446685  0.95462821  0.88910251  1
  Te  Te117  1  0.72843881  0.23999155  0.26848816  1
  Te  Te118  1  0.81913234  0.20906001  0.52384147  1
  Te  Te119  1  0.77192000  0.26209436  0.92991159  1
  Te  Te120  1  0.74873944  0.60073018  0.24165771  1
  Te  Te121  1  0.75176092  0.58063169  0.61440843  1
  Te  Te122  1  0.76004341  0.58577831  0.89077747  1
  Te  Te123  1  0.73287264  0.88393855  0.22246231  1
  Te  Te124  1  0.74552500  0.90491019  0.57863775  1
  Te  Te125  1  0.73353982  0.89758765  0.88612594  1
  Te  Te126  1  0.27259909  0.26831545  0.08905767  1
  Te  Te127  1  0.23619599  0.27138251  0.41099849  1
  Te  Te128  1  0.25160951  0.22510302  0.74949291  1
  Te  Te129  1  0.25954606  0.59263193  0.08088359  1
  Te  Te130  1  0.24659743  0.59484593  0.40595192  1
  Te  Te131  1  0.25107150  0.59236555  0.76588386  1
  Te  Te132  1  0.25220895  0.91345795  0.05208479  1
  Te  Te133  1  0.25781415  0.91794967  0.40855877  1
  Te  Te134  1  0.25867551  0.90142204  0.75463822  1
  Te  Te135  1  0.57106546  0.24710933  0.11250548  1
  Te  Te136  1  0.58145556  0.25891784  0.44057772  1
  Te  Te137  1  0.59097206  0.25578759  0.79376104  1
  Te  Te138  1  0.59003211  0.56724160  0.03733398  1
  Te  Te139  1  0.56804597  0.55898649  0.41746502  1
  Te  Te140  1  0.57549231  0.57936502  0.76091925  1
  Te  Te141  1  0.61098556  0.89402009  0.08873983  1
  Te  Te142  1  0.56290747  0.91300243  0.41905040  1
  Te  Te143  1  0.62143584  0.93697587  0.73648358  1
  Te  Te144  1  0.93288362  0.26104636  0.08561552  1
  Te  Te145  1  0.94947178  0.23818818  0.44550000  1
  Te  Te146  1  0.88014038  0.24780675  0.73610596  1
  Te  Te147  1  0.92035813  0.59846325  0.09937157  1
  Te  Te148  1  0.91448722  0.59424062  0.42101061  1
  Te  Te149  1  0.89704403  0.61134707  0.71799348  1
  Te  Te150  1  0.91687866  0.93202888  0.06405266  1
  Te  Te151  1  0.90340795  0.90249367  0.40855111  1
  Te  Te152  1  0.91970538  0.89942418  0.76067309  1
  Te  Te153  1  0.23587435  0.10291645  0.24760110  1
  Te  Te154  1  0.23894735  0.08833848  0.57259652  1
  Te  Te155  1  0.24641363  0.08097431  0.91679161  1
  Te  Te156  1  0.29597342  0.46693785  0.27327764  1
  Te  Te157  1  0.26912949  0.43232334  0.57786945  1
  Te  Te158  1  0.26695414  0.40883545  0.91267099  1
  Te  Te159  1  0.26255020  0.75268978  0.24274936  1
  Te  Te160  1  0.22921530  0.74796403  0.61186664  1
  Te  Te161  1  0.25888836  0.75653556  0.90819816  1
  Te  Te162  1  0.56764381  0.06865832  0.24141365  1
  Te  Te163  1  0.62033363  0.11721313  0.60462862  1
  Te  Te164  1  0.56993491  0.06785530  0.92207095  1
  Te  Te165  1  0.60104055  0.42038511  0.27059735  1
  Te  Te166  1  0.58736866  0.40538285  0.58601088  1
  Te  Te167  1  0.57174065  0.42706786  0.94828133  1
  Te  Te168  1  0.56144132  0.71408623  0.22710718  1
  Te  Te169  1  0.55496113  0.72962710  0.57945154  1
  Te  Te170  1  0.54186020  0.77245350  0.91463552  1
  Te  Te171  1  0.88860309  0.08579579  0.26282157  1
  Te  Te172  1  0.89146132  0.08044715  0.59652690  1
  Te  Te173  1  0.89071829  0.07360237  0.89173793  1
  Te  Te174  1  0.89134051  0.42370419  0.25789985  1
  Te  Te175  1  0.90964871  0.43407998  0.56895015  1
  Te  Te176  1  0.93672133  0.44257030  0.92883228  1
  Te  Te177  1  0.91099903  0.76111076  0.23948758  1
  Te  Te178  1  0.93295491  0.71879104  0.60919608  1
  Te  Te179  1  0.92179983  0.73542467  0.89579584  1
