# generated using pymatgen
data_In2Te3
_symmetry_space_group_name_H-M   'P 1'
_cell_length_a   18.74977249
_cell_length_b   18.75087663
_cell_length_c   18.75863481
_cell_angle_alpha   89.97412021
_cell_angle_beta   90.00912882
_cell_angle_gamma   89.97434843
_symmetry_Int_Tables_number   1
_chemical_formula_structural   In2Te3
_chemical_formula_sum   'In72 Te108'
_cell_volume   6595.05944224
_cell_formula_units_Z   36
loop_
 _symmetry_equiv_pos_site_id
 _symmetry_equiv_pos_as_xyz
  1  'x, y, z'
loop_
 _atom_site_type_symbol
 _atom_site_label
 _atom_site_symmetry_multiplicity
 _atom_site_fract_x
 _atom_site_fract_y
 _atom_site_fract_z
 _atom_site_occupancy
  In  In0  1  -0.02150252  0.47776772  0.52658161  1
  In  In1  1  0.51032683  0.34399505  0.49993989  1
  In  In2  1  0.32484767  0.00443330  0.34462771  1
  In  In3  1  0.31609002  0.16994124  0.49243170  1
  In  In4  1  0.48687647  0.84206914  0.00088942  1
  In  In5  1  0.82926632  0.63911269  0.51698425  1
  In  In6  1  0.51169433  0.03261669  0.18628580  1
  In  In7  1  0.84215809  0.33144076  0.81828835  1
  In  In8  1  0.31848324  -0.01567295  -0.00591067  1
  In  In9  1  0.16127405  0.65679686  0.16792358  1
  In  In10  1  0.16899780  0.83524714  0.66616180  1
  In  In11  1  0.48117435  0.64857437  0.20147320  1
  In  In12  1  -0.01863331  0.82242255  0.48071602  1
  In  In13  1  0.51667120  0.01923084  0.52481181  1
  In  In14  1  0.69074895  0.33130281  0.34533877  1
  In  In15  1  0.51843747  0.66676065  0.49524452  1
  In  In16  1  0.68465867  0.80726014  0.78509691  1
  In  In17  1  0.15567440  0.35408280  0.82670712  1
  In  In18  1  0.66475858  0.18465751  0.18810397  1
  In  In19  1  0.16957958  0.15418166  0.02423629  1
  In  In20  1  -0.00537633  0.20156928  0.53670326  1
  In  In21  1  0.85009024  0.17823867  -0.01222948  1
  In  In22  1  0.84929816  0.02340158  0.16845337  1
  In  In23  1  0.49160735  0.67786755  0.82874382  1
  In  In24  1  0.49146647  0.33390537  0.18616798  1
  In  In25  1  0.30524416  0.64816813  0.70307643  1
  In  In26  1  0.50032417  0.84558189  0.34430735  1
  In  In27  1  0.31795437  0.83001742  0.14077993  1
  In  In28  1  0.50890795  0.48983027  0.66505831  1
  In  In29  1  -0.00277085  0.32330235  0.33225814  1
  In  In30  1  0.14254657  0.67344002  0.50653051  1
  In  In31  1  0.32709448  0.18997717  0.18239967  1
  In  In32  1  -0.00632753  0.65900940  0.65310494  1
  In  In33  1  0.69160432  0.17540306  0.82868342  1
  In  In34  1  0.49252160  0.51279118  0.35230138  1
  In  In35  1  0.15760359  0.48715517  -0.00438074  1
  In  In36  1  0.67504327  -0.01695929  -0.00933967  1
  In  In37  1  0.33291668  0.17196908  0.84134496  1
  In  In38  1  0.65353624  0.63571509  -0.02676662  1
  In  In39  1  0.17579306  0.47176225  0.31860857  1
  In  In40  1  -0.00056441  0.49838801  0.80618451  1
  In  In41  1  -0.00038069  0.50261520  0.16730191  1
  In  In42  1  0.00544282  0.64638399  -0.01292829  1
  In  In43  1  0.84374349  0.67043876  0.15967499  1
  In  In44  1  0.49786237  -0.02214718  0.85014198  1
  In  In45  1  -0.02042613  0.01809269  0.66426925  1
  In  In46  1  0.32764796  -0.00829546  0.64373865  1
  In  In47  1  0.67925457  0.00295908  0.68217732  1
  In  In48  1  0.01311691  0.84030298  0.17349946  1
  In  In49  1  0.65935054  0.65330596  0.34128306  1
  In  In50  1  0.01867830  0.00785470  -0.01749019  1
  In  In51  1  0.50555431  0.18526959  0.01038533  1
  In  In52  1  0.83916259  0.84757138  0.32592847  1
  In  In53  1  -0.00343387  0.16788368  0.81928010  1
  In  In54  1  0.50264403  0.32252289  0.81893563  1
  In  In55  1  0.67341367  0.83408151  0.52471247  1
  In  In56  1  0.17057817  -0.00234853  0.49381661  1
  In  In57  1  0.82847321  0.83332247  -0.02674196  1
  In  In58  1  0.48826613  0.49662966  0.01414337  1
  In  In59  1  0.32632808  0.33395588  0.67769395  1
  In  In60  1  0.70770294  0.84999201  0.18747769  1
  In  In61  1  -0.00019955  0.84238170  0.81912319  1
  In  In62  1  -0.00190149  0.33679772  0.01908874  1
  In  In63  1  -0.00279466  -0.00072262  0.33038572  1
  In  In64  1  0.69567944  0.46009860  0.14437222  1
  In  In65  1  0.84500800  0.49222859  0.35769172  1
  In  In66  1  0.29669817  0.68184809  -0.03694798  1
  In  In67  1  0.32471796  0.48635770  0.50958745  1
  In  In68  1  0.34342517  0.65871735  0.32394856  1
  In  In69  1  0.52648787  0.15095421  0.65969008  1
  In  In70  1  0.16653947  0.17499339  0.33243689  1
  In  In71  1  0.67897822  0.48952625  0.82226030  1
  Te  Te72  1  0.06045690  0.08801717  0.09854209  1
  Te  Te73  1  0.07483612  0.10060757  0.43284654  1
  Te  Te74  1  0.08706970  0.07333866  0.74988482  1
  Te  Te75  1  0.10253291  0.40412753  0.11172201  1
  Te  Te76  1  0.07673098  0.41703553  0.42195355  1
  Te  Te77  1  0.05564617  0.38624524  0.71693384  1
  Te  Te78  1  0.08328761  0.74721212  0.07192429  1
  Te  Te79  1  0.09194040  0.76487560  0.40199417  1
  Te  Te80  1  0.08563941  0.73634638  0.74737599  1
  Te  Te81  1  0.41428402  0.07963904  0.07385389  1
  Te  Te82  1  0.42518858  0.08971634  0.42137216  1
  Te  Te83  1  0.42473917  0.08301596  0.75490246  1
  Te  Te84  1  0.39851266  0.40478789  0.09096448  1
  Te  Te85  1  0.40246403  0.40118854  0.40879605  1
  Te  Te86  1  0.40782440  0.43066016  0.76291679  1
  Te  Te87  1  0.41852603  0.72930395  0.07958764  1
  Te  Te88  1  0.41162504  0.75128646  0.42500163  1
  Te  Te89  1  0.39979077  0.75403755  0.74168510  1
  Te  Te90  1  0.73845171  0.09098396  0.07680253  1
  Te  Te91  1  0.70102789  0.13480373  0.41330087  1
  Te  Te92  1  0.77828812  0.10397068  0.73346856  1
  Te  Te93  1  0.77260843  0.38369544  0.04840606  1
  Te  Te94  1  0.75373053  0.42017063  0.45283033  1
  Te  Te95  1  0.76203740  0.41483592  0.72068464  1
  Te  Te96  1  0.74292653  0.74880545  0.07405837  1
  Te  Te97  1  0.75732430  0.74475466  0.41460095  1
  Te  Te98  1  0.77581803  0.70617385  0.72326258  1
  Te  Te99  1  0.08980663  0.25852329  0.23606941  1
  Te  Te100  1  0.09605900  0.29245519  0.59684828  1
  Te  Te101  1  0.08055425  0.24951865  0.92065611  1
  Te  Te102  1  0.07747001  0.58204174  0.27083779  1
  Te  Te103  1  0.09379775  0.55910929  0.59469383  1
  Te  Te104  1  0.10602965  0.58641468  0.88406839  1
  Te  Te105  1  0.10075468  0.91928063  0.26203294  1
  Te  Te106  1  0.06899333  0.91345753  0.57704031  1
  Te  Te107  1  0.10193362  0.89959113  0.91716895  1
  Te  Te108  1  0.43458023  0.22932240  0.27446584  1
  Te  Te109  1  0.42185458  0.24493524  0.59193376  1
  Te  Te110  1  0.40780669  0.27068819  0.92943487  1
  Te  Te111  1  0.37943724  0.53392983  0.23819623  1
  Te  Te112  1  0.41535632  0.58346576  0.58422275  1
  Te  Te113  1  0.40748740  0.58498752  0.91534314  1
  Te  Te114  1  0.41435106  0.91660586  0.23795484  1
  Te  Te115  1  0.42878965  0.91072439  0.57451416  1
  Te  Te116  1  0.38448153  0.88515175  0.89566820  1
  Te  Te117  1  0.77823478  0.25473291  0.25325464  1
  Te  Te118  1  0.79455268  0.28418905  0.53238789  1
  Te  Te119  1  0.74188155  0.27816180  0.93344695  1
  Te  Te120  1  0.75780323  0.57860791  0.25049527  1
  Te  Te121  1  0.73599045  0.59773397  0.62238346  1
  Te  Te122  1  0.76823879  0.57650178  0.90490884  1
  Te  Te123  1  0.75189014  0.96404815  0.27525846  1
  Te  Te124  1  0.76942648  0.92179902  0.59514138  1
  Te  Te125  1  0.74970359  0.92079396  0.87543761  1
  Te  Te126  1  0.25676768  0.26200976  0.07487276  1
  Te  Te127  1  0.24616978  0.27147917  0.41231013  1
  Te  Te128  1  0.23118013  0.23973702  0.75127097  1
  Te  Te129  1  0.25212079  0.58290456  0.07234204  1
  Te  Te130  1  0.24523181  0.58119849  0.41722018  1
  Te  Te131  1  0.22307188  0.55446809  0.77973829  1
  Te  Te132  1  0.22099618  0.92883390  0.09062474  1
  Te  Te133  1  0.25958530  0.90108240  0.42666084  1
  Te  Te134  1  0.24280379  0.93353706  0.74946543  1
  Te  Te135  1  0.59649221  0.27825665  0.08680184  1
  Te  Te136  1  0.59144244  0.24202142  0.41892526  1
  Te  Te137  1  0.61038030  0.26090533  0.72959778  1
  Te  Te138  1  0.58780504  0.58014688  0.10051367  1
  Te  Te139  1  0.60820081  0.55393720  0.44537819  1
  Te  Te140  1  0.58865995  0.59161775  0.74781065  1
  Te  Te141  1  0.58264396  0.91983769  0.09584603  1
  Te  Te142  1  0.59791190  0.92548691  0.42632287  1
  Te  Te143  1  0.57274718  0.90670232  0.73871976  1
  Te  Te144  1  0.91956045  0.24180047  0.10155133  1
  Te  Te145  1  0.90186835  0.24777141  0.42387556  1
  Te  Te146  1  0.91666560  0.24658835  0.71978904  1
  Te  Te147  1  0.90237302  0.56468193  0.06640285  1
  Te  Te148  1  0.93887916  0.59153875  0.42433032  1
  Te  Te149  1  0.89440305  0.57767523  0.73251233  1
  Te  Te150  1  0.90861353  0.91006990  0.07981521  1
  Te  Te151  1  0.89764493  0.94157789  0.43217514  1
  Te  Te152  1  0.90012528  0.91374596  0.73670245  1
  Te  Te153  1  0.24180095  0.07675879  0.23952615  1
  Te  Te154  1  0.22854271  0.09874627  0.59427064  1
  Te  Te155  1  0.23319667  0.07727434  0.90728120  1
  Te  Te156  1  0.28076814  0.41375461  0.23345972  1
  Te  Te157  1  0.22810885  0.39866395  0.58412331  1
  Te  Te158  1  0.25950703  0.42511336  0.90517742  1
  Te  Te159  1  0.24616375  0.75292043  0.25218915  1
  Te  Te160  1  0.25544526  0.74041878  0.58340634  1
  Te  Te161  1  0.21559987  0.78909949  0.90564375  1
  Te  Te162  1  0.60299833  0.09031209  0.29023098  1
  Te  Te163  1  0.64205494  0.10702279  0.56352286  1
  Te  Te164  1  0.58233509  0.09501481  0.90947487  1
  Te  Te165  1  0.59088330  0.42951966  0.26310838  1
  Te  Te166  1  0.60569079  0.39890026  0.59830173  1
  Te  Te167  1  0.57624242  0.41911194  0.91421953  1
  Te  Te168  1  0.58983859  0.75824282  0.24913133  1
  Te  Te169  1  0.57895657  0.75003065  0.60077026  1
  Te  Te170  1  0.59570908  0.76767390  0.91523649  1
  Te  Te171  1  0.91496592  0.10776972  0.27022949  1
  Te  Te172  1  0.89057869  0.10060566  0.57632760  1
  Te  Te173  1  0.90499338  0.06695373  0.90087203  1
  Te  Te174  1  0.90400004  0.41140305  0.24347431  1
  Te  Te175  1  0.87938735  0.39175313  0.60099814  1
  Te  Te176  1  0.92327086  0.41967999  0.91423343  1
  Te  Te177  1  0.93095795  0.74337047  0.26024521  1
  Te  Te178  1  0.89771468  0.76170384  0.59119917  1
  Te  Te179  1  0.91632402  0.73516787  0.89804204  1
