# generated using pymatgen
data_In2Te3
_symmetry_space_group_name_H-M   'P 1'
_cell_length_a   18.96340033
_cell_length_b   18.94276779
_cell_length_c   18.96355924
_cell_angle_alpha   90.17054765
_cell_angle_beta   90.21337289
_cell_angle_gamma   90.34181864
_symmetry_Int_Tables_number   1
_chemical_formula_structural   In2Te3
_chemical_formula_sum   'In72 Te108'
_cell_volume   6811.87717295
_cell_formula_units_Z   36
loop_
 _symmetry_equiv_pos_site_id
 _symmetry_equiv_pos_as_xyz
  1  'x, y, z'
loop_
 _atom_site_type_symbol
 _atom_site_label
 _atom_site_symmetry_multiplicity
 _atom_site_fract_x
 _atom_site_fract_y
 _atom_site_fract_z
 _atom_site_occupancy
  In  In0  1  0.65040360  0.33928227  0.31743497  1
  In  In1  1  0.67615357  0.14509707  0.83141813  1
  In  In2  1  0.35337376  0.33943463  0.00136888  1
  In  In3  1  0.81254660  0.13782387  0.30611059  1
  In  In4  1  0.84055643  0.86541073  0.33987081  1
  In  In5  1  0.14376734  0.68494095  0.14840658  1
  In  In6  1  0.50121285  0.51312247  0.33473169  1
  In  In7  1  0.50732839  0.66165974  0.17844868  1
  In  In8  1  0.33250279  -0.00030682  0.67832827  1
  In  In9  1  0.67702121  0.32761240  0.65189324  1
  In  In10  1  0.48530820  0.15052908  0.67210409  1
  In  In11  1  0.15862642  0.49725637  -0.00591432  1
  In  In12  1  0.83018886  0.51654939  0.00346260  1
  In  In13  1  0.49259014  0.31056691  0.53127043  1
  In  In14  1  0.48599010  0.15995872  0.33599340  1
  In  In15  1  0.65262087  0.12483281  0.50018642  1
  In  In16  1  0.18252802  0.35095797  0.47233375  1
  In  In17  1  0.33641387  0.34738729  0.32548594  1
  In  In18  1  -0.01213069  0.70158802  0.33507973  1
  In  In19  1  0.13173609  -0.00045721  0.16895977  1
  In  In20  1  0.84162062  0.12332945  0.67290802  1
  In  In21  1  0.19076487  0.63299011  0.45999278  1
  In  In22  1  0.34574933  0.49937245  0.85810832  1
  In  In23  1  0.83748611  0.47971508  0.66200463  1
  In  In24  1  0.32988374  -0.01142355  -0.01530071  1
  In  In25  1  0.00669193  0.32816687  0.30592029  1
  In  In26  1  0.81559423  0.34496488  0.84000977  1
  In  In27  1  0.33922484  0.84905027  0.18865166  1
  In  In28  1  0.48087179  0.70313211  0.47570812  1
  In  In29  1  0.64482596  0.66588025  0.70231361  1
  In  In30  1  0.68590568  0.81987424  0.13300959  1
  In  In31  1  0.49849882  0.52118031  0.01386830  1
  In  In32  1  0.33151451  0.83698993  0.83172458  1
  In  In33  1  0.50351256  -0.02012659  0.52649691  1
  In  In34  1  0.71538131  0.69033641  0.29874539  1
  In  In35  1  0.33456038  0.01434490  0.36388444  1
  In  In36  1  0.81943156  0.68748735  0.49871045  1
  In  In37  1  0.80552446  0.86132820  0.64134966  1
  In  In38  1  0.32768705  0.17808535  0.17677899  1
  In  In39  1  0.35693227  0.64227596  0.65596430  1
  In  In40  1  0.84155092  0.67110124  0.84840892  1
  In  In41  1  0.12357285  0.84095930  0.00756678  1
  In  In42  1  0.48671545  0.34214378  0.82280684  1
  In  In43  1  0.51947080  0.83304644  0.68532568  1
  In  In44  1  0.32840792  0.67417315  0.04184566  1
  In  In45  1  -0.00255871  0.85775481  0.83297896  1
  In  In46  1  0.16169203  0.65776362  0.85773930  1
  In  In47  1  0.82071342  0.53654246  0.31186019  1
  In  In48  1  0.65419307  0.36422068  0.02052434  1
  In  In49  1  -0.03249556  0.69883729  0.66424199  1
  In  In50  1  0.17728462  0.00524765  0.52181325  1
  In  In51  1  0.51618578  0.19934650  -0.02239828  1
  In  In52  1  0.19092588  0.81422148  0.65945421  1
  In  In53  1  0.01597855  0.15127716  0.50304693  1
  In  In54  1  0.57306600  0.82605555  -0.10351693  1
  In  In55  1  0.65684159  -0.00640733  0.33830452  1
  In  In56  1  0.01828614  0.28811184  0.67996084  1
  In  In57  1  -0.00838112  0.32645975  0.01854599  1
  In  In58  1  0.86231680  -0.00556701  0.13884765  1
  In  In59  1  0.03717950  0.50222485  0.83248137  1
  In  In60  1  0.82149877  0.31738183  0.47627659  1
  In  In61  1  0.64205467  0.50804923  0.49390464  1
  In  In62  1  0.49144399  0.00726772  0.17715271  1
  In  In63  1  0.17183546  0.85051659  0.32952163  1
  In  In64  1  0.69286847  -0.00729214  -0.00315790  1
  In  In65  1  0.16779023  0.50350586  0.64716835  1
  In  In66  1  0.15917700  0.17981033  0.34398683  1
  In  In67  1  -0.02134413  0.52728946  0.15719040  1
  In  In68  1  0.16743559  0.16631052  0.00581139  1
  In  In69  1  0.85350580  0.16539358  -0.00759405  1
  In  In70  1  0.02788074  0.12044016  0.84233468  1
  In  In71  1  0.00994874  0.49225701  0.50321164  1
  Te  Te72  1  0.06586340  0.07445400  0.06322139  1
  Te  Te73  1  0.09039225  0.06197210  0.40592296  1
  Te  Te74  1  0.05484049  0.06931548  0.70360317  1
  Te  Te75  1  0.07539026  0.42465588  0.09879576  1
  Te  Te76  1  0.08650742  0.43296874  0.38706674  1
  Te  Te77  1  0.10349868  0.39961024  0.74078244  1
  Te  Te78  1  0.03789599  0.78637234  0.11690370  1
  Te  Te79  1  0.10111779  0.74930888  0.42423531  1
  Te  Te80  1  0.08355841  0.74365333  0.76071758  1
  Te  Te81  1  0.40508786  0.08736557  0.08141598  1
  Te  Te82  1  0.42694209  0.09268444  0.45664653  1
  Te  Te83  1  0.43072609  0.05908570  0.77088947  1
  Te  Te84  1  0.40632736  0.43957783  0.09333518  1
  Te  Te85  1  0.43904047  0.40443694  0.42223627  1
  Te  Te86  1  0.40190284  0.42989860  0.74222188  1
  Te  Te87  1  0.43094037  0.77044393  0.09808199  1
  Te  Te88  1  0.41124985  0.78579935  0.37965447  1
  Te  Te89  1  0.41860832  0.74104424  0.75461977  1
  Te  Te90  1  0.75587739  0.09480329  0.08719632  1
  Te  Te91  1  0.76844718  0.06053609  0.42866167  1
  Te  Te92  1  0.78353884  0.05147467  0.78938073  1
  Te  Te93  1  0.77897552  0.40585737  0.08388965  1
  Te  Te94  1  0.75284214  0.43518518  0.41394471  1
  Te  Te95  1  0.72642004  0.43195825  0.75374069  1
  Te  Te96  1  0.78830629  0.74492121  0.05793435  1
  Te  Te97  1  0.73738575  0.78491097  0.42240642  1
  Te  Te98  1  0.77260528  0.74186624  0.73347748  1
  Te  Te99  1  0.09660058  0.24282523  0.22945547  1
  Te  Te100  1  0.11084327  0.25109388  0.56784444  1
  Te  Te101  1  0.07184349  0.24979837  0.91755732  1
  Te  Te102  1  0.06943962  0.60340743  0.25359375  1
  Te  Te103  1  0.06736201  0.60229852  0.59216497  1
  Te  Te104  1  0.05618502  0.60121348  0.94906647  1
  Te  Te105  1  0.05684261  0.89907375  0.24867385  1
  Te  Te106  1  0.09731549  0.90322863  0.59289408  1
  Te  Te107  1  0.08803304  0.94556259  0.91169997  1
  Te  Te108  1  0.43466459  0.26498448  0.24109358  1
  Te  Te109  1  0.39506768  0.25590651  0.62622219  1
  Te  Te110  1  0.39905415  0.23952070  0.89235748  1
  Te  Te111  1  0.40165613  0.59459653  0.25979311  1
  Te  Te112  1  0.43869175  0.58452176  0.55015926  1
  Te  Te113  1  0.41102039  0.61580047  0.93023364  1
  Te  Te114  1  0.43412446  0.91548095  0.29200935  1
  Te  Te115  1  0.40728786  0.89102895  0.60114145  1
  Te  Te116  1  0.43460348  0.89608914  0.92513561  1
  Te  Te117  1  0.75950272  0.26407720  0.25672588  1
  Te  Te118  1  0.76256524  0.22357359  0.58131511  1
  Te  Te119  1  0.73525011  0.25050447  0.92657269  1
  Te  Te120  1  0.71328738  0.56563079  0.21267330  1
  Te  Te121  1  0.75285458  0.57601977  0.57986090  1
  Te  Te122  1  0.74008911  0.57638844  0.90255149  1
  Te  Te123  1  0.74569398  0.92716805  0.23222280  1
  Te  Te124  1  0.71998264  0.96032278  0.57649446  1
  Te  Te125  1  0.71660802  0.87909931  0.90454834  1
  Te  Te126  1  0.24823812  0.27012783  0.08874946  1
  Te  Te127  1  0.27493079  0.24089891  0.41629520  1
  Te  Te128  1  0.16318074  0.14382200  0.77314681  1
  Te  Te129  1  0.23795873  0.57050223  0.10172791  1
  Te  Te130  1  0.28162117  0.55955806  0.37091935  1
  Te  Te131  1  0.24747966  0.58493396  0.75792978  1
  Te  Te132  1  0.24297684  0.91382810  0.08797646  1
  Te  Te133  1  0.26402430  0.90505943  0.43836726  1
  Te  Te134  1  0.23001742  0.92136753  0.76190075  1
  Te  Te135  1  0.57617478  0.26308998  0.09326261  1
  Te  Te136  1  0.59496667  0.24792274  0.43152666  1
  Te  Te137  1  0.59297330  0.24657444  0.74984490  1
  Te  Te138  1  0.60408626  0.60020163  0.08381905  1
  Te  Te139  1  0.59847408  0.61387412  0.39809967  1
  Te  Te140  1  0.53992901  0.58802173  0.76710487  1
  Te  Te141  1  0.58509536  0.92928687  0.09055892  1
  Te  Te142  1  0.58403291  0.90408510  0.42969351  1
  Te  Te143  1  0.61511300  0.90348494  0.77563564  1
  Te  Te144  1  0.91236836  0.24021752  0.10483071  1
  Te  Te145  1  0.93403377  0.24187271  0.41037355  1
  Te  Te146  1  0.89237178  0.24690338  0.75305932  1
  Te  Te147  1  0.88394061  0.62445417  0.09410495  1
  Te  Te148  1  0.91820008  0.58777726  0.42700186  1
  Te  Te149  1  0.92367657  0.57024893  0.75073583  1
  Te  Te150  1  0.89640866  0.87416099  0.06063482  1
  Te  Te151  1  0.92523692  0.90869221  0.45004204  1
  Te  Te152  1  0.91248313  0.91835546  0.72823786  1
  Te  Te153  1  0.25175439  0.06690509  0.24816611  1
  Te  Te154  1  0.26564902  0.09893422  0.59278325  1
  Te  Te155  1  0.24877680  0.08684212  0.90770635  1
  Te  Te156  1  0.23521262  0.44197696  0.28169618  1
  Te  Te157  1  0.26164767  0.44533279  0.55278725  1
  Te  Te158  1  0.24237548  0.40250885  0.91264307  1
  Te  Te159  1  0.24433879  0.74652593  0.24719957  1
  Te  Te160  1  0.26266429  0.71887131  0.56471135  1
  Te  Te161  1  0.24216931  0.75837833  0.93871190  1
  Te  Te162  1  0.59147930  0.09942038  0.24890132  1
  Te  Te163  1  0.60578015  0.05518298  0.62614766  1
  Te  Te164  1  0.57990687  0.07517893  0.92455440  1
  Te  Te165  1  0.59051212  0.44486061  0.23627139  1
  Te  Te166  1  0.57272688  0.42365192  0.59949640  1
  Te  Te167  1  0.57129045  0.43028333  0.91346538  1
  Te  Te168  1  0.59604070  0.76788988  0.24292021  1
  Te  Te169  1  0.58724564  0.74282352  0.58539651  1
  Te  Te170  1  0.60999395  0.67950391  0.86320081  1
  Te  Te171  1  0.92570945  0.06415532  0.25234194  1
  Te  Te172  1  0.93859426  0.05176150  0.58450965  1
  Te  Te173  1  0.90548471  0.05877348  0.90424354  1
  Te  Te174  1  0.90598736  0.42941525  0.24840699  1
  Te  Te175  1  0.92836077  0.38908744  0.58041192  1
  Te  Te176  1  0.92785468  0.42271956  0.90810794  1
  Te  Te177  1  0.86116205  0.73584523  0.26319638  1
  Te  Te178  1  0.92455352  0.79082645  0.54596076  1
  Te  Te179  1  0.91653625  0.77433514  0.92863726  1
