# generated using pymatgen
data_In2Te3
_symmetry_space_group_name_H-M   'P 1'
_cell_length_a   18.96704192
_cell_length_b   18.96515543
_cell_length_c   18.96895126
_cell_angle_alpha   89.93902515
_cell_angle_beta   89.76428990
_cell_angle_gamma   90.01044714
_symmetry_Int_Tables_number   1
_chemical_formula_structural   In2Te3
_chemical_formula_sum   'In72 Te108'
_cell_volume   6823.31470901
_cell_formula_units_Z   36
loop_
 _symmetry_equiv_pos_site_id
 _symmetry_equiv_pos_as_xyz
  1  'x, y, z'
loop_
 _atom_site_type_symbol
 _atom_site_label
 _atom_site_symmetry_multiplicity
 _atom_site_fract_x
 _atom_site_fract_y
 _atom_site_fract_z
 _atom_site_occupancy
  In  In0  1  0.64821525  0.53627109  0.81826727  1
  In  In1  1  0.00421625  0.17737788  0.45928155  1
  In  In2  1  0.36639719  0.50412754  0.52376183  1
  In  In3  1  0.49635262  0.83267522  0.67941575  1
  In  In4  1  0.79841249  0.19604646  0.62175916  1
  In  In5  1  0.02789801  0.00294594  0.28755848  1
  In  In6  1  0.65878948  0.44360687  0.48488622  1
  In  In7  1  0.34106130  0.18486519  0.17246155  1
  In  In8  1  0.49787993  -0.01890631  0.19118870  1
  In  In9  1  0.69258181  0.33341143  -0.01287503  1
  In  In10  1  0.86800342  0.17413865  0.00449324  1
  In  In11  1  0.01863439  0.82203016  0.52064915  1
  In  In12  1  0.17172117  0.32109616  0.47651801  1
  In  In13  1  0.64729955  0.65937143  0.64237645  1
  In  In14  1  0.86303435  0.48952079  0.02131709  1
  In  In15  1  0.31859250  -0.00459534  0.02498987  1
  In  In16  1  0.34103192  0.04363527  0.66470220  1
  In  In17  1  0.34389300  0.47677870  0.17387015  1
  In  In18  1  0.18562495  -0.00532679  0.86055518  1
  In  In19  1  0.50621124  0.47152088  0.34164568  1
  In  In20  1  0.83995020  0.02549178  0.46337487  1
  In  In21  1  0.82647247  0.83788684  0.34128035  1
  In  In22  1  0.81428591  0.34637863  0.80775653  1
  In  In23  1  -0.00941550  0.67718807  0.67470588  1
  In  In24  1  0.32545919  0.84022242  0.86512495  1
  In  In25  1  0.48914084  0.02997407  0.48612272  1
  In  In26  1  -0.00646468  0.18071146  0.82769696  1
  In  In27  1  0.03087481  0.34192168  0.00948345  1
  In  In28  1  0.50906144  0.66428811  0.82245629  1
  In  In29  1  0.01932148  0.64203614  0.00296397  1
  In  In30  1  0.20017786  0.68959331  0.19127953  1
  In  In31  1  0.47977326  0.17336850  -0.02572768  1
  In  In32  1  0.47776135  0.68089668  0.18146414  1
  In  In33  1  0.81723955  0.00320847  0.85610904  1
  In  In34  1  0.33039759  -0.00650688  0.33072063  1
  In  In35  1  -0.02264263  0.34788297  0.32960624  1
  In  In36  1  0.66818358  -0.00834853  0.34425448  1
  In  In37  1  0.81404507  0.46750612  0.63584113  1
  In  In38  1  0.02982261  0.85768126  0.84922212  1
  In  In39  1  0.16000130  0.15628627  0.32477096  1
  In  In40  1  0.64628287  -0.00488868  0.64681949  1
  In  In41  1  0.50997080  0.34213134  0.17575222  1
  In  In42  1  -0.00784226  0.51377844  0.83319639  1
  In  In43  1  0.82017580  0.34302101  0.18692091  1
  In  In44  1  0.17863108  0.82110591  0.67854302  1
  In  In45  1  0.65082603  0.85203059  0.49788524  1
  In  In46  1  0.33677251  0.31043805  0.63463666  1
  In  In47  1  0.82170692  0.80879515  0.65613264  1
  In  In48  1  0.31764163  0.49366894  0.83076570  1
  In  In49  1  -0.00452442  0.67036428  0.34839108  1
  In  In50  1  -0.01683912  -0.00286142  0.66907183  1
  In  In51  1  0.18029240  0.67299288  0.49165476  1
  In  In52  1  0.47392521  0.00335147  0.82256441  1
  In  In53  1  0.49928848  0.33198986  0.81729443  1
  In  In54  1  0.19003237  0.50201198  0.31986720  1
  In  In55  1  0.84364643  0.82244449  0.03328147  1
  In  In56  1  0.82645340  0.68270214  0.83948736  1
  In  In57  1  0.50161795  0.49709075  0.02136548  1
  In  In58  1  0.16596587  0.33116329  0.83468319  1
  In  In59  1  0.16067298  0.15893940  0.64954460  1
  In  In60  1  0.67646248  0.64080887  0.32078068  1
  In  In61  1  0.16979917  0.33674971  0.16386192  1
  In  In62  1  -0.02145893  0.51119493  0.50017266  1
  In  In63  1  0.01278234  0.83312603  0.17434832  1
  In  In64  1  0.16199050  0.49444428  0.69053679  1
  In  In65  1  0.34951738  0.83301436  0.47747531  1
  In  In66  1  0.65911506  0.15682665  0.80154071  1
  In  In67  1  0.32880570  0.67790597  0.00644871  1
  In  In68  1  0.67487368  -0.00113920  0.01801037  1
  In  In69  1  0.67558550  0.17622310  0.16329521  1
  In  In70  1  0.65138493  0.64693208  0.00503344  1
  In  In71  1  0.68190696  0.82790742  0.18620247  1
  Te  Te72  1  0.00281232  0.06988201  0.15566124  1
  Te  Te73  1  0.08757716  0.06082772  0.41824214  1
  Te  Te74  1  0.08332772  0.07419028  0.75712503  1
  Te  Te75  1  0.08795543  0.44025171  0.09954955  1
  Te  Te76  1  0.08398554  0.43408764  0.40946786  1
  Te  Te77  1  0.05878707  0.40227266  0.75295522  1
  Te  Te78  1  0.09726243  0.73928937  0.08733180  1
  Te  Te79  1  0.09943020  0.76647889  0.40416237  1
  Te  Te80  1  0.08892644  0.73960238  0.77050527  1
  Te  Te81  1  0.43761813  0.08270529  0.09167556  1
  Te  Te82  1  0.42303800  0.10133782  0.37572315  1
  Te  Te83  1  0.45376619  0.11281649  0.72803128  1
  Te  Te84  1  0.40860945  0.38870246  0.06954165  1
  Te  Te85  1  0.39944045  0.40021514  0.42205036  1
  Te  Te86  1  0.39812185  0.40987839  0.73473576  1
  Te  Te87  1  0.40603514  0.77007890  0.09075638  1
  Te  Te88  1  0.39389043  0.72678924  0.38743868  1
  Te  Te89  1  0.40063648  0.75173736  0.76317504  1
  Te  Te90  1  0.77437717  0.08770044  0.08904588  1
  Te  Te91  1  0.72362018  0.10485635  0.42326382  1
  Te  Te92  1  0.76119012  0.06764283  0.73119594  1
  Te  Te93  1  0.73934183  0.43319959  0.08861359  1
  Te  Te94  1  0.78862079  0.37966478  0.44132667  1
  Te  Te95  1  0.70739877  0.42143974  0.73399234  1
  Te  Te96  1  0.74724227  0.72367533  0.09733226  1
  Te  Te97  1  0.73202000  0.75045911  0.41962859  1
  Te  Te98  1  0.72045220  0.74328876  0.74832625  1
  Te  Te99  1  0.07359369  0.25866915  0.25368968  1
  Te  Te100  1  0.07353933  0.25461824  0.57216979  1
  Te  Te101  1  0.09430776  0.22974728  0.92852186  1
  Te  Te102  1  0.09335466  0.59870671  0.25578694  1
  Te  Te103  1  0.08504660  0.59444519  0.58707897  1
  Te  Te104  1  0.10371750  0.55601864  0.91758010  1
  Te  Te105  1  0.13347176  0.91241206  0.22218846  1
  Te  Te106  1  0.09812744  0.92380427  0.59939314  1
  Te  Te107  1  0.10299999  0.92245256  0.96094137  1
  Te  Te108  1  0.44221311  0.24397183  0.26130344  1
  Te  Te109  1  0.45301795  0.26009690  0.55628544  1
  Te  Te110  1  0.39669391  0.26609533  0.89964820  1
  Te  Te111  1  0.41571071  0.57097542  0.26535312  1
  Te  Te112  1  0.44385211  0.60547182  0.59210348  1
  Te  Te113  1  0.42284560  0.57998936  0.92261754  1
  Te  Te114  1  0.38718391  0.89034902  0.23501341  1
  Te  Te115  1  0.42458702  0.93333193  0.59082712  1
  Te  Te116  1  0.42823898  0.92025657  0.93858134  1
  Te  Te117  1  0.71706042  0.27245352  0.26764078  1
  Te  Te118  1  0.72076445  0.30666500  0.55853375  1
  Te  Te119  1  0.76091618  0.22653341  0.90239270  1
  Te  Te120  1  0.78080930  0.54182964  0.28838785  1
  Te  Te121  1  0.73371086  0.56757404  0.56011576  1
  Te  Te122  1  0.76274871  0.56808712  0.91748201  1
  Te  Te123  1  0.76874457  0.93786821  0.24355666  1
  Te  Te124  1  0.76676679  0.92137829  0.57128668  1
  Te  Te125  1  0.74943436  0.89467770  0.93277353  1
  Te  Te126  1  0.24416557  0.24253576  0.08013669  1
  Te  Te127  1  0.25722493  0.21582774  0.42065679  1
  Te  Te128  1  0.24741879  0.24324683  0.74017474  1
  Te  Te129  1  0.26012820  0.58091237  0.10161555  1
  Te  Te130  1  0.27227153  0.57689334  0.42136967  1
  Te  Te131  1  0.25487323  0.59271318  0.74339829  1
  Te  Te132  1  0.21442423  0.91350720  0.08888377  1
  Te  Te133  1  0.24641058  0.92334865  0.42992695  1
  Te  Te134  1  0.26422512  0.93109148  0.74454013  1
  Te  Te135  1  0.58717704  0.25135122  0.06112044  1
  Te  Te136  1  0.54993086  0.31733711  0.44002355  1
  Te  Te137  1  0.58386500  0.25409178  0.72420318  1
  Te  Te138  1  0.57820134  0.57929481  0.11976995  1
  Te  Te139  1  0.58831556  0.57028208  0.42183264  1
  Te  Te140  1  0.54254366  0.56251793  0.70558053  1
  Te  Te141  1  0.58692378  0.90241843  0.09444172  1
  Te  Te142  1  0.55196981  0.91472848  0.40376255  1
  Te  Te143  1  0.58820733  0.91885311  0.76420390  1
  Te  Te144  1  0.92590017  0.27366838  0.09949844  1
  Te  Te145  1  0.88815495  0.25752956  0.40895474  1
  Te  Te146  1  0.89608208  0.24482377  0.73026304  1
  Te  Te147  1  0.91468875  0.60173907  0.09702056  1
  Te  Te148  1  0.88887125  0.57847757  0.40314586  1
  Te  Te149  1  0.88867981  0.58177361  0.73623477  1
  Te  Te150  1  0.92834917  0.92712669  0.09360079  1
  Te  Te151  1  0.92857253  0.90838802  0.42686583  1
  Te  Te152  1  0.91227154  0.88931354  0.74997801  1
  Te  Te153  1  0.24876408  0.07978415  0.22990448  1
  Te  Te154  1  0.26369178  0.10657157  0.55628195  1
  Te  Te155  1  0.28636638  0.08595265  0.91376715  1
  Te  Te156  1  0.26934848  0.38484446  0.26839528  1
  Te  Te157  1  0.23327305  0.41701346  0.58062283  1
  Te  Te158  1  0.22967445  0.42587623  0.92754643  1
  Te  Te159  1  0.29092479  0.76621673  0.28694323  1
  Te  Te160  1  0.27151751  0.74882322  0.58467767  1
  Te  Te161  1  0.22962322  0.74830305  0.92430691  1
  Te  Te162  1  0.58993851  0.08566376  0.25172449  1
  Te  Te163  1  0.60402327  0.09840832  0.55140590  1
  Te  Te164  1  0.59343633  0.07954200  0.91766679  1
  Te  Te165  1  0.61283574  0.41124451  0.25591072  1
  Te  Te166  1  0.52190740  0.40544468  0.55558291  1
  Te  Te167  1  0.58796209  0.42483296  0.91543111  1
  Te  Te168  1  0.58159851  0.75119949  0.26938424  1
  Te  Te169  1  0.55462113  0.75134393  0.56384533  1
  Te  Te170  1  0.57897496  0.74265502  0.92353385  1
  Te  Te171  1  0.92298389  0.10916308  0.27255634  1
  Te  Te172  1  0.92035168  0.09697165  0.57369655  1
  Te  Te173  1  0.93590770  0.06818198  0.91843567  1
  Te  Te174  1  0.90637078  0.45136222  0.24800229  1
  Te  Te175  1  0.93530354  0.40266467  0.58766803  1
  Te  Te176  1  0.91613408  0.39337625  0.91076924  1
  Te  Te177  1  0.91022483  0.74921780  0.25044343  1
  Te  Te178  1  0.90563058  0.72770159  0.55921367  1
  Te  Te179  1  0.93173144  0.75310956  0.92141326  1
