# generated using pymatgen
data_In2Te3
_symmetry_space_group_name_H-M   'P 1'
_cell_length_a   18.81189820
_cell_length_b   18.81093227
_cell_length_c   18.81635699
_cell_angle_alpha   89.90651082
_cell_angle_beta   90.07216265
_cell_angle_gamma   90.09900287
_symmetry_Int_Tables_number   1
_chemical_formula_structural   In2Te3
_chemical_formula_sum   'In72 Te108'
_cell_volume   6658.50781997
_cell_formula_units_Z   36
loop_
 _symmetry_equiv_pos_site_id
 _symmetry_equiv_pos_as_xyz
  1  'x, y, z'
loop_
 _atom_site_type_symbol
 _atom_site_label
 _atom_site_symmetry_multiplicity
 _atom_site_fract_x
 _atom_site_fract_y
 _atom_site_fract_z
 _atom_site_occupancy
  In  In0  1  0.66818053  0.03105621  0.30641082  1
  In  In1  1  0.66197655  0.49961842  0.84402704  1
  In  In2  1  0.50385148  0.81913822  0.66726980  1
  In  In3  1  0.53432265  0.04627756  0.16878818  1
  In  In4  1  0.34000199  0.17714253  0.80504376  1
  In  In5  1  0.50108494  0.31553457  0.47024698  1
  In  In6  1  0.30872756  0.02564235  0.32759497  1
  In  In7  1  0.00017719  0.01697614  0.65954992  1
  In  In8  1  0.49325442  0.48509729  0.66568645  1
  In  In9  1  0.83879403  0.19299328  0.00188000  1
  In  In10  1  0.83466136  0.18419155  0.34918272  1
  In  In11  1  0.66708698  0.02169398  0.66322962  1
  In  In12  1  0.83146970  0.65698188  0.48822436  1
  In  In13  1  0.67303521  0.80580398  0.16110012  1
  In  In14  1  0.50326068  0.18419274  -0.00723217  1
  In  In15  1  0.51701175  0.48328660  0.32476959  1
  In  In16  1  0.14202195  0.51569382  0.64823900  1
  In  In17  1  0.34279117  0.00916025  0.00946781  1
  In  In18  1  0.31259971  0.00091154  0.65820409  1
  In  In19  1  0.31536604  0.64594631  0.34872032  1
  In  In20  1  0.48179459  0.82756845  0.31281933  1
  In  In21  1  0.83293478  0.46804352  0.30724663  1
  In  In22  1  0.17112025  0.67438834  0.83397448  1
  In  In23  1  0.13292043  0.82742600  0.32600105  1
  In  In24  1  -0.01088547  0.18697301  0.16167458  1
  In  In25  1  0.35216562  0.46893015  0.14881890  1
  In  In26  1  0.85480137  0.00278051  0.14546935  1
  In  In27  1  0.34746628  0.32499224  0.31918495  1
  In  In28  1  0.17051085  0.00338227  0.19294784  1
  In  In29  1  0.15992363  0.33350747  0.15960278  1
  In  In30  1  0.13912177  0.47530858  0.36536079  1
  In  In31  1  -0.00457477  0.32978270  0.00439086  1
  In  In32  1  0.32533915  0.17689663  0.52454579  1
  In  In33  1  0.52109423  0.01459313  0.49324660  1
  In  In34  1  0.67639253  -0.02482164  -0.01090218  1
  In  In35  1  0.82494943  0.49354318  0.68195479  1
  In  In36  1  0.50810684  0.81663313  -0.01165241  1
  In  In37  1  0.48674014  0.65756449  0.83434747  1
  In  In38  1  0.69947233  0.17978105  0.83598998  1
  In  In39  1  0.00346785  -0.01342754  -0.00564212  1
  In  In40  1  0.67156362  0.82381462  0.84853543  1
  In  In41  1  0.84751171  0.02168521  0.51512997  1
  In  In42  1  -0.02656838  0.65419187  0.33637408  1
  In  In43  1  0.82080344  0.65049017  0.82730456  1
  In  In44  1  0.83889028  0.82661634  0.33618780  1
  In  In45  1  0.15468942  0.17979750  0.35148477  1
  In  In46  1  0.00062962  0.17420650  0.83236103  1
  In  In47  1  0.33905297  0.84518183  0.15317636  1
  In  In48  1  0.65054476  0.81540444  0.49851047  1
  In  In49  1  0.50772322  0.33622444  0.83542059  1
  In  In50  1  0.00649442  0.83464174  0.83675510  1
  In  In51  1  -0.00529181  0.81909994  0.48666272  1
  In  In52  1  -0.01125951  0.65322786  0.02219766  1
  In  In53  1  0.15167555  0.66526424  0.17422012  1
  In  In54  1  0.84004006  0.82789777  0.66843657  1
  In  In55  1  0.83844246  0.34225937  0.51331856  1
  In  In56  1  0.67339234  0.19647687  0.16448476  1
  In  In57  1  0.67751635  0.32304388  0.66537128  1
  In  In58  1  0.18705043  0.18216802  0.00461205  1
  In  In59  1  0.17705209  0.83465940  0.67499146  1
  In  In60  1  0.81872887  0.64700301  0.15997215  1
  In  In61  1  0.53072047  0.61134477  0.14608795  1
  In  In62  1  0.32791051  0.66257800  -0.01200257  1
  In  In63  1  0.17690474  0.01743988  0.49333513  1
  In  In64  1  -0.00882921  0.47469095  0.84048593  1
  In  In65  1  0.47366029  0.00419235  0.83203818  1
  In  In66  1  0.01654532  0.31255077  0.66098336  1
  In  In67  1  0.67827037  0.50873805  0.48137755  1
  In  In68  1  0.32402338  0.81392720  0.51255414  1
  In  In69  1  0.31086021  0.34416499  0.66406538  1
  In  In70  1  0.34039481  0.64307059  0.67164140  1
  In  In71  1  0.19431706  0.47662618  -0.02395814  1
  Te  Te72  1  0.08161147  0.09671302  0.08069430  1
  Te  Te73  1  0.07016368  0.07540414  0.41187464  1
  Te  Te74  1  0.08920018  0.08221808  0.75659667  1
  Te  Te75  1  0.08588282  0.43392131  0.07375067  1
  Te  Te76  1  0.05544011  0.38282288  0.45296722  1
  Te  Te77  1  0.09669792  0.41135611  0.75224636  1
  Te  Te78  1  0.08495881  0.75287938  0.07747468  1
  Te  Te79  1  0.09422204  0.71347805  0.42576659  1
  Te  Te80  1  0.07367085  0.74055782  0.73683308  1
  Te  Te81  1  0.41445502  0.11141256  0.09562425  1
  Te  Te82  1  0.40527257  0.09232226  0.42595504  1
  Te  Te83  1  0.42672673  0.08778050  0.71519489  1
  Te  Te84  1  0.47642268  0.41284612  0.08982802  1
  Te  Te85  1  0.40981216  0.42477109  0.41711423  1
  Te  Te86  1  0.39878552  0.42056481  0.76595912  1
  Te  Te87  1  0.42699785  0.73638753  0.09162385  1
  Te  Te88  1  0.41836367  0.73794645  0.41992136  1
  Te  Te89  1  0.39859459  0.75645112  0.75804148  1
  Te  Te90  1  0.74052937  0.08759345  0.08248122  1
  Te  Te91  1  0.74153451  0.09099990  0.42796193  1
  Te  Te92  1  0.76574421  0.07526303  0.75725459  1
  Te  Te93  1  0.71662741  0.46092457  0.15884183  1
  Te  Te94  1  0.73756014  0.39243746  0.40606108  1
  Te  Te95  1  0.75318353  0.39774287  0.77504136  1
  Te  Te96  1  0.76220776  0.74542950  0.06273105  1
  Te  Te97  1  0.73528414  0.73472712  0.39854345  1
  Te  Te98  1  0.73501074  0.74139731  0.73686712  1
  Te  Te99  1  0.06800780  0.27065463  0.26282266  1
  Te  Te100  1  0.10188565  0.27333956  0.54562778  1
  Te  Te101  1  0.09689581  0.26476656  0.91319327  1
  Te  Te102  1  0.07350669  0.56700971  0.25988525  1
  Te  Te103  1  0.08872580  0.60403387  0.54021209  1
  Te  Te104  1  0.08534953  0.57799748  0.92061186  1
  Te  Te105  1  0.05868451  0.92266232  0.24354799  1
  Te  Te106  1  0.08596688  0.90920899  0.57150039  1
  Te  Te107  1  0.10062965  0.93120884  0.89796349  1
  Te  Te108  1  0.44298114  0.24200635  0.24783047  1
  Te  Te109  1  0.42628916  0.26655675  0.59419187  1
  Te  Te110  1  0.39226284  0.26615620  0.92452096  1
  Te  Te111  1  0.40849973  0.57969632  0.24605966  1
  Te  Te112  1  0.42418925  0.57579813  0.57167019  1
  Te  Te113  1  0.42322705  0.56570321  0.93191908  1
  Te  Te114  1  0.41589225  0.94813884  0.24198218  1
  Te  Te115  1  0.42080123  0.91787034  0.57355166  1
  Te  Te116  1  0.40229288  0.90022620  0.91781636  1
  Te  Te117  1  0.75279271  0.27392393  0.26161960  1
  Te  Te118  1  0.77432191  0.23608809  0.59537138  1
  Te  Te119  1  0.72678191  0.27197940  0.94719029  1
  Te  Te120  1  0.73235410  0.57462009  0.26250429  1
  Te  Te121  1  0.74384974  0.58834204  0.59404720  1
  Te  Te122  1  0.76513502  0.56153058  0.93462139  1
  Te  Te123  1  0.75254504  0.91713346  0.24283395  1
  Te  Te124  1  0.75044707  0.90827341  0.57041786  1
  Te  Te125  1  0.77742635  0.90639704  0.90946971  1
  Te  Te126  1  0.27208339  0.27564832  0.08362360  1
  Te  Te127  1  0.24916017  0.26943265  0.43053184  1
  Te  Te128  1  0.22774223  0.25176482  0.74530593  1
  Te  Te129  1  0.24976165  0.57719556  0.09266588  1
  Te  Te130  1  0.24173835  0.55504933  0.44348566  1
  Te  Te131  1  0.24525982  0.56524000  0.76040944  1
  Te  Te132  1  0.23325493  0.92461976  0.07847761  1
  Te  Te133  1  0.25032183  0.90386486  0.40993356  1
  Te  Te134  1  0.25102174  0.92278610  0.76648213  1
  Te  Te135  1  0.56952257  0.27948430  0.09115276  1
  Te  Te136  1  0.61138805  0.24867675  0.40233628  1
  Te  Te137  1  0.58427523  0.23555139  0.75199234  1
  Te  Te138  1  0.64816447  0.56657908  0.06517868  1
  Te  Te139  1  0.57727133  0.58805172  0.40963679  1
  Te  Te140  1  0.58317869  0.58185159  0.74325349  1
  Te  Te141  1  0.57169111  0.91379057  0.09127059  1
  Te  Te142  1  0.58560724  0.91654302  0.39252724  1
  Te  Te143  1  0.58356482  0.91679184  0.75506941  1
  Te  Te144  1  0.88712390  0.29358514  0.11681211  1
  Te  Te145  1  0.93434836  0.27425229  0.41697226  1
  Te  Te146  1  0.91306680  0.26417652  0.75456046  1
  Te  Te147  1  0.91964686  0.54808833  0.10673916  1
  Te  Te148  1  0.90869734  0.54582380  0.42064740  1
  Te  Te149  1  0.93181974  0.58136835  0.74824173  1
  Te  Te150  1  0.91386862  0.89414963  0.06813900  1
  Te  Te151  1  0.91965076  0.92990822  0.41324734  1
  Te  Te152  1  0.91605412  0.92776946  0.75181384  1
  Te  Te153  1  0.24438632  0.12850181  0.23655904  1
  Te  Te154  1  0.21604596  0.10922924  0.60775732  1
  Te  Te155  1  0.26249366  0.09010415  0.90859239  1
  Te  Te156  1  0.24366227  0.42733007  0.25645109  1
  Te  Te157  1  0.25055433  0.44445947  0.57106445  1
  Te  Te158  1  0.29574602  0.39154880  0.91636370  1
  Te  Te159  1  0.25830533  0.75930095  0.25271303  1
  Te  Te160  1  0.23452196  0.72035511  0.58907378  1
  Te  Te161  1  0.23595376  0.76251026  0.93330715  1
  Te  Te162  1  0.56116281  0.14823739  0.29285148  1
  Te  Te163  1  0.59373156  0.11340868  0.57458679  1
  Te  Te164  1  0.58010379  0.07484665  0.91723097  1
  Te  Te165  1  0.57788807  0.40414522  0.21442115  1
  Te  Te166  1  0.59202591  0.41042414  0.57409228  1
  Te  Te167  1  0.55883362  0.43639483  0.93403198  1
  Te  Te168  1  0.57451062  0.72740917  0.24488321  1
  Te  Te169  1  0.56971278  0.72252261  0.57890569  1
  Te  Te170  1  0.59906112  0.71465312  0.92610523  1
  Te  Te171  1  0.91424410  0.09038881  0.25352768  1
  Te  Te172  1  0.92693273  0.12358639  0.58589990  1
  Te  Te173  1  0.91000519  0.08768888  0.92217638  1
  Te  Te174  1  0.93038898  0.41970613  0.20688673  1
  Te  Te175  1  0.93184526  0.43075807  0.59655384  1
  Te  Te176  1  0.89502321  0.41480952  0.93537044  1
  Te  Te177  1  0.91713542  0.74933773  0.23297953  1
  Te  Te178  1  0.92305884  0.72946190  0.58727392  1
  Te  Te179  1  0.91734910  0.73530302  0.91170274  1
