# generated using pymatgen
data_In2Te3
_symmetry_space_group_name_H-M   'P 1'
_cell_length_a   18.78238732
_cell_length_b   18.77083957
_cell_length_c   18.77054479
_cell_angle_alpha   90.01978214
_cell_angle_beta   89.95179899
_cell_angle_gamma   90.02539286
_symmetry_Int_Tables_number   1
_chemical_formula_structural   In2Te3
_chemical_formula_sum   'In72 Te108'
_cell_volume   6617.76201937
_cell_formula_units_Z   36
loop_
 _symmetry_equiv_pos_site_id
 _symmetry_equiv_pos_as_xyz
  1  'x, y, z'
loop_
 _atom_site_type_symbol
 _atom_site_label
 _atom_site_symmetry_multiplicity
 _atom_site_fract_x
 _atom_site_fract_y
 _atom_site_fract_z
 _atom_site_occupancy
  In  In0  1  0.34452883  0.51992312  0.82224169  1
  In  In1  1  0.65730181  0.66908598  0.66237812  1
  In  In2  1  0.66277980  0.83031455  0.51323514  1
  In  In3  1  0.81819698  0.52703473  0.65474357  1
  In  In4  1  0.52265313  0.31136324  0.84339512  1
  In  In5  1  0.66158926  0.47660132  0.83566194  1
  In  In6  1  0.48108167  0.51682693  0.64511046  1
  In  In7  1  0.52594037  0.54182506  0.36307563  1
  In  In8  1  0.33169461  -0.01189175  0.00469803  1
  In  In9  1  0.51076296  -0.00344190  0.17614117  1
  In  In10  1  -0.04093081  0.13796367  0.84400463  1
  In  In11  1  0.51727373  0.16306894  0.66934017  1
  In  In12  1  0.68553480  0.00304490  0.32649651  1
  In  In13  1  0.67047118  0.68404788  0.00749209  1
  In  In14  1  0.52013547  0.67492536  0.17638946  1
  In  In15  1  0.34846851  0.33435644  0.35132811  1
  In  In16  1  0.52604616  0.31392696  0.13323361  1
  In  In17  1  0.16009936  0.01653778  0.17382222  1
  In  In18  1  0.16770527  0.15515501  0.34307649  1
  In  In19  1  0.83710951  0.48766320  0.01299718  1
  In  In20  1  0.15627944  0.16110185  0.00368797  1
  In  In21  1  0.51762218  0.83872574  -0.00688721  1
  In  In22  1  -0.03623874  0.69673572  0.65038489  1
  In  In23  1  0.32530395  0.84074546  0.17046628  1
  In  In24  1  0.16058349  0.51108305  -0.00169232  1
  In  In25  1  -0.03116648  0.14952538  0.16143263  1
  In  In26  1  0.68157816  0.32978245  0.31453999  1
  In  In27  1  -0.01267051  0.33093160  0.32900634  1
  In  In28  1  0.67411043  0.84636943  0.83157741  1
  In  In29  1  0.01822648  0.50212875  0.16212348  1
  In  In30  1  0.82539306  0.31393006  0.14751597  1
  In  In31  1  0.34126499  0.18120377  0.80942279  1
  In  In32  1  0.31683111  0.16279894  0.51058145  1
  In  In33  1  0.82811316  0.66650148  0.17071556  1
  In  In34  1  0.15915167  0.66489626  0.83745162  1
  In  In35  1  0.17156867  0.67783234  0.50876356  1
  In  In36  1  -0.00310798  -0.00366970  0.33824869  1
  In  In37  1  0.68614003  0.01194996  0.01020970  1
  In  In38  1  0.31209761  0.34169396  0.67202698  1
  In  In39  1  0.16605984  0.85969383  0.38676811  1
  In  In40  1  0.83157871  0.00394017  0.49171325  1
  In  In41  1  0.82370243  0.15066109  0.67427003  1
  In  In42  1  0.15903655  0.35174821  0.17347605  1
  In  In43  1  0.49956113  -0.00824335  0.52870418  1
  In  In44  1  0.17611840  0.48878411  0.67669821  1
  In  In45  1  0.66529687  0.00028337  0.68011023  1
  In  In46  1  0.84219064  0.32573488  0.49284705  1
  In  In47  1  0.16401404  0.49196112  0.32523180  1
  In  In48  1  0.50815134  0.34212606  0.48941829  1
  In  In49  1  0.66425702  0.49034833  0.17424768  1
  In  In50  1  0.14422145  0.67657784  0.16228918  1
  In  In51  1  0.82060050  0.83790858  0.33453671  1
  In  In52  1  0.81977863  0.30375060  0.86897335  1
  In  In53  1  -0.02480444  0.84782765  0.13984082  1
  In  In54  1  -0.00395453  -0.02624200  0.65951805  1
  In  In55  1  0.51433092  0.14782708  0.33422478  1
  In  In56  1  0.84470281  0.52147712  0.35026947  1
  In  In57  1  0.83720296  0.68061987  0.83491721  1
  In  In58  1  0.33739269  0.67335915  0.34766934  1
  In  In59  1  -0.02564452  0.85561439  0.84502250  1
  In  In60  1  0.34502285  0.34510900  -0.00018670  1
  In  In61  1  0.03124730  0.30884582  0.64410443  1
  In  In62  1  0.32695870  0.14612686  0.18028549  1
  In  In63  1  0.32296869  0.65589757  -0.01015698  1
  In  In64  1  0.51071760  0.80328167  0.33331579  1
  In  In65  1  0.16351240  0.31178664  0.82222769  1
  In  In66  1  0.17131759  0.83260439  0.65712386  1
  In  In67  1  0.36034795  0.79780779  0.81521500  1
  In  In68  1  0.14796909  -0.00164633  0.82718748  1
  In  In69  1  -0.00850709  0.51959225  0.49537998  1
  In  In70  1  0.32798572  0.01163150  0.65650336  1
  In  In71  1  0.65005493  0.33589243  0.66865617  1
  Te  Te72  1  0.05947839  0.06424004  0.06961375  1
  Te  Te73  1  0.07164008  0.08491507  0.43136348  1
  Te  Te74  1  0.06263175  0.08879475  0.74211460  1
  Te  Te75  1  0.07120274  0.40097329  0.05979019  1
  Te  Te76  1  0.07570238  0.41306835  0.42261170  1
  Te  Te77  1  0.07130933  0.41359356  0.75627493  1
  Te  Te78  1  0.06872157  0.75731442  0.06504214  1
  Te  Te79  1  0.07846401  0.74701967  0.41746221  1
  Te  Te80  1  0.06905011  0.76137025  0.74926833  1
  Te  Te81  1  0.42460663  0.08158453  0.08159387  1
  Te  Te82  1  0.41655535  0.07831225  0.42942536  1
  Te  Te83  1  0.43231627  0.07147949  0.75603145  1
  Te  Te84  1  0.43117715  0.42015074  0.09214486  1
  Te  Te85  1  0.41765046  0.44732154  0.42789962  1
  Te  Te86  1  0.42756515  0.40296469  0.75295178  1
  Te  Te87  1  0.41727692  0.75392839  0.08309066  1
  Te  Te88  1  0.43223368  0.73906141  0.44258485  1
  Te  Te89  1  0.43209221  0.71555844  0.71358732  1
  Te  Te90  1  0.79160430  0.11677293  0.05038858  1
  Te  Te91  1  0.75431546  0.10233086  0.41309478  1
  Te  Te92  1  0.76434432  0.05954808  0.77669190  1
  Te  Te93  1  0.72565244  0.39862551  0.06859865  1
  Te  Te94  1  0.74953581  0.42205854  0.41762251  1
  Te  Te95  1  0.76406149  0.40861291  0.74530255  1
  Te  Te96  1  0.76367432  0.76818542  0.08385125  1
  Te  Te97  1  0.71991827  0.74514262  0.40177220  1
  Te  Te98  1  0.75834851  0.76088132  0.73385637  1
  Te  Te99  1  0.08169111  0.23561648  0.23694584  1
  Te  Te100  1  0.10964901  0.23457320  0.54795524  1
  Te  Te101  1  0.06454408  0.23623814  0.90916745  1
  Te  Te102  1  0.06715858  0.59664441  0.27068279  1
  Te  Te103  1  0.07678326  0.59031464  0.60307367  1
  Te  Te104  1  0.06399012  0.58583004  0.91703222  1
  Te  Te105  1  0.08252766  0.90672496  0.24771553  1
  Te  Te106  1  0.09251978  0.91505125  0.56170322  1
  Te  Te107  1  0.07836547  0.92054628  0.92992219  1
  Te  Te108  1  0.42487294  0.24508816  0.24970365  1
  Te  Te109  1  0.42546663  0.25373968  0.58581558  1
  Te  Te110  1  0.42057583  0.23325446  0.92863020  1
  Te  Te111  1  0.42494375  0.58633048  0.25602377  1
  Te  Te112  1  0.40819429  0.62937484  0.58461696  1
  Te  Te113  1  0.43150711  0.58422842  0.92150504  1
  Te  Te114  1  0.42227286  0.90982813  0.26529910  1
  Te  Te115  1  0.40385037  0.90002177  0.59368475  1
  Te  Te116  1  0.41955305  0.91439756  0.90444139  1
  Te  Te117  1  0.75943878  0.22483394  0.24533648  1
  Te  Te118  1  0.74526155  0.24933032  0.58490345  1
  Te  Te119  1  0.72676408  0.21702902  0.95013363  1
  Te  Te120  1  0.73582686  0.58872153  0.26460731  1
  Te  Te121  1  0.73564703  0.59867033  0.55259598  1
  Te  Te122  1  0.74894948  0.57913898  0.91448055  1
  Te  Te123  1  0.77940244  0.93687850  0.22888515  1
  Te  Te124  1  0.75984572  0.91508689  0.59376298  1
  Te  Te125  1  0.76452456  0.90168700  0.93924617  1
  Te  Te126  1  0.25076575  0.24771758  0.08959527  1
  Te  Te127  1  0.23403203  0.26706503  0.42859301  1
  Te  Te128  1  0.22768103  0.22247310  0.71644486  1
  Te  Te129  1  0.24931169  0.58040357  0.10083227  1
  Te  Te130  1  0.24779477  0.57434365  0.42308275  1
  Te  Te131  1  0.25603579  0.60635704  0.73450273  1
  Te  Te132  1  0.22528035  0.91045343  0.07930418  1
  Te  Te133  1  0.27858679  0.94792549  0.40748424  1
  Te  Te134  1  0.25718671  0.91098680  0.76192973  1
  Te  Te135  1  0.59793222  0.21521306  0.04747024  1
  Te  Te136  1  0.59854342  0.24497184  0.41687685  1
  Te  Te137  1  0.61924017  0.22136843  0.76694863  1
  Te  Te138  1  0.58407835  0.57854785  0.07735252  1
  Te  Te139  1  0.61383232  0.62685408  0.44609349  1
  Te  Te140  1  0.57792649  0.57256084  0.75195705  1
  Te  Te141  1  0.60407272  0.90743762  0.09596096  1
  Te  Te142  1  0.58450857  0.92625587  0.41216499  1
  Te  Te143  1  0.56822203  0.91786115  0.75584211  1
  Te  Te144  1  0.92705556  0.25061209  0.06059027  1
  Te  Te145  1  0.91286897  0.22942716  0.40537354  1
  Te  Te146  1  0.91518874  0.25397344  0.74539755  1
  Te  Te147  1  0.92655526  0.59190588  0.07952104  1
  Te  Te148  1  0.90508623  0.62798263  0.43779138  1
  Te  Te149  1  0.92205918  0.58566277  0.74941844  1
  Te  Te150  1  0.88873698  0.92980818  0.04772863  1
  Te  Te151  1  0.92402730  0.89011590  0.43739674  1
  Te  Te152  1  0.88663669  0.93345801  0.75284369  1
  Te  Te153  1  0.26639888  0.04767451  0.28509068  1
  Te  Te154  1  0.21928196  0.07103511  0.57574592  1
  Te  Te155  1  0.25515925  0.08946533  0.90996054  1
  Te  Te156  1  0.27358660  0.41990313  0.24526352  1
  Te  Te157  1  0.25882416  0.43157974  0.56903742  1
  Te  Te158  1  0.24799279  0.41466332  0.90195075  1
  Te  Te159  1  0.23880516  0.75421910  0.26233309  1
  Te  Te160  1  0.27260710  0.77215337  0.56534084  1
  Te  Te161  1  0.24736085  0.76420352  0.91534446  1
  Te  Te162  1  0.61108760  0.09994512  0.22614213  1
  Te  Te163  1  0.60736185  0.09145658  0.56999907  1
  Te  Te164  1  0.58824594  0.09917841  0.94070125  1
  Te  Te165  1  0.56440468  0.41475509  0.26258172  1
  Te  Te166  1  0.59241329  0.43925830  0.57255436  1
  Te  Te167  1  0.57792219  0.41074892  0.93778784  1
  Te  Te168  1  0.61929844  0.76285534  0.24113680  1
  Te  Te169  1  0.56436142  0.77656184  0.61397762  1
  Te  Te170  1  0.58195920  0.73961037  0.89647095  1
  Te  Te171  1  0.89159180  0.05466369  0.24808939  1
  Te  Te172  1  0.92525805  0.08781571  0.58033613  1
  Te  Te173  1  0.89179057  0.05178155  0.94577106  1
  Te  Te174  1  0.90283765  0.42506339  0.23959341  1
  Te  Te175  1  0.91809108  0.42013204  0.58872752  1
  Te  Te176  1  0.91013687  0.41319447  0.90840842  1
  Te  Te177  1  0.92168066  0.75608796  0.25193096  1
  Te  Te178  1  0.90128082  0.76574026  0.53685369  1
  Te  Te179  1  0.91551368  0.75290399  0.93630077  1
