# generated using pymatgen
data_In2Te3
_symmetry_space_group_name_H-M   'P 1'
_cell_length_a   18.76221040
_cell_length_b   18.76811164
_cell_length_c   18.76431491
_cell_angle_alpha   90.06898536
_cell_angle_beta   90.04492227
_cell_angle_gamma   90.02358465
_symmetry_Int_Tables_number   1
_chemical_formula_structural   In2Te3
_chemical_formula_sum   'In72 Te108'
_cell_volume   6607.49445951
_cell_formula_units_Z   36
loop_
 _symmetry_equiv_pos_site_id
 _symmetry_equiv_pos_as_xyz
  1  'x, y, z'
loop_
 _atom_site_type_symbol
 _atom_site_label
 _atom_site_symmetry_multiplicity
 _atom_site_fract_x
 _atom_site_fract_y
 _atom_site_fract_z
 _atom_site_occupancy
  In  In0  1  0.51314121  0.53684515  0.33703168  1
  In  In1  1  0.82251699  0.51725805  0.33908972  1
  In  In2  1  0.82507389  0.84334150  0.66989043  1
  In  In3  1  0.37104852  0.66609963  0.33937102  1
  In  In4  1  0.82911611  0.67459080  0.50315972  1
  In  In5  1  0.65499218  0.32959047  0.66293788  1
  In  In6  1  0.49341870  -0.02893457  0.16843711  1
  In  In7  1  0.33504446  0.48348986  0.82815498  1
  In  In8  1  0.16742924  0.66520829  0.15228170  1
  In  In9  1  0.30534165  0.32380259  0.35593091  1
  In  In10  1  0.50478423  0.34208707  0.17388541  1
  In  In11  1  0.50227821  0.84956762  0.33967372  1
  In  In12  1  0.50643100  0.15495485  -0.03099927  1
  In  In13  1  0.15850088  0.48047601  0.33715522  1
  In  In14  1  0.50285616  0.00220740  0.50401511  1
  In  In15  1  0.83906736  0.00381432  0.18950665  1
  In  In16  1  0.64661478  0.15535264  0.16435708  1
  In  In17  1  0.00495918  0.47656664  0.81670117  1
  In  In18  1  0.32883741  0.51228083  0.19252857  1
  In  In19  1  0.17105460  0.49920822  0.68109979  1
  In  In20  1  0.15675642  -0.00195214  0.81905230  1
  In  In21  1  0.34896733  -0.01869779  0.00006490  1
  In  In22  1  -0.01743354  0.67728441  0.34092964  1
  In  In23  1  0.49680400  0.15145525  0.31977972  1
  In  In24  1  0.65136275  -0.00764329  -0.01079550  1
  In  In25  1  0.31984322  0.17923591  0.79696819  1
  In  In26  1  0.00689531  0.31278523  0.33994008  1
  In  In27  1  0.15600558  0.16357697  -0.01915954  1
  In  In28  1  0.35057307  0.83301430  0.82917241  1
  In  In29  1  -0.00087502  0.67674537  0.66543020  1
  In  In30  1  0.17740056  0.67400665  0.50907319  1
  In  In31  1  0.30706733  0.13763577  0.17052102  1
  In  In32  1  0.82365909  0.49676509  0.63400928  1
  In  In33  1  0.30331971  0.14474630  0.52726334  1
  In  In34  1  0.84272470  0.31080562  0.82735841  1
  In  In35  1  0.81900947  0.68122939  0.83182126  1
  In  In36  1  0.15449233  0.32459332  0.53516825  1
  In  In37  1  0.49008687  0.16141207  0.67054513  1
  In  In38  1  0.68779446  0.35265633  -0.02659811  1
  In  In39  1  0.83741569  0.19054845  0.00432634  1
  In  In40  1  0.16211999  -0.01392932  0.17932422  1
  In  In41  1  -0.01674101  -0.01286830  -0.00848163  1
  In  In42  1  0.01022937  0.66121529  0.00990644  1
  In  In43  1  0.32221441  0.84705860  0.50160740  1
  In  In44  1  0.67153197  0.34511963  0.32594029  1
  In  In45  1  0.79259692  0.81772608  0.02915748  1
  In  In46  1  0.49667105  0.33960695  0.51540129  1
  In  In47  1  0.01377763  0.82504394  0.82789273  1
  In  In48  1  0.85390141  0.33864294  0.48445599  1
  In  In49  1  0.67923648  0.16193110  0.50592495  1
  In  In50  1  0.52147519  0.81368662  0.65062146  1
  In  In51  1  0.01280655  -0.00456210  0.64682693  1
  In  In52  1  0.84525071  0.84933992  0.33173238  1
  In  In53  1  0.35787179  0.82135109  0.16465390  1
  In  In54  1  0.32148512  0.32873880  -0.01463498  1
  In  In55  1  0.79032312  0.01974801  0.79416975  1
  In  In56  1  0.83658133  -0.01405422  0.51006796  1
  In  In57  1  0.51237265  0.52093541  0.00610266  1
  In  In58  1  0.84571915  0.16638234  0.35105903  1
  In  In59  1  0.63739430  0.82370396  0.85777143  1
  In  In60  1  0.49083557  0.51223873  0.67724574  1
  In  In61  1  0.34002719  0.66307624  0.00489393  1
  In  In62  1  0.66087296  0.68534513  0.33534457  1
  In  In63  1  0.83431765  0.51938464  -0.00211224  1
  In  In64  1  0.02041493  0.47828926  0.14232065  1
  In  In65  1  0.64694986  0.51077355  0.82013022  1
  In  In66  1  -0.01744792  0.16408242  0.18478065  1
  In  In67  1  0.16818773  0.66904291  0.82637956  1
  In  In68  1  0.16870096  0.84610432  0.33829216  1
  In  In69  1  0.35665289  0.50607586  0.50492643  1
  In  In70  1  0.00798431  0.17714496  0.83645577  1
  In  In71  1  0.83795652  0.34361718  0.14928437  1
  Te  Te72  1  0.07299342  0.07704100  0.08089346  1
  Te  Te73  1  0.13068575  0.09027431  0.40694038  1
  Te  Te74  1  0.11988050  0.12667757  0.73857142  1
  Te  Te75  1  0.08098473  0.38818765  0.04618220  1
  Te  Te76  1  0.07149133  0.41330873  0.43978420  1
  Te  Te77  1  0.09558842  0.38402970  0.74191811  1
  Te  Te78  1  0.08358361  0.76542742  0.08502124  1
  Te  Te79  1  0.07920496  0.75837071  0.42829869  1
  Te  Te80  1  0.10825802  0.76725372  0.72389073  1
  Te  Te81  1  0.43250337  0.09429438  0.08915136  1
  Te  Te82  1  0.40499588  0.08714177  0.42229483  1
  Te  Te83  1  0.39376131  0.06777593  0.73549440  1
  Te  Te84  1  0.41167066  0.42214226  0.08141701  1
  Te  Te85  1  0.42580943  0.41698326  0.39243123  1
  Te  Te86  1  0.41596672  0.39947123  0.73692268  1
  Te  Te87  1  0.43960263  0.76877287  0.04928221  1
  Te  Te88  1  0.43259954  0.75695904  0.44092967  1
  Te  Te89  1  0.44125837  0.73749360  0.75491948  1
  Te  Te90  1  0.75607261  0.08365385  0.07881880  1
  Te  Te91  1  0.74480953  0.06932432  0.40638342  1
  Te  Te92  1  0.72751957  0.11318311  0.70160669  1
  Te  Te93  1  0.73604701  0.43916329  0.08915575  1
  Te  Te94  1  0.73930368  0.42903541  0.43320705  1
  Te  Te95  1  0.75579811  0.42209890  0.75706076  1
  Te  Te96  1  0.73399672  0.70706822  0.10603364  1
  Te  Te97  1  0.74712635  0.77478812  0.42541966  1
  Te  Te98  1  0.72336241  0.75732171  0.74502619  1
  Te  Te99  1  0.09299610  0.24390174  0.24263724  1
  Te  Te100  1  0.08677965  0.22028439  0.61562422  1
  Te  Te101  1  0.07990813  0.27969283  0.92237179  1
  Te  Te102  1  0.08072795  0.58264152  0.25268974  1
  Te  Te103  1  0.08285425  0.57802612  0.58380975  1
  Te  Te104  1  0.08416017  0.57266011  0.90966397  1
  Te  Te105  1  0.06488240  0.89789974  0.24633641  1
  Te  Te106  1  0.11603143  0.91863454  0.57585355  1
  Te  Te107  1  0.09732051  0.90768910  0.92783631  1
  Te  Te108  1  0.40443350  0.25024276  0.24748155  1
  Te  Te109  1  0.39601313  0.25361478  0.58816711  1
  Te  Te110  1  0.41646050  0.25236662  0.89320969  1
  Te  Te111  1  0.44386327  0.60906352  0.21718789  1
  Te  Te112  1  0.42506639  0.60923888  0.58309196  1
  Te  Te113  1  0.42293665  0.58761937  0.90158206  1
  Te  Te114  1  0.38789930  0.92860927  0.27016671  1
  Te  Te115  1  0.41492287  0.92263974  0.59769299  1
  Te  Te116  1  0.44499851  0.91923865  0.90846830  1
  Te  Te117  1  0.75702122  0.24145076  0.24074275  1
  Te  Te118  1  0.76565008  0.25833985  0.58490856  1
  Te  Te119  1  0.73366907  0.22831567  0.89830626  1
  Te  Te120  1  0.75047902  0.60429158  0.24264029  1
  Te  Te121  1  0.73570420  0.61208190  0.60358502  1
  Te  Te122  1  0.72828343  0.59679431  0.92008198  1
  Te  Te123  1  0.74081903  0.90749980  0.24073291  1
  Te  Te124  1  0.72886621  0.91236903  0.58172821  1
  Te  Te125  1  0.76513497  0.91109358  0.90925237  1
  Te  Te126  1  0.24026910  0.24249570  0.08506725  1
  Te  Te127  1  0.20593539  0.22466063  0.42457578  1
  Te  Te128  1  0.21043547  0.25795141  0.73255810  1
  Te  Te129  1  0.24517363  0.56125595  0.07280853  1
  Te  Te130  1  0.25521469  0.57836804  0.40493601  1
  Te  Te131  1  0.27122591  0.59579988  0.74166271  1
  Te  Te132  1  0.25282530  0.90213108  0.08668482  1
  Te  Te133  1  0.22357990  0.94689321  0.43958646  1
  Te  Te134  1  0.26105999  0.92183353  0.74737298  1
  Te  Te135  1  0.58641510  0.26117887  0.07140334  1
  Te  Te136  1  0.58032669  0.24873913  0.41381558  1
  Te  Te137  1  0.57590289  0.24880134  0.75613471  1
  Te  Te138  1  0.60353175  0.62347369  0.06527749  1
  Te  Te139  1  0.58873619  0.60841730  0.44639361  1
  Te  Te140  1  0.56058137  0.61783327  0.76131941  1
  Te  Te141  1  0.59822994  0.89970309  0.09120114  1
  Te  Te142  1  0.59811872  0.91346209  0.43467717  1
  Te  Te143  1  0.58480989  0.90830996  0.74849238  1
  Te  Te144  1  0.94828623  0.26799038  0.07457964  1
  Te  Te145  1  0.94882071  0.22097648  0.44821516  1
  Te  Te146  1  0.92755777  0.24211851  0.72854494  1
  Te  Te147  1  0.91846356  0.58556522  0.10684992  1
  Te  Te148  1  0.92490986  0.57390476  0.43778768  1
  Te  Te149  1  0.91165360  0.58679975  0.75411799  1
  Te  Te150  1  0.90582383  0.90331445  0.09177606  1
  Te  Te151  1  0.93883206  0.92239803  0.42235789  1
  Te  Te152  1  0.92732511  0.92936095  0.75628127  1
  Te  Te153  1  0.22725432  0.07853496  0.28195671  1
  Te  Te154  1  0.21348135  0.03919464  0.58468464  1
  Te  Te155  1  0.26517063  0.07901341  0.91436565  1
  Te  Te156  1  0.23596059  0.39808235  0.23627075  1
  Te  Te157  1  0.26501781  0.41756465  0.58838724  1
  Te  Te158  1  0.23041567  0.41756335  0.91067673  1
  Te  Te159  1  0.25586519  0.73782761  0.25700520  1
  Te  Te160  1  0.26816141  0.74758815  0.59783269  1
  Te  Te161  1  0.24852373  0.75463164  0.92300119  1
  Te  Te162  1  0.59421186  0.05142139  0.26057266  1
  Te  Te163  1  0.60458337  0.07474581  0.60696673  1
  Te  Te164  1  0.58395523  0.06627502  0.88036169  1
  Te  Te165  1  0.59614924  0.44583949  0.24046287  1
  Te  Te166  1  0.59193060  0.43842412  0.57740115  1
  Te  Te167  1  0.56505320  0.41435358  0.90798845  1
  Te  Te168  1  0.56927788  0.75869795  0.24353034  1
  Te  Te169  1  0.59477798  0.71121280  0.56713337  1
  Te  Te170  1  0.57260166  0.73617498  0.95822714  1
  Te  Te171  1  0.94166538  0.06154666  0.28937726  1
  Te  Te172  1  0.91489711  0.08740067  0.58749524  1
  Te  Te173  1  0.90431696  0.08706286  0.90720945  1
  Te  Te174  1  0.91458163  0.41465375  0.26147584  1
  Te  Te175  1  0.93044647  0.40606198  0.59286106  1
  Te  Te176  1  0.91155531  0.41341787  0.92072553  1
  Te  Te177  1  0.90295424  0.74616025  0.23969057  1
  Te  Te178  1  0.92378841  0.77336938  0.57601466  1
  Te  Te179  1  0.91662134  0.75456590  0.92442170  1
