# generated using pymatgen
data_In2Te3
_symmetry_space_group_name_H-M   'P 1'
_cell_length_a   18.82100656
_cell_length_b   18.83218732
_cell_length_c   18.82511752
_cell_angle_alpha   89.99419761
_cell_angle_beta   90.03773379
_cell_angle_gamma   89.98195693
_symmetry_Int_Tables_number   1
_chemical_formula_structural   In2Te3
_chemical_formula_sum   'In72 Te108'
_cell_volume   6672.38641754
_cell_formula_units_Z   36
loop_
 _symmetry_equiv_pos_site_id
 _symmetry_equiv_pos_as_xyz
  1  'x, y, z'
loop_
 _atom_site_type_symbol
 _atom_site_label
 _atom_site_symmetry_multiplicity
 _atom_site_fract_x
 _atom_site_fract_y
 _atom_site_fract_z
 _atom_site_occupancy
  In  In0  1  0.65236187  0.00441315  0.65814910  1
  In  In1  1  0.00922419  0.00329428  -0.00925041  1
  In  In2  1  0.64643371  0.31219538  0.00797143  1
  In  In3  1  0.18855390  0.81867353  0.65518408  1
  In  In4  1  0.19713058  0.00063215  0.16754742  1
  In  In5  1  0.02569029  0.67805510  0.00754570  1
  In  In6  1  0.48514862  0.84338106  -0.02195992  1
  In  In7  1  0.18626369  0.65087502  0.79371502  1
  In  In8  1  0.67349704  0.49815370  0.21156898  1
  In  In9  1  0.52160924  0.03467438  0.18974336  1
  In  In10  1  0.64222876  0.67805752  0.01594008  1
  In  In11  1  0.85140727  0.51541266  0.33269956  1
  In  In12  1  0.62944632  0.02273257  -0.02305653  1
  In  In13  1  0.81745934  0.15840248  0.65610580  1
  In  In14  1  0.82800659  0.48601888  -0.02001255  1
  In  In15  1  0.51321297  0.86673809  0.36975529  1
  In  In16  1  0.48930985  0.33626451  0.52581638  1
  In  In17  1  -0.00674646  0.16808223  0.51129720  1
  In  In18  1  0.83704884  0.80597363  0.37076816  1
  In  In19  1  0.47434370  0.64565185  0.48837390  1
  In  In20  1  0.31331709  0.63499170  0.65916652  1
  In  In21  1  0.80661922  -0.00511219  0.15861987  1
  In  In22  1  0.65988410  0.82280633  0.17490758  1
  In  In23  1  -0.00024691  0.01912120  0.65787505  1
  In  In24  1  0.48363665  0.32908670  0.78209154  1
  In  In25  1  0.47436074  0.46579720  0.03652885  1
  In  In26  1  0.83241921  0.00084559  0.81378317  1
  In  In27  1  -0.01465371  0.50974058  0.79561657  1
  In  In28  1  0.82698762  0.80900230  0.60820623  1
  In  In29  1  0.84013800  0.84622262  0.00345502  1
  In  In30  1  0.49882187  0.66996758  0.83228850  1
  In  In31  1  0.33716073  0.84441456  0.82076268  1
  In  In32  1  0.16794469  0.00748284  0.50343127  1
  In  In33  1  0.67001538  0.86319008  0.77814792  1
  In  In34  1  0.48640929  0.65761628  0.20232629  1
  In  In35  1  -0.01295883  0.17314972  0.16966121  1
  In  In36  1  0.34538949  0.17735619  0.49335909  1
  In  In37  1  0.33666773  0.17212036  0.17365496  1
  In  In38  1  0.00743536  0.85451406  0.82795724  1
  In  In39  1  0.84507040  0.64278142  0.19860082  1
  In  In40  1  0.34222094  0.83403353  0.52380738  1
  In  In41  1  0.32229310  0.82608428  0.17165588  1
  In  In42  1  0.03103224  0.51007476  0.16006303  1
  In  In43  1  0.65079897  0.33332632  0.33025173  1
  In  In44  1  0.18128071  0.32549999  0.84133436  1
  In  In45  1  0.63143827  0.49159488  0.48966355  1
  In  In46  1  0.32227041  0.66834030  -0.00678607  1
  In  In47  1  0.64946334  0.14610365  0.50495707  1
  In  In48  1  0.86207269  0.63406322  0.81286837  1
  In  In49  1  0.65324854  0.67018356  0.66400023  1
  In  In50  1  0.17588347  0.49923218  -0.00382542  1
  In  In51  1  0.65096057  0.50705103  0.82019620  1
  In  In52  1  0.04201084  0.50510542  0.50884461  1
  In  In53  1  -0.00638964  0.67450340  0.34807347  1
  In  In54  1  0.83875825  0.14456892  0.01100815  1
  In  In55  1  -0.01690806  -0.01386687  0.33485029  1
  In  In56  1  0.81356117  0.31580048  0.18252584  1
  In  In57  1  0.82867957  0.51331209  0.66309415  1
  In  In58  1  0.84450671  0.32649586  0.82772570  1
  In  In59  1  0.82331479  0.31114531  0.50139709  1
  In  In60  1  0.34600430  0.01895347  0.32591590  1
  In  In61  1  0.33665499  0.32839906  0.32064635  1
  In  In62  1  0.16043248  0.65839352  0.18328674  1
  In  In63  1  0.17706035  0.32809229  0.17951509  1
  In  In64  1  0.18751619  0.18223556  -0.00998224  1
  In  In65  1  0.51647435  0.84741799  0.65036846  1
  In  In66  1  0.15794616  0.81921170  0.34492797  1
  In  In67  1  0.17019034  0.16060225  0.66638569  1
  In  In68  1  0.35075847  0.16683086  0.81532851  1
  In  In69  1  0.01666877  0.33703367  0.66082144  1
  In  In70  1  -0.00586595  0.34762468  0.36175908  1
  In  In71  1  0.47320131  0.18534101  0.00469447  1
  Te  Te72  1  0.09233328  0.09524583  0.09037558  1
  Te  Te73  1  0.07457520  0.08458924  0.41227216  1
  Te  Te74  1  0.08482504  0.08302487  0.75814807  1
  Te  Te75  1  0.08925776  0.39975529  0.07411081  1
  Te  Te76  1  0.11313605  0.40782676  0.42448935  1
  Te  Te77  1  0.10209840  0.42569553  0.74664740  1
  Te  Te78  1  0.10480422  0.76350299  0.09540537  1
  Te  Te79  1  0.06629923  0.76027646  0.44767576  1
  Te  Te80  1  0.08165595  0.75118155  0.74253879  1
  Te  Te81  1  0.41355191  0.07046783  0.08865318  1
  Te  Te82  1  0.43734264  0.08885952  0.41603047  1
  Te  Te83  1  0.46128335  0.08568121  0.75152113  1
  Te  Te84  1  0.38352169  0.39039367  0.12245227  1
  Te  Te85  1  0.39256736  0.41448313  0.43704719  1
  Te  Te86  1  0.41047886  0.44801235  0.73671402  1
  Te  Te87  1  0.43230090  0.74448091  0.08279189  1
  Te  Te88  1  0.40970975  0.75946934  0.40888492  1
  Te  Te89  1  0.41677008  0.74486165  0.72672263  1
  Te  Te90  1  0.71604070  0.09276350  0.08356213  1
  Te  Te91  1  0.72381772  0.06128164  0.40706347  1
  Te  Te92  1  0.72682688  0.09611074  0.76138163  1
  Te  Te93  1  0.74181125  0.42426222  0.08994927  1
  Te  Te94  1  0.75773791  0.41792463  0.41142437  1
  Te  Te95  1  0.74848874  0.41388384  0.74700077  1
  Te  Te96  1  0.76504242  0.74095899  0.08967855  1
  Te  Te97  1  0.73826564  0.71260960  0.42199094  1
  Te  Te98  1  0.76164707  0.74081658  0.74538624  1
  Te  Te99  1  0.07324646  0.25535946  0.26385112  1
  Te  Te100  1  0.10462166  0.25725558  0.56589579  1
  Te  Te101  1  0.08031972  0.24287253  0.91006565  1
  Te  Te102  1  0.08839571  0.57133512  0.28635566  1
  Te  Te103  1  0.13156087  0.58696839  0.59521428  1
  Te  Te104  1  0.08348324  0.58606833  0.90037021  1
  Te  Te105  1  0.09498429  0.92089717  0.25130655  1
  Te  Te106  1  0.08363156  0.91435764  0.58736278  1
  Te  Te107  1  0.10405710  0.91837225  0.91742829  1
  Te  Te108  1  0.43983129  0.24338951  0.25283721  1
  Te  Te109  1  0.39660779  0.25627187  0.61102971  1
  Te  Te110  1  0.40574216  0.27972408  0.90500275  1
  Te  Te111  1  0.40142054  0.56046833  0.27727433  1
  Te  Te112  1  0.40092043  0.54236969  0.57242764  1
  Te  Te113  1  0.43366263  0.58065735  0.93699492  1
  Te  Te114  1  0.42855360  0.91382626  0.24265674  1
  Te  Te115  1  0.43560778  0.93902264  0.56709815  1
  Te  Te116  1  0.39975956  0.94369334  0.91340606  1
  Te  Te117  1  0.72379170  0.22554218  0.25637153  1
  Te  Te118  1  0.71851421  0.25527506  0.59341156  1
  Te  Te119  1  0.75837111  0.24807482  0.92576018  1
  Te  Te120  1  0.72846413  0.61488128  0.29848503  1
  Te  Te121  1  0.73402043  0.58336833  0.56728970  1
  Te  Te122  1  0.74058652  0.59300160  0.91223762  1
  Te  Te123  1  0.76174411  0.89269895  0.26126566  1
  Te  Te124  1  0.72090667  0.90641475  0.56259063  1
  Te  Te125  1  0.74375948  0.92828952  0.91786920  1
  Te  Te126  1  0.28246183  0.28050506  0.07561760  1
  Te  Te127  1  0.24716216  0.25388860  0.41374407  1
  Te  Te128  1  0.26295760  0.26640835  0.72662545  1
  Te  Te129  1  0.25927934  0.57764893  0.09759704  1
  Te  Te130  1  0.30179649  0.53197054  0.38674319  1
  Te  Te131  1  0.29398009  0.54236626  0.78479874  1
  Te  Te132  1  0.26010000  0.91127521  0.06935799  1
  Te  Te133  1  0.25841283  0.91987431  0.41243553  1
  Te  Te134  1  0.25534869  0.92662474  0.72968253  1
  Te  Te135  1  0.55847176  0.25056068  0.10871889  1
  Te  Te136  1  0.56761691  0.25009748  0.42662182  1
  Te  Te137  1  0.59299087  0.23266569  0.77865837  1
  Te  Te138  1  0.57997118  0.57316321  0.10650438  1
  Te  Te139  1  0.54048566  0.55338874  0.38879367  1
  Te  Te140  1  0.55172220  0.57307008  0.72457074  1
  Te  Te141  1  0.58301732  0.91564305  0.08114438  1
  Te  Te142  1  0.62683534  0.93795395  0.43564223  1
  Te  Te143  1  0.54221010  0.94943297  0.76929952  1
  Te  Te144  1  0.90987404  0.26420313  0.07468708  1
  Te  Te145  1  0.90248726  0.23060305  0.40182340  1
  Te  Te146  1  0.92442338  0.23834819  0.73257729  1
  Te  Te147  1  0.91817907  0.57897606  0.07098794  1
  Te  Te148  1  0.92194816  0.58217832  0.44940562  1
  Te  Te149  1  0.94630618  0.61123454  0.68414915  1
  Te  Te150  1  0.93134831  0.92384627  0.09500302  1
  Te  Te151  1  0.91563321  0.90933716  0.44139236  1
  Te  Te152  1  0.90286196  0.90298126  0.72261072  1
  Te  Te153  1  0.23623875  0.10782881  0.26881283  1
  Te  Te154  1  0.27018425  0.07516644  0.59038519  1
  Te  Te155  1  0.26505283  0.08855216  0.90785677  1
  Te  Te156  1  0.24818269  0.43565985  0.25665202  1
  Te  Te157  1  0.25258387  0.49895217  0.60771046  1
  Te  Te158  1  0.27092517  0.41749055  0.91840814  1
  Te  Te159  1  0.26063450  0.73148110  0.27386561  1
  Te  Te160  1  0.24283369  0.72061204  0.54781199  1
  Te  Te161  1  0.24020194  0.75065806  0.89817591  1
  Te  Te162  1  0.62489811  0.07549912  0.28483322  1
  Te  Te163  1  0.54709483  0.09706963  0.60438738  1
  Te  Te164  1  0.56596148  0.13251457  0.89347829  1
  Te  Te165  1  0.55722501  0.41813935  0.25231204  1
  Te  Te166  1  0.59068272  0.41094933  0.60547758  1
  Te  Te167  1  0.57930007  0.42402190  0.92627710  1
  Te  Te168  1  0.57564195  0.75337701  0.27977311  1
  Te  Te169  1  0.57614788  0.74296358  0.55515143  1
  Te  Te170  1  0.59847860  0.77012867  0.89561855  1
  Te  Te171  1  0.89579248  0.08142130  0.24964869  1
  Te  Te172  1  0.88921298  0.06580537  0.56094876  1
  Te  Te173  1  0.92411261  0.08903964  0.89684111  1
  Te  Te174  1  0.92146890  0.42008751  0.23575374  1
  Te  Te175  1  0.91462496  0.41147630  0.57464455  1
  Te  Te176  1  0.94036211  0.41322041  0.90844326  1
  Te  Te177  1  0.92835405  0.75996553  0.24304199  1
  Te  Te178  1  0.93898812  0.73176427  0.55563738  1
  Te  Te179  1  0.91725836  0.75013457  0.91270071  1
