# generated using pymatgen
data_In2Te3
_symmetry_space_group_name_H-M   'P 1'
_cell_length_a   19.04560901
_cell_length_b   19.04060083
_cell_length_c   19.05211184
_cell_angle_alpha   89.85855784
_cell_angle_beta   89.74650224
_cell_angle_gamma   90.21075701
_symmetry_Int_Tables_number   1
_chemical_formula_structural   In2Te3
_chemical_formula_sum   'In72 Te108'
_cell_volume   6908.91907220
_cell_formula_units_Z   36
loop_
 _symmetry_equiv_pos_site_id
 _symmetry_equiv_pos_as_xyz
  1  'x, y, z'
loop_
 _atom_site_type_symbol
 _atom_site_label
 _atom_site_symmetry_multiplicity
 _atom_site_fract_x
 _atom_site_fract_y
 _atom_site_fract_z
 _atom_site_occupancy
  In  In0  1  0.86131109  0.83262390  0.71018678  1
  In  In1  1  0.16065989  0.32569593  0.81417022  1
  In  In2  1  0.32957415  -0.00324024  0.68946583  1
  In  In3  1  0.64959885  0.32619996  0.30959534  1
  In  In4  1  -0.01928316  0.36473078  -0.02860441  1
  In  In5  1  0.32345605  0.65048408  0.64930716  1
  In  In6  1  0.35119563  0.31891543  0.67013161  1
  In  In7  1  0.50941895  0.84499118  0.69930516  1
  In  In8  1  0.68742681  0.50972070  0.47095685  1
  In  In9  1  0.13829061  0.49090220  0.31232623  1
  In  In10  1  0.69978974  0.00777479  0.71249106  1
  In  In11  1  0.48991671  -0.01316396  0.52774026  1
  In  In12  1  0.09870118  0.71666577  0.90618907  1
  In  In13  1  0.64563932  0.04287894  -0.00904876  1
  In  In14  1  0.81939741  0.65045215  0.14281354  1
  In  In15  1  0.88328337  0.82965136  0.35221820  1
  In  In16  1  0.32293027  0.48621077  0.46899118  1
  In  In17  1  0.30658720  0.83988666  0.47553902  1
  In  In18  1  -0.01295799  0.16000265  0.15929313  1
  In  In19  1  0.33621085  0.02153245  0.33981402  1
  In  In20  1  0.50198499  0.68613044  0.53313788  1
  In  In21  1  -0.02659799  0.32462116  0.33335241  1
  In  In22  1  0.48500324  0.82932981  0.34872411  1
  In  In23  1  0.54065334  0.51855932  0.66776136  1
  In  In24  1  0.85872997  0.66178806  0.50337092  1
  In  In25  1  0.16405480  0.52710791  -0.01912367  1
  In  In26  1  0.18301396  0.17127596  0.31621066  1
  In  In27  1  -0.00747908  0.52878567  0.16168695  1
  In  In28  1  0.00610833  0.15436754  0.82300583  1
  In  In29  1  0.83401259  0.00668820  0.15638918  1
  In  In30  1  0.83208649  0.34778666  0.13874699  1
  In  In31  1  0.31445680  -0.00122118  0.00192116  1
  In  In32  1  0.83235833  0.12900155  -0.05698108  1
  In  In33  1  0.50155924  0.05161291  0.15357749  1
  In  In34  1  -0.00002678  0.67943974  0.34156850  1
  In  In35  1  0.81630649  0.33180611  0.51490424  1
  In  In36  1  0.17599664  0.83206122  0.66184591  1
  In  In37  1  0.66780458  0.16382871  0.53251833  1
  In  In38  1  0.15497550  0.00469344  0.48445619  1
  In  In39  1  0.53020995  0.31447921  0.86049092  1
  In  In40  1  0.49543488  0.33778429  0.50608053  1
  In  In41  1  0.49403965  0.17798870  0.27868131  1
  In  In42  1  0.17961408  0.33937864  0.14822491  1
  In  In43  1  0.65796907  0.86916684  0.17178842  1
  In  In44  1  0.33400045  0.16853802  0.48312274  1
  In  In45  1  0.34562481  0.50149846  0.13951215  1
  In  In46  1  0.65775942  -0.02435454  0.36117604  1
  In  In47  1  0.83486554  0.50000378  0.67185877  1
  In  In48  1  0.67290633  0.48233949  0.12889971  1
  In  In49  1  0.66599286  0.32887337  0.69711041  1
  In  In50  1  0.83741267  -0.02656268  0.53304431  1
  In  In51  1  0.34527799  0.16247417  0.85274054  1
  In  In52  1  0.35712822  0.68496435  0.00285867  1
  In  In53  1  -0.00729652  -0.00222637  0.67864718  1
  In  In54  1  0.16565923  0.16777151  0.02165905  1
  In  In55  1  0.51386888  0.64995689  0.82894343  1
  In  In56  1  0.00328545  0.66147831  0.67164858  1
  In  In57  1  0.15935992  0.73849943  0.13393300  1
  In  In58  1  0.69471052  0.83202886  0.84306895  1
  In  In59  1  0.70615839  0.69164423  0.31789178  1
  In  In60  1  0.68995171  0.66286448  -0.02484562  1
  In  In61  1  0.14607818  0.49282181  0.65135233  1
  In  In62  1  0.31999637  0.47716677  0.80261013  1
  In  In63  1  0.34820771  0.85129628  0.14892151  1
  In  In64  1  0.52926245  0.51581296  0.31931705  1
  In  In65  1  0.82656885  0.17048071  0.33821543  1
  In  In66  1  0.51017965  0.50840135  -0.01070228  1
  In  In67  1  0.16069843  0.30707069  0.49240380  1
  In  In68  1  0.84709492  0.85111393  0.00940778  1
  In  In69  1  -0.00271781  0.32192247  0.66323045  1
  In  In70  1  0.33592551  0.84174339  0.83647616  1
  In  In71  1  0.31194376  0.64392811  0.31046085  1
  Te  Te72  1  0.08711083  0.07295411  0.10112741  1
  Te  Te73  1  0.09182107  0.11961012  0.41842435  1
  Te  Te74  1  0.09185817  0.10238497  0.71487721  1
  Te  Te75  1  0.07857400  0.43026164  0.07910563  1
  Te  Te76  1  0.07221354  0.40367547  0.41829565  1
  Te  Te77  1  0.06284953  0.42537620  0.75785030  1
  Te  Te78  1  0.03379837  0.71817633  0.05160713  1
  Te  Te79  1  0.08534626  0.77346858  0.41180808  1
  Te  Te80  1  0.08792330  0.75402690  0.75480270  1
  Te  Te81  1  0.42104900  0.09808581  0.03876777  1
  Te  Te82  1  0.44976192  0.08407078  0.41903539  1
  Te  Te83  1  0.42399681  0.06458375  0.77553632  1
  Te  Te84  1  0.42139645  0.41065665  0.05484976  1
  Te  Te85  1  0.43443629  0.41827178  0.39354947  1
  Te  Te86  1  0.44323646  0.41939244  0.73505041  1
  Te  Te87  1  0.44381553  0.75729703  0.09252836  1
  Te  Te88  1  0.39833773  0.72454506  0.41936150  1
  Te  Te89  1  0.40711314  0.73096402  0.74740348  1
  Te  Te90  1  0.75382627  0.10501971  0.07682781  1
  Te  Te91  1  0.74798343  0.07742964  0.43586934  1
  Te  Te92  1  0.77032513  0.10104004  0.80308608  1
  Te  Te93  1  0.70738179  0.35732288  0.06285490  1
  Te  Te94  1  0.75442690  0.40041290  0.39470663  1
  Te  Te95  1  0.77701822  0.39887479  0.76603607  1
  Te  Te96  1  0.73251208  0.76707452  0.08600650  1
  Te  Te97  1  0.76661597  0.76158315  0.43182044  1
  Te  Te98  1  0.77714184  0.72920062  0.77692942  1
  Te  Te99  1  0.07616233  0.26510713  0.23866318  1
  Te  Te100  1  0.09703020  0.23075638  0.60088742  1
  Te  Te101  1  0.08399980  0.25970663  0.92922605  1
  Te  Te102  1  0.09789601  0.61151566  0.23073993  1
  Te  Te103  1  0.07245600  0.58464415  0.56760436  1
  Te  Te104  1  0.06096528  0.57457070  0.89184789  1
  Te  Te105  1  0.02886126  0.84225829  0.29694036  1
  Te  Te106  1  0.08141285  0.91536009  0.58108166  1
  Te  Te107  1  0.03908080  0.84397150  0.96348619  1
  Te  Te108  1  0.39544109  0.25510749  0.20534137  1
  Te  Te109  1  0.43205369  0.22424539  0.58519630  1
  Te  Te110  1  0.39780081  0.28518614  0.91481058  1
  Te  Te111  1  0.42970721  0.59081347  0.23306409  1
  Te  Te112  1  0.41823521  0.55724900  0.57327883  1
  Te  Te113  1  0.39733160  0.57191921  0.89980606  1
  Te  Te114  1  0.43017091  0.93369216  0.25628708  1
  Te  Te115  1  0.39666589  0.88555640  0.59436511  1
  Te  Te116  1  0.41564798  0.93341577  0.91523442  1
  Te  Te117  1  0.75502122  0.24964855  0.23365500  1
  Te  Te118  1  0.76321235  0.23776234  0.62093672  1
  Te  Te119  1  0.72967397  0.22505553  0.89124554  1
  Te  Te120  1  0.73753470  0.56797901  0.24197519  1
  Te  Te121  1  0.74918666  0.58888299  0.58126320  1
  Te  Te122  1  0.78087545  0.55127648  0.94224089  1
  Te  Te123  1  0.76407007  0.91791631  0.26796488  1
  Te  Te124  1  0.74851134  0.89477996  0.62551774  1
  Te  Te125  1  0.74475437  0.93496532  0.93944146  1
  Te  Te126  1  0.27467476  0.24313740  0.09037174  1
  Te  Te127  1  0.27067964  0.27067678  0.39508379  1
  Te  Te128  1  0.25574972  0.23157119  0.74456410  1
  Te  Te129  1  0.24746943  0.60444155  0.08183683  1
  Te  Te130  1  0.22041484  0.57751932  0.41191996  1
  Te  Te131  1  0.22877410  0.58212825  0.74501553  1
  Te  Te132  1  0.23011626  0.90335148  0.07971224  1
  Te  Te133  1  0.22772863  0.92277426  0.37864485  1
  Te  Te134  1  0.22615559  0.92313622  0.77188160  1
  Te  Te135  1  0.52042687  0.20618773  0.12833670  1
  Te  Te136  1  0.59516281  0.25019353  0.43115508  1
  Te  Te137  1  0.57289085  0.22699270  0.74976256  1
  Te  Te138  1  0.59372269  0.59919265  0.07513665  1
  Te  Te139  1  0.58529574  0.61160977  0.42427884  1
  Te  Te140  1  0.62416103  0.56565726  0.77824767  1
  Te  Te141  1  0.57012791  0.93908068  0.07341146  1
  Te  Te142  1  0.57775499  0.88616077  0.45437381  1
  Te  Te143  1  0.59068778  0.93166645  0.78930479  1
  Te  Te144  1  0.92167646  0.25359325  0.06107909  1
  Te  Te145  1  0.91225913  0.23871710  0.44212415  1
  Te  Te146  1  0.92111858  0.26094562  0.77224468  1
  Te  Te147  1  0.88771811  0.54988687  0.05596547  1
  Te  Te148  1  0.90673138  0.58017725  0.39337183  1
  Te  Te149  1  0.89275440  0.60724185  0.75543627  1
  Te  Te150  1  0.93804046  0.91986669  0.10215745  1
  Te  Te151  1  0.93869618  0.94012878  0.43277976  1
  Te  Te152  1  0.92472311  0.93518952  0.79498181  1
  Te  Te153  1  0.27299223  0.09475491  0.23108067  1
  Te  Te154  1  0.26489090  0.06582240  0.56894542  1
  Te  Te155  1  0.22793839  0.08512939  0.91190509  1
  Te  Te156  1  0.25670179  0.42834931  0.24312600  1
  Te  Te157  1  0.25631133  0.40282220  0.58162988  1
  Te  Te158  1  0.23797985  0.41312002  0.91275250  1
  Te  Te159  1  0.25975421  0.76719659  0.24592890  1
  Te  Te160  1  0.23483707  0.73525522  0.56166317  1
  Te  Te161  1  0.25286540  0.74333329  0.91391492  1
  Te  Te162  1  0.60954454  0.07678024  0.26298354  1
  Te  Te163  1  0.59306560  0.05799411  0.61095125  1
  Te  Te164  1  0.59442528  0.15524126  0.90700877  1
  Te  Te165  1  0.56624703  0.41001879  0.21860937  1
  Te  Te166  1  0.60853676  0.41609463  0.57384628  1
  Te  Te167  1  0.60120192  0.43989698  0.89470364  1
  Te  Te168  1  0.58792293  0.76293735  0.25789734  1
  Te  Te169  1  0.58936970  0.74163571  0.63353580  1
  Te  Te170  1  0.58148797  0.75245117  0.91324120  1
  Te  Te171  1  0.91890020  0.07674845  0.26561791  1
  Te  Te172  1  0.89792072  0.08245725  0.60621154  1
  Te  Te173  1  0.95615981  0.05214672  0.91786507  1
  Te  Te174  1  0.91140776  0.42738780  0.24136190  1
  Te  Te175  1  0.92050732  0.42181981  0.57557444  1
  Te  Te176  1  0.86236646  0.42216751  0.90692123  1
  Te  Te177  1  0.90396677  0.73829667  0.22780688  1
  Te  Te178  1  0.92703077  0.76363821  0.58961726  1
  Te  Te179  1  0.92100699  0.74858398  0.93371780  1
