# generated using pymatgen
data_In2Te3
_symmetry_space_group_name_H-M   'P 1'
_cell_length_a   18.94362689
_cell_length_b   18.92474662
_cell_length_c   18.93400650
_cell_angle_alpha   89.93136898
_cell_angle_beta   89.92616540
_cell_angle_gamma   89.97470535
_symmetry_Int_Tables_number   1
_chemical_formula_structural   In2Te3
_chemical_formula_sum   'In72 Te108'
_cell_volume   6787.89338940
_cell_formula_units_Z   36
loop_
 _symmetry_equiv_pos_site_id
 _symmetry_equiv_pos_as_xyz
  1  'x, y, z'
loop_
 _atom_site_type_symbol
 _atom_site_label
 _atom_site_symmetry_multiplicity
 _atom_site_fract_x
 _atom_site_fract_y
 _atom_site_fract_z
 _atom_site_occupancy
  In  In0  1  0.82004884  0.17095374  -0.01403410  1
  In  In1  1  -0.00186531  0.34220325  0.32909961  1
  In  In2  1  0.02416487  0.52862858  0.19688156  1
  In  In3  1  0.79667145  0.17014953  0.32953796  1
  In  In4  1  0.82343117  0.68505530  0.17093700  1
  In  In5  1  0.84644130  0.65605716  0.84567119  1
  In  In6  1  0.17411508  0.32387551  0.84182504  1
  In  In7  1  0.34224886  0.33070797  -0.01491362  1
  In  In8  1  0.68283344  0.45748990  0.81086944  1
  In  In9  1  0.36787199  0.64761453  0.67844766  1
  In  In10  1  0.83162019  0.33399952  0.51942141  1
  In  In11  1  0.64518035  0.19352469  0.49834456  1
  In  In12  1  0.81626477  0.63841611  0.50729418  1
  In  In13  1  -0.00610008  0.69673424  0.00658692  1
  In  In14  1  0.35160495  0.16070941  0.14477808  1
  In  In15  1  0.17461831  0.65597780  0.87634067  1
  In  In16  1  0.34871008  0.49252853  0.84327921  1
  In  In17  1  0.35814506  0.14056725  0.48556010  1
  In  In18  1  0.65566558  0.18129096  0.85039153  1
  In  In19  1  0.00481173  0.66000181  0.67495585  1
  In  In20  1  0.83639271  0.00781643  0.16381512  1
  In  In21  1  0.29946344  0.81826202  0.46001872  1
  In  In22  1  0.82000050  -0.00666515  0.84471087  1
  In  In23  1  0.66381706  0.64863070  0.66949408  1
  In  In24  1  0.49643228  -0.01202732  0.44330980  1
  In  In25  1  -0.00042175  -0.01897594  0.01134579  1
  In  In26  1  -0.01893149  0.20523440  0.81084731  1
  In  In27  1  0.66653703  0.84314346  0.87606759  1
  In  In28  1  0.79411725  0.31992248  0.17919840  1
  In  In29  1  0.15907792  0.35417716  0.47261764  1
  In  In30  1  0.50846607  0.17657587  0.65851995  1
  In  In31  1  0.33024440  0.82651206  0.80612097  1
  In  In32  1  0.30821259  -0.03779232  0.03806225  1
  In  In33  1  -0.00633611  0.17106247  0.17685994  1
  In  In34  1  0.35296882  0.67846297  0.03857991  1
  In  In35  1  0.16669159  0.49464778  0.65814109  1
  In  In36  1  0.33228193  -0.00821162  0.65757113  1
  In  In37  1  0.30880567  0.50217417  0.16566123  1
  In  In38  1  0.83679466  0.81979687  0.67418935  1
  In  In39  1  0.32051728  0.17025808  0.85213622  1
  In  In40  1  0.51267587  0.00669685  0.84012189  1
  In  In41  1  0.52927392  0.31993902  0.13653093  1
  In  In42  1  0.00018114  0.36908528  0.02217482  1
  In  In43  1  0.31816388  0.66038847  0.30910053  1
  In  In44  1  0.16101757  -0.01586206  0.48898262  1
  In  In45  1  0.82827057  0.49218493  0.34488756  1
  In  In46  1  0.52803099  0.52191243  0.02391623  1
  In  In47  1  0.66720157  0.83135061  0.49451934  1
  In  In48  1  0.16777464  0.16789617  0.02542675  1
  In  In49  1  0.48998274  0.65725775  0.48198791  1
  In  In50  1  0.50720660  0.84805185  0.01191563  1
  In  In51  1  0.48402448  0.85074758  0.67000065  1
  In  In52  1  0.20180239  0.65771347  0.48691082  1
  In  In53  1  0.50151282  0.48292186  0.31511697  1
  In  In54  1  0.65269560  0.00704752  0.30222965  1
  In  In55  1  0.81230539  0.50095068  0.01899643  1
  In  In56  1  0.53100220  0.45321886  0.64078281  1
  In  In57  1  0.00362248  0.16936511  0.50969379  1
  In  In58  1  0.18959573  0.15408768  0.31243466  1
  In  In59  1  0.67009113  0.83245314  0.15412664  1
  In  In60  1  0.66824392  0.67239645  0.31391271  1
  In  In61  1  0.15387246  0.83166889  0.65396540  1
  In  In62  1  0.67726338  0.03201221  0.66663261  1
  In  In63  1  -0.00159500  0.84743837  0.85076711  1
  In  In64  1  0.49694310  0.32536510  0.82929070  1
  In  In65  1  0.03517127  0.83047374  0.48455248  1
  In  In66  1  0.16643570  0.84179798  0.32293099  1
  In  In67  1  0.15266164  0.18747272  0.66835037  1
  In  In68  1  0.85899309  0.00880324  0.48798030  1
  In  In69  1  -0.02893284  0.50322016  0.81504793  1
  In  In70  1  0.33955140  0.34043846  0.32078840  1
  In  In71  1  0.00330290  0.81841093  0.18873987  1
  Te  Te72  1  0.08143516  0.07088240  0.10430453  1
  Te  Te73  1  0.08618811  0.09078068  0.41077153  1
  Te  Te74  1  0.08109955  0.10744767  0.76753124  1
  Te  Te75  1  0.09629343  0.43253630  0.11082113  1
  Te  Te76  1  0.05732246  0.44558590  0.41647274  1
  Te  Te77  1  0.08571688  0.41799976  0.76095925  1
  Te  Te78  1  0.09999338  0.75660110  0.09138990  1
  Te  Te79  1  0.09459843  0.71697554  0.39122220  1
  Te  Te80  1  0.08856972  0.74447105  0.76858632  1
  Te  Te81  1  0.41954107  0.05047422  0.07225433  1
  Te  Te82  1  0.43882374  0.10672469  0.36271839  1
  Te  Te83  1  0.41099910  0.08516415  0.74835190  1
  Te  Te84  1  0.42089125  0.42099020  0.07919661  1
  Te  Te85  1  0.42135968  0.41523986  0.41947216  1
  Te  Te86  1  0.41374832  0.40980717  0.73618563  1
  Te  Te87  1  0.42797904  0.77891748  0.11791558  1
  Te  Te88  1  0.41686061  0.74939510  0.38896063  1
  Te  Te89  1  0.44961168  0.73849951  0.76755164  1
  Te  Te90  1  0.74768873  0.11451031  0.10561011  1
  Te  Te91  1  0.72730144  0.06791071  0.42135109  1
  Te  Te92  1  0.76211823  0.10809753  0.76391019  1
  Te  Te93  1  0.72649818  0.39095185  0.06827729  1
  Te  Te94  1  0.74102148  0.39964365  0.42271354  1
  Te  Te95  1  0.78298037  0.40118618  0.71613424  1
  Te  Te96  1  0.72445619  0.72216803  0.06480253  1
  Te  Te97  1  0.76026172  0.74419049  0.41343865  1
  Te  Te98  1  0.73538790  0.74842382  0.76233291  1
  Te  Te99  1  0.09562850  0.25756463  0.24774462  1
  Te  Te100  1  0.07407841  0.28211072  0.58110088  1
  Te  Te101  1  0.07664453  0.25512709  0.93661269  1
  Te  Te102  1  0.11193323  0.60568185  0.28295755  1
  Te  Te103  1  0.08907414  0.59077826  0.57124353  1
  Te  Te104  1  0.05359619  0.58227636  0.92195993  1
  Te  Te105  1  0.05734920  0.92747909  0.27378679  1
  Te  Te106  1  0.06356938  0.93700816  0.59528814  1
  Te  Te107  1  0.10096771  0.91434292  0.92901156  1
  Te  Te108  1  0.43133046  0.25575041  0.23486265  1
  Te  Te109  1  0.40842275  0.24804547  0.57601354  1
  Te  Te110  1  0.43873498  0.22665385  0.92965506  1
  Te  Te111  1  0.42193332  0.58034502  0.23015270  1
  Te  Te112  1  0.43025264  0.55590080  0.57785112  1
  Te  Te113  1  0.42324670  0.58716113  0.93251223  1
  Te  Te114  1  0.44862254  0.96546421  0.30292259  1
  Te  Te115  1  0.40356792  0.90518704  0.55294076  1
  Te  Te116  1  0.40843177  0.91701489  0.90337481  1
  Te  Te117  1  0.69914881  0.27198111  0.28332575  1
  Te  Te118  1  0.76829618  0.21250663  0.57778248  1
  Te  Te119  1  0.74799558  0.27756521  0.91460203  1
  Te  Te120  1  0.74974411  0.56889613  0.23962960  1
  Te  Te121  1  0.71102706  0.55592384  0.56659434  1
  Te  Te122  1  0.73819625  0.57071002  0.90479320  1
  Te  Te123  1  0.75957204  0.91013739  0.25203012  1
  Te  Te124  1  0.75521727  0.91672217  0.58716998  1
  Te  Te125  1  0.73413341  0.94621922  0.95578090  1
  Te  Te126  1  0.25434201  0.27099820  0.09278910  1
  Te  Te127  1  0.25746855  0.24087077  0.41792394  1
  Te  Te128  1  0.26643092  0.25941065  0.74173617  1
  Te  Te129  1  0.23627000  0.60211695  0.08605456  1
  Te  Te130  1  0.27585574  0.55708489  0.40822220  1
  Te  Te131  1  0.25044059  0.58942854  0.75992226  1
  Te  Te132  1  0.21882909  0.87119859  0.11155688  1
  Te  Te133  1  0.26445269  0.94605849  0.38655444  1
  Te  Te134  1  0.22997307  0.92657861  0.74902664  1
  Te  Te135  1  0.61193716  0.20262994  0.09737794  1
  Te  Te136  1  0.53000632  0.27502442  0.45393494  1
  Te  Te137  1  0.60175544  0.26689659  0.73480088  1
  Te  Te138  1  0.60550095  0.62477654  0.09644870  1
  Te  Te139  1  0.59150432  0.57809126  0.40547052  1
  Te  Te140  1  0.57789440  0.55169861  0.74884571  1
  Te  Te141  1  0.57978289  0.94058107  0.10598067  1
  Te  Te142  1  0.58826051  0.88272938  0.37728929  1
  Te  Te143  1  0.59820840  0.91899385  0.74546776  1
  Te  Te144  1  0.91246939  0.25663723  0.08220690  1
  Te  Te145  1  0.90994712  0.24641666  0.40779344  1
  Te  Te146  1  0.90655259  0.30200534  0.72925553  1
  Te  Te147  1  0.92093773  0.58897053  0.08732866  1
  Te  Te148  1  0.92062782  0.56379772  0.43498103  1
  Te  Te149  1  0.88259690  0.58184479  0.71799316  1
  Te  Te150  1  0.90580041  0.89453251  0.09164431  1
  Te  Te151  1  0.93184735  0.90758130  0.41073361  1
  Te  Te152  1  0.91673857  0.92502276  0.74875487  1
  Te  Te153  1  0.25892113  0.06835959  0.21644475  1
  Te  Te154  1  0.23884216  0.08483747  0.58061819  1
  Te  Te155  1  0.24811503  0.07248027  0.93993807  1
  Te  Te156  1  0.23702269  0.44012848  0.27995062  1
  Te  Te157  1  0.25081830  0.41587858  0.56954862  1
  Te  Te158  1  0.23980309  0.42996133  0.92834035  1
  Te  Te159  1  0.26845500  0.78361323  0.23105689  1
  Te  Te160  1  0.27085993  0.74652534  0.60038939  1
  Te  Te161  1  0.27201796  0.75621239  0.92743464  1
  Te  Te162  1  0.58410888  0.08654056  0.19812649  1
  Te  Te163  1  0.56131108  0.05952368  0.57303436  1
  Te  Te164  1  0.61010329  0.06586687  0.93310365  1
  Te  Te165  1  0.60012216  0.41262168  0.22969771  1
  Te  Te166  1  0.60835466  0.36535326  0.54635572  1
  Te  Te167  1  0.57599585  0.42027987  0.91641795  1
  Te  Te168  1  0.57197422  0.73129955  0.21352384  1
  Te  Te169  1  0.57307673  0.74967172  0.58361982  1
  Te  Te170  1  0.57198758  0.74484704  0.92783426  1
  Te  Te171  1  0.91065454  0.08626926  0.27076143  1
  Te  Te172  1  0.90530567  0.09861920  0.59507999  1
  Te  Te173  1  0.92713898  0.08408372  0.92064342  1
  Te  Te174  1  0.90624081  0.41329616  0.23063537  1
  Te  Te175  1  0.90990867  0.41495165  0.61709635  1
  Te  Te176  1  0.90057504  0.41924680  0.91974358  1
  Te  Te177  1  0.92034722  0.72829886  0.27033706  1
  Te  Te178  1  0.93317140  0.75448650  0.57680275  1
  Te  Te179  1  0.88891889  0.77491266  0.92707772  1
