# generated using pymatgen
data_In2Te3
_symmetry_space_group_name_H-M   'P 1'
_cell_length_a   18.90522085
_cell_length_b   18.90410646
_cell_length_c   18.90952893
_cell_angle_alpha   90.02576219
_cell_angle_beta   89.86910858
_cell_angle_gamma   89.98018473
_symmetry_Int_Tables_number   1
_chemical_formula_structural   In2Te3
_chemical_formula_sum   'In72 Te108'
_cell_volume   6757.98800061
_cell_formula_units_Z   36
loop_
 _symmetry_equiv_pos_site_id
 _symmetry_equiv_pos_as_xyz
  1  'x, y, z'
loop_
 _atom_site_type_symbol
 _atom_site_label
 _atom_site_symmetry_multiplicity
 _atom_site_fract_x
 _atom_site_fract_y
 _atom_site_fract_z
 _atom_site_occupancy
  In  In0  1  0.00452926  0.51482854  0.51960692  1
  In  In1  1  0.48491533  0.82472294  0.32017580  1
  In  In2  1  0.83773698  0.32469380  0.82291862  1
  In  In3  1  0.19403396  0.35040531  0.49397622  1
  In  In4  1  0.64342454  0.83522415  0.17542828  1
  In  In5  1  0.83491978  0.49562575  -0.02000873  1
  In  In6  1  0.84767734  0.65569008  0.18549313  1
  In  In7  1  0.16806973  0.81554495  0.67840758  1
  In  In8  1  0.32396393  0.63744342  0.69530338  1
  In  In9  1  0.00819856  0.17253133  0.85040424  1
  In  In10  1  0.82829723  0.67359065  0.48700095  1
  In  In11  1  0.66854135  0.81594478  0.50298649  1
  In  In12  1  0.32957986  0.34371159  -0.04159717  1
  In  In13  1  0.81555476  0.34229004  0.49413294  1
  In  In14  1  0.02273237  0.84460165  0.83215553  1
  In  In15  1  0.33250850  0.67175995  0.32767927  1
  In  In16  1  0.19187585  0.65322141  0.13366281  1
  In  In17  1  0.47117961  -0.03128877  0.86208669  1
  In  In18  1  0.48716223  0.16963564  0.67961632  1
  In  In19  1  0.21760455  0.80994950  -0.00824665  1
  In  In20  1  0.46446689  0.67966617  0.14126588  1
  In  In21  1  0.82543782  0.32360273  0.15863135  1
  In  In22  1  0.15163217  0.51644142  0.33402010  1
  In  In23  1  -0.01303937  0.00622241  0.68200241  1
  In  In24  1  0.38950900  0.36862734  0.69155757  1
  In  In25  1  0.33453810  0.15361012  0.16499340  1
  In  In26  1  0.64210343  0.00431602  0.33027088  1
  In  In27  1  0.83640046  0.15189540  -0.02153662  1
  In  In28  1  0.02970214  0.33600202  -0.00854310  1
  In  In29  1  0.48633650  0.63264449  0.81776692  1
  In  In30  1  0.34196888  0.82396636  0.49214324  1
  In  In31  1  0.80727845  0.13011765  0.69908084  1
  In  In32  1  0.81586040  0.47787952  0.32842795  1
  In  In33  1  0.66913814  0.82142749  0.83839721  1
  In  In34  1  0.17207776  0.35116750  0.15373315  1
  In  In35  1  0.48951217  0.50720258  -0.01718465  1
  In  In36  1  0.49244522  -0.01735377  0.16057326  1
  In  In37  1  -0.01581217  0.32205350  0.31001628  1
  In  In38  1  0.50689319  0.16738196  0.34738974  1
  In  In39  1  -0.00190112  -0.01548586  0.32657671  1
  In  In40  1  0.83232007  0.51657093  0.66669927  1
  In  In41  1  0.49620720  0.03319780  0.50569412  1
  In  In42  1  0.20413058  0.19805976  0.67228659  1
  In  In43  1  0.17252653  0.01852124  0.85030764  1
  In  In44  1  0.82431170  0.85021001  0.01605252  1
  In  In45  1  0.02089880  0.65469262  -0.03320847  1
  In  In46  1  0.17203369  0.18712600  0.31339314  1
  In  In47  1  0.82842349  0.67266966  0.82786690  1
  In  In48  1  0.65637226  0.66161786  -0.00765017  1
  In  In49  1  0.03031573  0.65154486  0.68340315  1
  In  In50  1  0.16384829  -0.00014448  0.51105875  1
  In  In51  1  0.83456374  -0.00091863  0.17149720  1
  In  In52  1  0.02982944  0.35194291  0.70377554  1
  In  In53  1  0.32352097  0.00057891  0.67502753  1
  In  In54  1  0.36022831  0.50496636  0.50440932  1
  In  In55  1  0.80195180  0.16653466  0.31342018  1
  In  In56  1  0.15372760  0.14677396  0.01529621  1
  In  In57  1  0.66883303  0.34624825  -0.01318634  1
  In  In58  1  0.01136054  0.67611441  0.32869998  1
  In  In59  1  0.49044414  0.19570627  -0.00743814  1
  In  In60  1  0.32143423  0.33656923  0.32630383  1
  In  In61  1  0.80644269  0.82189070  0.66352968  1
  In  In62  1  -0.01730982  0.81947886  0.48874776  1
  In  In63  1  0.65016282  0.02133665  0.01769015  1
  In  In64  1  0.65934147  0.17310574  0.51094440  1
  In  In65  1  0.13543774  0.83641980  0.33088179  1
  In  In66  1  0.51313451  0.81419998  0.67097726  1
  In  In67  1  0.63615765  0.34962155  0.65428700  1
  In  In68  1  0.51421771  0.35682027  0.15889609  1
  In  In69  1  -0.00887710  0.84020235  0.15840030  1
  In  In70  1  -0.00417485  0.16072599  0.52266047  1
  In  In71  1  0.51506199  0.51532305  0.34175146  1
  Te  Te72  1  0.07428694  0.05104695  0.08761421  1
  Te  Te73  1  0.08155955  0.08876435  0.41613382  1
  Te  Te74  1  0.10366920  0.09066579  0.72990022  1
  Te  Te75  1  0.08467453  0.44508633  0.07756760  1
  Te  Te76  1  0.07829682  0.40064205  0.40353691  1
  Te  Te77  1  0.11926762  0.45673648  0.74617282  1
  Te  Te78  1  0.07912366  0.74864337  0.07461838  1
  Te  Te79  1  0.09725247  0.73420159  0.43890498  1
  Te  Te80  1  0.10980180  0.72629631  0.78942214  1
  Te  Te81  1  0.42121346  0.07983184  0.06560875  1
  Te  Te82  1  0.40754781  0.07059523  0.39642857  1
  Te  Te83  1  0.40592734  0.07698629  0.77385718  1
  Te  Te84  1  0.40575293  0.41591964  0.07258428  1
  Te  Te85  1  0.42607313  0.40694146  0.40939991  1
  Te  Te86  1  0.43915317  0.47889103  0.79156448  1
  Te  Te87  1  0.38411251  0.79555256  0.09027868  1
  Te  Te88  1  0.43619389  0.72498553  0.42545812  1
  Te  Te89  1  0.40474204  0.75334564  0.75822845  1
  Te  Te90  1  0.75122959  0.10167447  0.09680238  1
  Te  Te91  1  0.73956768  0.07959930  0.41926514  1
  Te  Te92  1  0.75558123  0.04772787  0.80536423  1
  Te  Te93  1  0.74576151  0.43276805  0.08486916  1
  Te  Te94  1  0.71384620  0.43589177  0.43566921  1
  Te  Te95  1  0.74755379  0.41658491  0.74348180  1
  Te  Te96  1  0.74517545  0.74324722  0.08923628  1
  Te  Te97  1  0.74422069  0.74928552  0.39535266  1
  Te  Te98  1  0.71796794  0.72005989  0.73470577  1
  Te  Te99  1  0.07588387  0.24800858  0.21364517  1
  Te  Te100  1  0.09345740  0.26387298  0.57955093  1
  Te  Te101  1  0.11970494  0.25578740  0.90061240  1
  Te  Te102  1  0.07755407  0.59003076  0.22493947  1
  Te  Te103  1  0.11621126  0.57700663  0.58914248  1
  Te  Te104  1  0.12569085  0.55080328  0.95850241  1
  Te  Te105  1  0.09760893  0.93440279  0.21685704  1
  Te  Te106  1  0.07508105  0.90604761  0.59429430  1
  Te  Te107  1  0.10858338  0.91047257  0.93602793  1
  Te  Te108  1  0.42016044  0.25773691  0.23989280  1
  Te  Te109  1  0.41597626  0.26205818  0.59153602  1
  Te  Te110  1  0.43764717  0.27779675  0.88162577  1
  Te  Te111  1  0.41235269  0.57711632  0.24134412  1
  Te  Te112  1  0.43206326  0.59537913  0.59829730  1
  Te  Te113  1  0.38111951  0.61704481  0.94379497  1
  Te  Te114  1  0.39496965  0.91466632  0.24798442  1
  Te  Te115  1  0.41867574  0.91692830  0.58888038  1
  Te  Te116  1  0.37826072  0.88970141  0.95216608  1
  Te  Te117  1  0.72992369  0.28374544  0.26551774  1
  Te  Te118  1  0.76107626  0.24706481  0.59968369  1
  Te  Te119  1  0.73971876  0.24007641  0.90083835  1
  Te  Te120  1  0.74323489  0.58226812  0.25524100  1
  Te  Te121  1  0.74389884  0.57642636  0.56297231  1
  Te  Te122  1  0.73377752  0.57289672  0.89632416  1
  Te  Te123  1  0.74285627  0.91432329  0.25822632  1
  Te  Te124  1  0.73339227  0.91983766  0.58461171  1
  Te  Te125  1  0.74329893  0.93621372  0.91922719  1
  Te  Te126  1  0.26231962  0.25682389  0.07600923  1
  Te  Te127  1  0.26506944  0.23523673  0.42417518  1
  Te  Te128  1  0.28741117  0.27857389  0.76136158  1
  Te  Te129  1  0.29527242  0.57507824  0.06568693  1
  Te  Te130  1  0.25419860  0.58234258  0.42312014  1
  Te  Te131  1  0.25373573  0.53195934  0.77711337  1
  Te  Te132  1  0.28265152  0.91462803  0.07517759  1
  Te  Te133  1  0.24133067  0.90968173  0.41625624  1
  Te  Te134  1  0.24627581  0.90983980  0.76685664  1
  Te  Te135  1  0.59758444  0.25311198  0.08347165  1
  Te  Te136  1  0.57249743  0.26333624  0.43596217  1
  Te  Te137  1  0.59574134  0.24403587  0.74743197  1
  Te  Te138  1  0.57229529  0.57994472  0.08739255  1
  Te  Te139  1  0.61176371  0.55369055  0.44811888  1
  Te  Te140  1  0.55664134  0.54277218  0.71581034  1
  Te  Te141  1  0.57369395  0.89628759  0.05798323  1
  Te  Te142  1  0.56090615  0.91471341  0.42122282  1
  Te  Te143  1  0.57706032  0.91675013  0.76293014  1
  Te  Te144  1  0.91819875  0.25360757  0.05827813  1
  Te  Te145  1  0.90981847  0.24446479  0.42024887  1
  Te  Te146  1  0.92820328  0.23150889  0.73550742  1
  Te  Te147  1  0.91510124  0.59563895  0.06088400  1
  Te  Te148  1  0.92218870  0.57013609  0.40483436  1
  Te  Te149  1  0.92973788  0.57507192  0.76865257  1
  Te  Te150  1  0.93196434  0.94760124  0.06475669  1
  Te  Te151  1  0.90688312  0.92628987  0.42558237  1
  Te  Te152  1  0.90572499  0.90005996  0.75339871  1
  Te  Te153  1  0.24630496  0.07669427  0.25300937  1
  Te  Te154  1  0.26416667  0.09546990  0.57344700  1
  Te  Te155  1  0.26361091  0.10146463  0.92849866  1
  Te  Te156  1  0.25196917  0.44291972  0.24470171  1
  Te  Te157  1  0.27419483  0.42048450  0.59755078  1
  Te  Te158  1  0.22913909  0.44267425  0.90998543  1
  Te  Te159  1  0.23065026  0.74861715  0.24653408  1
  Te  Te160  1  0.26313485  0.73832544  0.59007471  1
  Te  Te161  1  0.28106308  0.72119715  0.89308677  1
  Te  Te162  1  0.57505478  0.09403249  0.23121301  1
  Te  Te163  1  0.59411867  0.07741147  0.60939929  1
  Te  Te164  1  0.56245287  0.08374760  0.91275481  1
  Te  Te165  1  0.59880901  0.42461400  0.25765308  1
  Te  Te166  1  0.54158026  0.44742116  0.59351296  1
  Te  Te167  1  0.57504418  0.41966937  0.89893815  1
  Te  Te168  1  0.57187538  0.72438130  0.24711916  1
  Te  Te169  1  0.58251153  0.72381534  0.57967567  1
  Te  Te170  1  0.56076628  0.74070127  0.90782805  1
  Te  Te171  1  0.92058778  0.09533796  0.25156382  1
  Te  Te172  1  0.89208658  0.06727207  0.58154756  1
  Te  Te173  1  0.92350118  0.06349082  0.89670991  1
  Te  Te174  1  0.91933941  0.42592637  0.22352772  1
  Te  Te175  1  0.92053434  0.41012787  0.58967019  1
  Te  Te176  1  0.93427542  0.41388278  0.89903398  1
  Te  Te177  1  0.91018873  0.76992314  0.26553532  1
  Te  Te178  1  0.92377046  0.73344775  0.60274362  1
  Te  Te179  1  0.90933727  0.76486004  0.91945858  1
