# generated using pymatgen
data_In2Te3
_symmetry_space_group_name_H-M   'P 1'
_cell_length_a   18.77938285
_cell_length_b   18.77443504
_cell_length_c   18.77972005
_cell_angle_alpha   89.97386875
_cell_angle_beta   90.03035767
_cell_angle_gamma   90.02999370
_symmetry_Int_Tables_number   1
_chemical_formula_structural   In2Te3
_chemical_formula_sum   'In72 Te108'
_cell_volume   6621.20663236
_cell_formula_units_Z   36
loop_
 _symmetry_equiv_pos_site_id
 _symmetry_equiv_pos_as_xyz
  1  'x, y, z'
loop_
 _atom_site_type_symbol
 _atom_site_label
 _atom_site_symmetry_multiplicity
 _atom_site_fract_x
 _atom_site_fract_y
 _atom_site_fract_z
 _atom_site_occupancy
  In  In0  1  0.67671670  0.80847984  0.16948291  1
  In  In1  1  0.82123621  0.15658770  0.34520460  1
  In  In2  1  0.00581424  0.49988045  0.84588068  1
  In  In3  1  0.84793934  0.51571894  0.01561492  1
  In  In4  1  0.68156206  -0.00575818  0.00259554  1
  In  In5  1  0.84973030  0.33203103  0.83703627  1
  In  In6  1  0.80287840  0.49912889  0.65766429  1
  In  In7  1  0.00087516  0.34356799  0.27808701  1
  In  In8  1  0.49632601  -0.01513805  0.82682612  1
  In  In9  1  0.67472210  0.13288176  0.17042381  1
  In  In10  1  0.64821211  0.00426012  0.35044142  1
  In  In11  1  0.01556383  0.17866523  0.15621823  1
  In  In12  1  0.48398143  0.81468682  0.01189951  1
  In  In13  1  -0.01297415  0.82022276  0.15384858  1
  In  In14  1  0.82700387  0.32906329  0.50643693  1
  In  In15  1  0.64353883  0.34034853  0.33110880  1
  In  In16  1  0.65696966  0.66700646  0.00514041  1
  In  In17  1  -0.00512817  0.68046382  0.67506637  1
  In  In18  1  0.16617971  0.00695195  0.15587374  1
  In  In19  1  -0.00017450  0.66361261  0.30698496  1
  In  In20  1  0.67969384  0.64962008  0.31424287  1
  In  In21  1  0.17484330  0.16077108  0.68328559  1
  In  In22  1  0.17291196  0.50352250  0.69661789  1
  In  In23  1  0.34839688  0.64187952  0.30818490  1
  In  In24  1  -0.01740784  0.83263769  0.49169006  1
  In  In25  1  0.51374800  0.50173198  -0.00584362  1
  In  In26  1  0.34845200  0.49691307  0.49545302  1
  In  In27  1  0.52352916  0.81827239  0.33714677  1
  In  In28  1  0.66744432  0.35380413  -0.01044916  1
  In  In29  1  0.83106788  0.83311150  0.66519699  1
  In  In30  1  0.49497289  0.83956671  0.67174622  1
  In  In31  1  0.67106023  0.83485308  0.50509503  1
  In  In32  1  0.19869863  0.83190846  0.31651368  1
  In  In33  1  0.14995139  0.30434164  0.85815211  1
  In  In34  1  0.33851562  0.84075182  0.82772092  1
  In  In35  1  0.66459616  0.50466439  0.48657400  1
  In  In36  1  0.17636628  0.63809324  0.85280125  1
  In  In37  1  0.32086294  0.34227945  0.32331156  1
  In  In38  1  0.83452108  0.15965247  0.66435451  1
  In  In39  1  -0.04819321  0.30907982  0.68498560  1
  In  In40  1  0.33711983  0.32744923  0.66820377  1
  In  In41  1  0.18109589  0.50344969  0.04275819  1
  In  In42  1  0.16746216  0.83613393  -0.00151156  1
  In  In43  1  0.84158452  0.35024087  0.16098297  1
  In  In44  1  0.65962727  0.85008898  0.82854997  1
  In  In45  1  0.00645769  0.84034979  0.84390879  1
  In  In46  1  0.65197315  0.32838517  0.67607065  1
  In  In47  1  0.33292648  0.33414984  -0.00011668  1
  In  In48  1  0.49862948  0.67302620  0.48978431  1
  In  In49  1  0.48331239  0.01698459  0.15289560  1
  In  In50  1  0.15231232  0.50891330  0.29863239  1
  In  In51  1  0.17614781  0.68269363  0.51424328  1
  In  In52  1  0.14728055  0.00353051  0.49158499  1
  In  In53  1  0.48498641  0.31588942  0.48884334  1
  In  In54  1  0.33059174  0.80306948  0.17828982  1
  In  In55  1  0.66886513  0.17655155  0.81906414  1
  In  In56  1  0.19919751  0.83732876  0.66427281  1
  In  In57  1  0.17513916  0.31417370  0.47687940  1
  In  In58  1  0.35868435  0.00988618  0.35653041  1
  In  In59  1  0.83409594  -0.01264208  0.16306839  1
  In  In60  1  0.53909102  0.52983023  0.68975925  1
  In  In61  1  0.49748358  0.34692515  0.16286738  1
  In  In62  1  0.00065203  -0.00407620  0.35471616  1
  In  In63  1  0.34274685  0.50129387  0.83459265  1
  In  In64  1  -0.01133041  0.52387799  0.46600128  1
  In  In65  1  0.82605111  0.83084363  0.00965338  1
  In  In66  1  0.00503219  0.16682499  0.50049528  1
  In  In67  1  0.31809786  0.18818883  0.16494798  1
  In  In68  1  0.01393868  0.02320280  0.68488987  1
  In  In69  1  0.49111863  0.17989669  0.00459976  1
  In  In70  1  0.81968774  0.67908562  0.85287680  1
  In  In71  1  0.35055677  0.00709117  0.66221740  1
  Te  Te72  1  0.09425004  0.09440409  0.05926383  1
  Te  Te73  1  0.09662541  0.10902316  0.39294732  1
  Te  Te74  1  0.09436381  0.09420505  0.79463666  1
  Te  Te75  1  0.09273936  0.41388397  0.12221027  1
  Te  Te76  1  0.08337402  0.41684477  0.40694605  1
  Te  Te77  1  0.07217402  0.39741099  0.75237782  1
  Te  Te78  1  0.09143034  0.74286876  0.08542506  1
  Te  Te79  1  0.08617151  0.75197688  0.41094913  1
  Te  Te80  1  0.10156564  0.74951406  0.76112782  1
  Te  Te81  1  0.38385324  0.08868775  0.06412180  1
  Te  Te82  1  0.43521751  0.10008859  0.45708224  1
  Te  Te83  1  0.42456436  0.09371062  0.75664706  1
  Te  Te84  1  0.39504862  0.43690439  0.09207759  1
  Te  Te85  1  0.43148161  0.42345525  0.39175779  1
  Te  Te86  1  0.43176245  0.42407807  0.73831685  1
  Te  Te87  1  0.40343106  0.71070889  0.08278821  1
  Te  Te88  1  0.40014341  0.74975658  0.40128863  1
  Te  Te89  1  0.43040092  0.74403954  0.76431683  1
  Te  Te90  1  0.77870343  0.09298138  0.06604206  1
  Te  Te91  1  0.74132821  0.07853602  0.44096234  1
  Te  Te92  1  0.74794875  0.07348371  0.74818616  1
  Te  Te93  1  0.73804254  0.43998096  0.09274182  1
  Te  Te94  1  0.75699309  0.41664254  0.40334255  1
  Te  Te95  1  0.73977467  0.41506655  0.76644307  1
  Te  Te96  1  0.77347389  0.71650807  0.09642884  1
  Te  Te97  1  0.73736105  0.75883200  0.39586346  1
  Te  Te98  1  0.73377656  0.73995663  0.74255947  1
  Te  Te99  1  0.10925041  0.24850921  0.24857653  1
  Te  Te100  1  0.08303362  0.25618577  0.59691474  1
  Te  Te101  1  0.04972018  0.23830760  0.94872044  1
  Te  Te102  1  0.04728171  0.56307965  0.19897821  1
  Te  Te103  1  0.08272550  0.58409241  0.59067636  1
  Te  Te104  1  0.07609342  0.58243244  0.95179274  1
  Te  Te105  1  0.08439998  0.91456151  0.25327284  1
  Te  Te106  1  0.07821591  0.90647184  0.59637962  1
  Te  Te107  1  0.08860763  0.93929829  0.92147408  1
  Te  Te108  1  0.42698256  0.24759380  0.25405159  1
  Te  Te109  1  0.40949747  0.22769569  0.58341496  1
  Te  Te110  1  0.41778763  0.25967954  0.90434510  1
  Te  Te111  1  0.39683676  0.55347803  0.20182892  1
  Te  Te112  1  0.42782364  0.58286551  0.59124086  1
  Te  Te113  1  0.42083234  0.59104327  0.92111724  1
  Te  Te114  1  0.42432604  0.91081265  0.24952370  1
  Te  Te115  1  0.41656508  0.91386898  0.56890152  1
  Te  Te116  1  0.40913127  0.92379002  0.93672203  1
  Te  Te117  1  0.74852977  0.25016230  0.24676870  1
  Te  Te118  1  0.73254509  0.23858371  0.58156301  1
  Te  Te119  1  0.75401537  0.24745148  0.92428055  1
  Te  Te120  1  0.79580527  0.57309101  0.25564464  1
  Te  Te121  1  0.74082206  0.59912207  0.57054545  1
  Te  Te122  1  0.73684785  0.56748164  0.91524908  1
  Te  Te123  1  0.73866749  0.91653382  0.25748086  1
  Te  Te124  1  0.74900851  0.92963733  0.58985586  1
  Te  Te125  1  0.77213003  0.92532440  0.90145170  1
  Te  Te126  1  0.23241759  0.24168170  0.05632870  1
  Te  Te127  1  0.27808780  0.23175716  0.41413727  1
  Te  Te128  1  0.26462565  0.24412430  0.77556002  1
  Te  Te129  1  0.26668036  0.60808232  0.10945780  1
  Te  Te130  1  0.24487114  0.57752495  0.41442812  1
  Te  Te131  1  0.27270529  0.60730818  0.73793148  1
  Te  Te132  1  0.26574731  0.91107485  0.09015544  1
  Te  Te133  1  0.25763787  0.91765181  0.42802568  1
  Te  Te134  1  0.23956229  0.94602006  0.76662618  1
  Te  Te135  1  0.59907283  0.24588439  0.09252310  1
  Te  Te136  1  0.59756265  0.23328949  0.42758506  1
  Te  Te137  1  0.55862177  0.22897263  0.73458202  1
  Te  Te138  1  0.59046728  0.57378529  0.10016660  1
  Te  Te139  1  0.56826621  0.57807453  0.39262874  1
  Te  Te140  1  0.63440763  0.60241182  0.77217324  1
  Te  Te141  1  0.58590089  0.91282835  0.08961842  1
  Te  Te142  1  0.55755272  0.92219118  0.44320044  1
  Te  Te143  1  0.59852854  0.94194747  0.72140576  1
  Te  Te144  1  0.91353893  0.25287785  0.07373075  1
  Te  Te145  1  0.92455484  0.26082396  0.40974499  1
  Te  Te146  1  0.92273388  0.19662942  0.79182966  1
  Te  Te147  1  0.91884559  0.59812919  0.11539626  1
  Te  Te148  1  0.88805026  0.60737213  0.39545287  1
  Te  Te149  1  0.90971317  0.58096828  0.75602223  1
  Te  Te150  1  0.93235197  0.93004364  0.06200387  1
  Te  Te151  1  0.89123285  0.92246855  0.41915492  1
  Te  Te152  1  0.91742478  0.92545051  0.75454797  1
  Te  Te153  1  0.26302733  0.07446195  0.25425343  1
  Te  Te154  1  0.24698203  0.08501479  0.57360676  1
  Te  Te155  1  0.21347188  0.04731119  0.88312728  1
  Te  Te156  1  0.23012872  0.40736923  0.22144445  1
  Te  Te157  1  0.24375758  0.41766699  0.57864008  1
  Te  Te158  1  0.23085964  0.42795700  0.91118788  1
  Te  Te159  1  0.21789676  0.70581071  0.23182756  1
  Te  Te160  1  0.28682187  0.75387126  0.58116117  1
  Te  Te161  1  0.26186314  0.74365100  0.92124416  1
  Te  Te162  1  0.55901635  0.09374094  0.26202056  1
  Te  Te163  1  0.56558218  0.10994017  0.52350597  1
  Te  Te164  1  0.58178622  0.07868718  0.92452266  1
  Te  Te165  1  0.59156279  0.43861536  0.23378113  1
  Te  Te166  1  0.57377751  0.41697644  0.57606205  1
  Te  Te167  1  0.55973510  0.39716447  0.89944415  1
  Te  Te168  1  0.56501713  0.72392298  0.22718577  1
  Te  Te169  1  0.58524300  0.74256287  0.59219288  1
  Te  Te170  1  0.57342694  0.74998277  0.90678348  1
  Te  Te171  1  0.91881315  0.08483890  0.24782616  1
  Te  Te172  1  0.91802108  0.06707989  0.57280846  1
  Te  Te173  1  0.94813170  0.12811893  0.92683576  1
  Te  Te174  1  0.89358628  0.44907175  0.26395913  1
  Te  Te175  1  0.92107908  0.42773525  0.57908866  1
  Te  Te176  1  0.93156800  0.40895961  0.94348258  1
  Te  Te177  1  0.90638441  0.77235839  0.26666969  1
  Te  Te178  1  0.89832330  0.73109931  0.56923706  1
  Te  Te179  1  0.93053887  0.74253228  0.93356064  1
