# generated using pymatgen
data_In2Te3
_symmetry_space_group_name_H-M   'P 1'
_cell_length_a   18.86856451
_cell_length_b   18.88189269
_cell_length_c   18.86582564
_cell_angle_alpha   89.86249620
_cell_angle_beta   90.09132932
_cell_angle_gamma   90.16190638
_symmetry_Int_Tables_number   1
_chemical_formula_structural   In2Te3
_chemical_formula_sum   'In72 Te108'
_cell_volume   6721.35247232
_cell_formula_units_Z   36
loop_
 _symmetry_equiv_pos_site_id
 _symmetry_equiv_pos_as_xyz
  1  'x, y, z'
loop_
 _atom_site_type_symbol
 _atom_site_label
 _atom_site_symmetry_multiplicity
 _atom_site_fract_x
 _atom_site_fract_y
 _atom_site_fract_z
 _atom_site_occupancy
  In  In0  1  0.31946385  0.00966412  0.00412110  1
  In  In1  1  0.32330005  0.68674651  -0.00078922  1
  In  In2  1  0.51152743  0.50632091  0.00156615  1
  In  In3  1  0.35390181  0.84946374  0.17745124  1
  In  In4  1  0.17501375  0.00346260  0.49865662  1
  In  In5  1  0.68764500  0.22123521  0.53925732  1
  In  In6  1  0.50393596  0.01605170  0.49189707  1
  In  In7  1  0.32605837  0.84648505  0.49491584  1
  In  In8  1  0.17452615  0.66489329  0.49046669  1
  In  In9  1  0.82562514  0.63989064  0.51504248  1
  In  In10  1  -0.00475444  0.35489051  0.65641431  1
  In  In11  1  0.81049843  0.49401361  0.33207233  1
  In  In12  1  0.64713813  0.00940412  0.34037003  1
  In  In13  1  0.65598589  0.00772287  0.66554618  1
  In  In14  1  0.36777883  0.32751929  0.63534501  1
  In  In15  1  0.50110957  0.16207672  0.33787943  1
  In  In16  1  0.67249948  -0.02761366  -0.01844077  1
  In  In17  1  0.66679260  0.35167487  0.00480007  1
  In  In18  1  0.01236622  0.17015645  0.17375349  1
  In  In19  1  0.33970407  0.50312931  0.17628275  1
  In  In20  1  0.16353429  0.32528434  0.83269134  1
  In  In21  1  0.51152593  0.83742851  0.66939489  1
  In  In22  1  0.00432681  0.18336171  0.82173456  1
  In  In23  1  -0.01890361  0.18289836  0.50346977  1
  In  In24  1  -0.00312065  0.51592136  0.17609352  1
  In  In25  1  0.17560600  0.32907399  0.49593192  1
  In  In26  1  0.64658633  0.16389197  0.19369507  1
  In  In27  1  0.47897820  0.82194555  0.00673860  1
  In  In28  1  0.51483513  0.64879940  0.82982759  1
  In  In29  1  0.28373428  0.84875755  0.82149864  1
  In  In30  1  0.64675754  0.19581751  0.81061609  1
  In  In31  1  0.14692532  0.69090861  0.14822284  1
  In  In32  1  0.34746349  0.15525742  0.83924446  1
  In  In33  1  0.82340464  0.49328881  0.68171336  1
  In  In34  1  -0.00796007  0.34850468  -0.00603995  1
  In  In35  1  0.66724532  0.66267466  0.00483082  1
  In  In36  1  0.85035851  -0.03024156  0.13728129  1
  In  In37  1  0.83044726  0.49548205  -0.00972228  1
  In  In38  1  0.65696314  0.33696923  0.34436486  1
  In  In39  1  0.17523870  -0.02629674  0.16747243  1
  In  In40  1  0.32827898  0.65294816  0.32832771  1
  In  In41  1  0.01467803  0.00853336  0.64206295  1
  In  In42  1  0.33567418  0.14054839  0.16662633  1
  In  In43  1  0.51673697  0.33188107  0.18240008  1
  In  In44  1  -0.00447750  0.82733367  0.83207646  1
  In  In45  1  0.51281023  0.66686889  0.50000244  1
  In  In46  1  0.86144705  0.17626230  0.34998824  1
  In  In47  1  0.82012916  -0.01666444  0.83083004  1
  In  In48  1  0.01516775  0.32583392  0.34282855  1
  In  In49  1  0.80023401  0.15037870  -0.01435713  1
  In  In50  1  0.65996367  0.64988728  0.32938787  1
  In  In51  1  0.00770820  0.67523331  0.33932887  1
  In  In52  1  0.33669655  0.32041775  -0.02436454  1
  In  In53  1  0.15887847  0.50362874  0.66636268  1
  In  In54  1  0.66044345  0.81505025  0.16616397  1
  In  In55  1  0.83824403  0.81914171  0.31631224  1
  In  In56  1  0.18812429  0.14078865  0.67063648  1
  In  In57  1  0.35947378  0.36787712  0.37043142  1
  In  In58  1  0.82188736  0.34148377  0.13712474  1
  In  In59  1  0.31166166  0.49074364  0.81526586  1
  In  In60  1  0.11370453  0.54642454  -0.01467865  1
  In  In61  1  0.03162689  -0.00295188  0.32204154  1
  In  In62  1  0.19554186  0.33166905  0.16604667  1
  In  In63  1  -0.00822347  0.67157169  0.67169971  1
  In  In64  1  0.33512580  0.65881959  0.68699982  1
  In  In65  1  0.64951696  0.83529471  0.50040044  1
  In  In66  1  0.82773731  0.78345792  0.71930490  1
  In  In67  1  0.50373843  -0.00025364  0.82481047  1
  In  In68  1  0.83420177  0.01188749  0.49434669  1
  In  In69  1  0.01276043  -0.01812372  -0.00764347  1
  In  In70  1  0.02122760  0.84588937  0.51416702  1
  In  In71  1  0.49526003  0.48910129  0.66154631  1
  Te  Te72  1  0.09079026  0.07544704  0.08690673  1
  Te  Te73  1  0.07979840  0.09998343  0.42323195  1
  Te  Te74  1  0.08683119  0.07179589  0.76221542  1
  Te  Te75  1  0.08582394  0.41358190  0.09556489  1
  Te  Te76  1  0.08817443  0.42254973  0.42382792  1
  Te  Te77  1  0.07260431  0.42733480  0.76687541  1
  Te  Te78  1  0.04711399  0.72802902  0.04576162  1
  Te  Te79  1  0.10229054  0.77317974  0.40852063  1
  Te  Te80  1  0.08791031  0.76192612  0.73633115  1
  Te  Te81  1  0.42718426  0.09012323  0.06406542  1
  Te  Te82  1  0.39926725  0.08438473  0.41314378  1
  Te  Te83  1  0.42431352  0.08438347  0.73610763  1
  Te  Te84  1  0.41379827  0.40506111  0.08259516  1
  Te  Te85  1  0.47602469  0.42880514  0.44505580  1
  Te  Te86  1  0.41975739  0.40166602  0.76359357  1
  Te  Te87  1  0.42180373  0.72569644  0.10902298  1
  Te  Te88  1  0.41237442  0.74703539  0.41821679  1
  Te  Te89  1  0.41879233  0.75951416  0.76420941  1
  Te  Te90  1  0.73555747  0.07270787  0.10041134  1
  Te  Te91  1  0.73715110  0.10675953  0.42109256  1
  Te  Te92  1  0.74594978  0.09271947  0.75374497  1
  Te  Te93  1  0.72663934  0.45123601  0.10256236  1
  Te  Te94  1  0.74106466  0.41611243  0.43616411  1
  Te  Te95  1  0.71295904  0.39111491  0.71523040  1
  Te  Te96  1  0.75649760  0.76817281  0.06347497  1
  Te  Te97  1  0.75144410  0.74973514  0.42359200  1
  Te  Te98  1  0.74524921  0.70732172  0.81107541  1
  Te  Te99  1  0.11328235  0.24186397  0.26113418  1
  Te  Te100  1  0.08689185  0.24283738  0.59940870  1
  Te  Te101  1  0.08525896  0.24300003  0.93531709  1
  Te  Te102  1  0.10258503  0.58928849  0.25614898  1
  Te  Te103  1  0.07176371  0.58650347  0.57297732  1
  Te  Te104  1  0.02338836  0.59448726  0.87702694  1
  Te  Te105  1  0.06637265  0.89014791  0.22752157  1
  Te  Te106  1  0.12847745  0.90588060  0.61779260  1
  Te  Te107  1  0.10034225  0.90898990  0.89979564  1
  Te  Te108  1  0.40650222  0.25757570  0.25479672  1
  Te  Te109  1  0.43821867  0.23330463  0.54825466  1
  Te  Te110  1  0.44175132  0.24887306  0.90433111  1
  Te  Te111  1  0.43216823  0.56404456  0.27164602  1
  Te  Te112  1  0.40840369  0.58440670  0.57947869  1
  Te  Te113  1  0.39984909  0.58222372  0.91002387  1
  Te  Te114  1  0.43346373  0.93927950  0.25963401  1
  Te  Te115  1  0.42250105  0.92533227  0.58718959  1
  Te  Te116  1  0.40526365  0.91340136  0.90737649  1
  Te  Te117  1  0.75874026  0.25125887  0.25160805  1
  Te  Te118  1  0.78338320  0.27822155  0.63743642  1
  Te  Te119  1  0.74846887  0.26652356  0.90547182  1
  Te  Te120  1  0.77471892  0.60781771  0.24439272  1
  Te  Te121  1  0.72742240  0.58004632  0.60589274  1
  Te  Te122  1  0.73869966  0.57863499  0.90159463  1
  Te  Te123  1  0.74424041  0.92477919  0.25629165  1
  Te  Te124  1  0.74786238  0.91997550  0.58109739  1
  Te  Te125  1  0.78368920  0.88550565  0.93713454  1
  Te  Te126  1  0.25432452  0.23265459  0.06945575  1
  Te  Te127  1  0.28244216  0.25397051  0.42694081  1
  Te  Te128  1  0.25954375  0.26257368  0.73480386  1
  Te  Te129  1  0.24242986  0.58348526  0.08330661  1
  Te  Te130  1  0.26044408  0.56533417  0.42684313  1
  Te  Te131  1  0.21920468  0.60163688  0.76720021  1
  Te  Te132  1  0.25282890  0.88907860  0.06899885  1
  Te  Te133  1  0.24175015  0.91952545  0.39743260  1
  Te  Te134  1  0.24941097  0.93770815  0.71213339  1
  Te  Te135  1  0.58487247  0.24250951  0.07981231  1
  Te  Te136  1  0.53961747  0.27321197  0.43693495  1
  Te  Te137  1  0.59884559  0.28608594  0.69956549  1
  Te  Te138  1  0.56720180  0.60268546  0.09624970  1
  Te  Te139  1  0.59582617  0.56393481  0.43291702  1
  Te  Te140  1  0.59561540  0.56375846  0.74217462  1
  Te  Te141  1  0.57537384  0.91261146  0.08130761  1
  Te  Te142  1  0.55577087  0.90205074  0.40231411  1
  Te  Te143  1  0.60887041  0.90393000  0.76607017  1
  Te  Te144  1  0.90668316  0.22771371  0.07699395  1
  Te  Te145  1  0.89734175  0.29193677  0.44137970  1
  Te  Te146  1  0.90955971  0.26576438  0.74450663  1
  Te  Te147  1  0.91754595  0.58428274  0.07193909  1
  Te  Te148  1  0.91551141  0.57571733  0.41046303  1
  Te  Te149  1  0.90230526  0.59462553  0.76524106  1
  Te  Te150  1  0.95749143  0.87906124  0.08779735  1
  Te  Te151  1  0.92189398  0.91990227  0.41091844  1
  Te  Te152  1  0.91411423  0.92191944  0.72824672  1
  Te  Te153  1  0.25542495  0.05812100  0.25917180  1
  Te  Te154  1  0.27363647  0.09507574  0.56087445  1
  Te  Te155  1  0.23855842  0.08590357  0.90804491  1
  Te  Te156  1  0.25163450  0.42290083  0.27318020  1
  Te  Te157  1  0.25843144  0.42381116  0.58506817  1
  Te  Te158  1  0.22957921  0.42729063  0.92870398  1
  Te  Te159  1  0.25188009  0.75335432  0.24137307  1
  Te  Te160  1  0.25755121  0.74633143  0.58864126  1
  Te  Te161  1  0.22228178  0.74788723  0.91023193  1
  Te  Te162  1  0.53963544  0.05251821  0.23267683  1
  Te  Te163  1  0.58592792  0.10989116  0.57988196  1
  Te  Te164  1  0.59870741  0.08362651  0.91040357  1
  Te  Te165  1  0.59533821  0.43397832  0.25201375  1
  Te  Te166  1  0.56856516  0.39921069  0.56682537  1
  Te  Te167  1  0.59051572  0.42948838  0.90608786  1
  Te  Te168  1  0.57593378  0.75422237  0.26932854  1
  Te  Te169  1  0.60320548  0.73544332  0.60594407  1
  Te  Te170  1  0.58021886  0.75525988  0.91642330  1
  Te  Te171  1  0.91294640  0.07163908  0.24600432  1
  Te  Te172  1  0.89876544  0.09988871  0.60047770  1
  Te  Te173  1  0.91400872  0.08004111  0.91143281  1
  Te  Te174  1  0.91846629  0.39844268  0.24222036  1
  Te  Te175  1  0.92301034  0.45541975  0.57796067  1
  Te  Te176  1  0.89896458  0.40421505  0.89663785  1
  Te  Te177  1  0.91074753  0.72047539  0.23495104  1
  Te  Te178  1  0.90613064  0.76087670  0.57307517  1
  Te  Te179  1  0.94553098  0.71855876  0.92490469  1
