# generated using pymatgen
data_In2Te3
_symmetry_space_group_name_H-M   'P 1'
_cell_length_a   19.00651726
_cell_length_b   18.98789452
_cell_length_c   18.97626087
_cell_angle_alpha   90.06954029
_cell_angle_beta   89.75436850
_cell_angle_gamma   89.97613674
_symmetry_Int_Tables_number   1
_chemical_formula_structural   In2Te3
_chemical_formula_sum   'In72 Te108'
_cell_volume   6848.34526174
_cell_formula_units_Z   36
loop_
 _symmetry_equiv_pos_site_id
 _symmetry_equiv_pos_as_xyz
  1  'x, y, z'
loop_
 _atom_site_type_symbol
 _atom_site_label
 _atom_site_symmetry_multiplicity
 _atom_site_fract_x
 _atom_site_fract_y
 _atom_site_fract_z
 _atom_site_occupancy
  In  In0  1  0.62469869  0.02722595  0.65612088  1
  In  In1  1  0.31447313  0.46917369  0.86269957  1
  In  In2  1  0.48602414  0.19929211  0.32409417  1
  In  In3  1  0.18512583  0.49515045  0.34809625  1
  In  In4  1  0.35170038  0.65552359  0.66350330  1
  In  In5  1  -0.01224500  0.84688142  0.48677077  1
  In  In6  1  -0.01206112  0.52129076  0.86229946  1
  In  In7  1  0.17558890  0.14859755  0.66365845  1
  In  In8  1  0.49446155  0.18975354  0.66249667  1
  In  In9  1  0.34354937  -0.01848327  0.30948255  1
  In  In10  1  0.81171369  0.82436311  -0.00314737  1
  In  In11  1  0.03652179  0.50106643  0.48448923  1
  In  In12  1  0.58789606  0.02006421  0.04874446  1
  In  In13  1  0.80186379  0.01460474  0.80012846  1
  In  In14  1  0.82801752  0.49879413  0.65617408  1
  In  In15  1  0.18787089  0.65184869  0.49089098  1
  In  In16  1  0.48673949  0.01267717  0.50573420  1
  In  In17  1  -0.03025735  0.18950548  0.51497410  1
  In  In18  1  0.03078365  -0.01944054  0.67301475  1
  In  In19  1  0.82993425  0.33220754  0.16864398  1
  In  In20  1  0.65778031  0.34596184  0.64006789  1
  In  In21  1  0.84064425  0.53080526  0.29003623  1
  In  In22  1  0.50180588  0.83363023  0.64480804  1
  In  In23  1  0.49342307  0.65577535  0.20337586  1
  In  In24  1  0.66983610  0.64571513  0.65195521  1
  In  In25  1  0.48444773  0.84224071  0.03105121  1
  In  In26  1  0.29599324  0.63098555  0.01142186  1
  In  In27  1  0.17507878  0.18570948  0.02318274  1
  In  In28  1  0.33487075  0.81375293  0.18041081  1
  In  In29  1  0.15573878  0.01592432  0.84690663  1
  In  In30  1  0.66013325  0.47156207  0.49429622  1
  In  In31  1  0.64485432  0.83207643  0.83788086  1
  In  In32  1  0.19489075  0.81860607  0.70392469  1
  In  In33  1  0.50198933  0.65232021  0.81764301  1
  In  In34  1  0.66025243  0.01429724  0.31962844  1
  In  In35  1  0.45793537  0.47935769  0.03861814  1
  In  In36  1  0.17935892  0.32421982  0.48928533  1
  In  In37  1  -0.01123797  0.19451703  0.88306421  1
  In  In38  1  0.86039646  0.35836927  0.86828799  1
  In  In39  1  0.83699621  0.35890268  0.45945429  1
  In  In40  1  0.18783783  0.00565451  0.46252208  1
  In  In41  1  0.00636138  0.65970633  0.30605036  1
  In  In42  1  0.82907146  -0.01201105  0.18816817  1
  In  In43  1  -0.01991010  0.01899093  0.35557721  1
  In  In44  1  0.01793557  0.84430367  0.84745781  1
  In  In45  1  0.18548701  -0.00581562  0.17441915  1
  In  In46  1  0.68780805  0.82300386  0.45905922  1
  In  In47  1  0.49569625  0.68139464  0.45022454  1
  In  In48  1  0.66845535  0.34250039  0.01957507  1
  In  In49  1  0.15974489  0.66630910  0.83288107  1
  In  In50  1  -0.00290331  0.34594587  0.69506037  1
  In  In51  1  0.82425711  0.67698565  0.82084692  1
  In  In52  1  0.82585368  0.16706720  0.64266890  1
  In  In53  1  0.18555531  0.34186279  0.17421063  1
  In  In54  1  0.65890791  0.17388560  0.16366015  1
  In  In55  1  0.47684324  0.17712300  0.02398860  1
  In  In56  1  0.89648505  0.51537366  0.10072671  1
  In  In57  1  0.32341409  0.18285222  0.84692759  1
  In  In58  1  0.48578991  0.02968826  0.86956094  1
  In  In59  1  0.21865521  0.16362698  0.28296021  1
  In  In60  1  0.49635707  0.46370833  0.31504914  1
  In  In61  1  0.84332291  0.84935770  0.63203064  1
  In  In62  1  0.66311299  0.63365435  0.03144790  1
  In  In63  1  0.16421855  0.48233791  0.66435200  1
  In  In64  1  0.80075692  0.02700508  0.48428876  1
  In  In65  1  0.82227615  0.18027856  0.01863659  1
  In  In66  1  0.17011000  0.82023473  0.31735329  1
  In  In67  1  0.01160355  0.79314729  0.14565356  1
  In  In68  1  0.67095617  0.48710564  0.85581752  1
  In  In69  1  0.49282864  0.46253882  0.63395742  1
  In  In70  1  0.32730297  0.33204626  0.65794970  1
  In  In71  1  0.00067186  0.00340659  -0.00294943  1
  Te  Te72  1  0.08740959  0.08006324  0.09164492  1
  Te  Te73  1  0.07330288  0.10213832  0.44004633  1
  Te  Te74  1  0.06043195  0.10065235  0.76331910  1
  Te  Te75  1  0.13435122  0.44970942  0.08161287  1
  Te  Te76  1  0.07942562  0.38867807  0.39589294  1
  Te  Te77  1  0.08441837  0.43025883  0.78274073  1
  Te  Te78  1  0.09353329  0.70584472  0.06102993  1
  Te  Te79  1  0.08651830  0.74180209  0.42241110  1
  Te  Te80  1  0.06659104  0.75046822  0.73908513  1
  Te  Te81  1  0.44535034  0.04455001  0.08346844  1
  Te  Te82  1  0.41167171  0.08459132  0.39666466  1
  Te  Te83  1  0.41341050  0.09854406  0.75756731  1
  Te  Te84  1  0.38089468  0.38778404  0.12801012  1
  Te  Te85  1  0.43470131  0.36790293  0.41288878  1
  Te  Te86  1  0.41159466  0.41587795  0.75155718  1
  Te  Te87  1  0.41996425  0.71603953  0.08012223  1
  Te  Te88  1  0.41642780  0.78286715  0.38449900  1
  Te  Te89  1  0.41891502  0.75880194  0.75201498  1
  Te  Te90  1  0.74207573  0.06976067  0.08181605  1
  Te  Te91  1  0.74465303  0.11728865  0.38488874  1
  Te  Te92  1  0.71423861  0.11994193  0.73679903  1
  Te  Te93  1  0.76028824  0.43887738  0.08840933  1
  Te  Te94  1  0.74788645  0.43977972  0.37014006  1
  Te  Te95  1  0.76108687  0.40673695  0.75509333  1
  Te  Te96  1  0.75389812  0.73160120  0.09704200  1
  Te  Te97  1  0.73080966  0.71010552  0.37561504  1
  Te  Te98  1  0.73347254  0.76248187  0.73304843  1
  Te  Te99  1  0.10211483  0.23356973  0.23108032  1
  Te  Te100  1  0.08295693  0.26149919  0.59989397  1
  Te  Te101  1  0.10051251  0.27437973  0.92940474  1
  Te  Te102  1  0.12510225  0.58993892  0.24916627  1
  Te  Te103  1  0.08874526  0.59149949  0.59350714  1
  Te  Te104  1  0.08305426  0.60088921  0.94475607  1
  Te  Te105  1  0.08739230  0.93928074  0.27590244  1
  Te  Te106  1  0.10263881  0.91443757  0.56017384  1
  Te  Te107  1  0.10854282  0.90769616  0.94642573  1
  Te  Te108  1  0.39074582  0.29059657  0.25159934  1
  Te  Te109  1  0.37957657  0.22165075  0.57709168  1
  Te  Te110  1  0.41209079  0.26590285  0.92888859  1
  Te  Te111  1  0.39800405  0.57009044  0.27661676  1
  Te  Te112  1  0.44413425  0.58633730  0.56550968  1
  Te  Te113  1  0.41892560  0.57205487  0.91660304  1
  Te  Te114  1  0.44311202  0.87653924  0.26370871  1
  Te  Te115  1  0.40326983  0.91961280  0.58249899  1
  Te  Te116  1  0.41690906  0.91223983  0.92271489  1
  Te  Te117  1  0.74812519  0.24488618  0.25497450  1
  Te  Te118  1  0.75526554  0.26831785  0.55503428  1
  Te  Te119  1  0.75026555  0.26487615  0.91670085  1
  Te  Te120  1  0.74126059  0.62891867  0.23700948  1
  Te  Te121  1  0.75756980  0.57799640  0.54949279  1
  Te  Te122  1  0.76454529  0.58270075  0.92365787  1
  Te  Te123  1  0.72626752  0.90369353  0.24775963  1
  Te  Te124  1  0.72587889  0.93244039  0.58710472  1
  Te  Te125  1  0.73942565  0.92634718  0.90775421  1
  Te  Te126  1  0.28356305  0.27536394  0.07759261  1
  Te  Te127  1  0.24747089  0.21498469  0.41789214  1
  Te  Te128  1  0.23208620  0.25833680  0.75198185  1
  Te  Te129  1  0.25169257  0.54122298  0.11784070  1
  Te  Te130  1  0.28943213  0.58340579  0.40860575  1
  Te  Te131  1  0.25941111  0.57233981  0.75167245  1
  Te  Te132  1  0.25039006  0.89265519  0.09206723  1
  Te  Te133  1  0.27113304  0.88845602  0.40856857  1
  Te  Te134  1  0.24829343  0.94000331  0.76137537  1
  Te  Te135  1  0.56327889  0.28264905  0.11401110  1
  Te  Te136  1  0.57801763  0.29864889  0.38520978  1
  Te  Te137  1  0.57351630  0.28509849  0.74219722  1
  Te  Te138  1  0.57229243  0.54468021  0.11737421  1
  Te  Te139  1  0.57838440  0.56013446  0.40604207  1
  Te  Te140  1  0.58837290  0.55131999  0.73866732  1
  Te  Te141  1  0.60700668  0.88294437  0.09770683  1
  Te  Te142  1  0.58858180  0.92771744  0.42460832  1
  Te  Te143  1  0.56280884  0.93048850  0.75733993  1
  Te  Te144  1  0.92562345  0.24992269  0.09089798  1
  Te  Te145  1  0.91767530  0.25534182  0.39580591  1
  Te  Te146  1  0.90221531  0.24442025  0.75463795  1
  Te  Te147  1  0.94905205  0.65444435  0.10737443  1
  Te  Te148  1  0.93207911  0.57591206  0.40774164  1
  Te  Te149  1  0.91631834  0.58544056  0.74206451  1
  Te  Te150  1  0.91795578  0.90686152  0.07901285  1
  Te  Te151  1  0.87821318  0.91933635  0.41038275  1
  Te  Te152  1  0.90820045  0.91155563  0.75516097  1
  Te  Te153  1  0.31030656  0.08255698  0.19607663  1
  Te  Te154  1  0.26091703  0.07066481  0.57405080  1
  Te  Te155  1  0.25351263  0.08470947  0.93942536  1
  Te  Te156  1  0.27199756  0.38617106  0.29080269  1
  Te  Te157  1  0.26125744  0.43030213  0.56072528  1
  Te  Te158  1  0.21851403  0.41150743  0.95564085  1
  Te  Te159  1  0.23478325  0.71717821  0.23385222  1
  Te  Te160  1  0.26070812  0.74833809  0.58683481  1
  Te  Te161  1  0.26133388  0.73280777  0.91345039  1
  Te  Te162  1  0.55665860  0.09130715  0.24090965  1
  Te  Te163  1  0.58177058  0.12367483  0.55053470  1
  Te  Te164  1  0.58882975  0.11799876  0.93137027  1
  Te  Te165  1  0.58142651  0.40747625  0.20756512  1
  Te  Te166  1  0.54106775  0.35997299  0.52831246  1
  Te  Te167  1  0.56616903  0.42095740  0.93890893  1
  Te  Te168  1  0.61180080  0.71434788  0.27252595  1
  Te  Te169  1  0.59494451  0.74528164  0.56302322  1
  Te  Te170  1  0.59320304  0.71713671  0.91992204  1
  Te  Te171  1  0.91768994  0.08798643  0.24361938  1
  Te  Te172  1  0.91949321  0.05867764  0.58824131  1
  Te  Te173  1  0.89772897  0.07307702  0.90998779  1
  Te  Te174  1  0.93694516  0.43670133  0.22397002  1
  Te  Te175  1  0.93157006  0.41791175  0.57761584  1
  Te  Te176  1  0.93635224  0.43152611  0.97327122  1
  Te  Te177  1  0.92847978  0.77644866  0.26505913  1
  Te  Te178  1  0.90973620  0.74378222  0.55924210  1
  Te  Te179  1  0.91686632  0.75151156  0.91446972  1
