# generated using pymatgen
data_In2Te3
_symmetry_space_group_name_H-M   'P 1'
_cell_length_a   18.73479704
_cell_length_b   18.72899679
_cell_length_c   18.73584585
_cell_angle_alpha   90.00462479
_cell_angle_beta   90.01647275
_cell_angle_gamma   90.00981982
_symmetry_Int_Tables_number   1
_chemical_formula_structural   In2Te3
_chemical_formula_sum   'In72 Te108'
_cell_volume   6574.10727901
_cell_formula_units_Z   36
loop_
 _symmetry_equiv_pos_site_id
 _symmetry_equiv_pos_as_xyz
  1  'x, y, z'
loop_
 _atom_site_type_symbol
 _atom_site_label
 _atom_site_symmetry_multiplicity
 _atom_site_fract_x
 _atom_site_fract_y
 _atom_site_fract_z
 _atom_site_occupancy
  In  In0  1  0.31791628  0.33260821  0.00921340  1
  In  In1  1  0.48758221  0.51078933  0.65723104  1
  In  In2  1  0.85350279  0.79748207  0.64256702  1
  In  In3  1  0.67531555  0.15123530  0.48379611  1
  In  In4  1  0.49503670  0.00426797  0.16372789  1
  In  In5  1  0.16295083  0.03387956  0.17559792  1
  In  In6  1  0.32855426  0.48250456  0.17799131  1
  In  In7  1  0.69450238  0.49523582  0.48362714  1
  In  In8  1  0.89835133  0.36448637  0.48123191  1
  In  In9  1  0.16421642  0.16725643  0.30760362  1
  In  In10  1  0.14831629  0.49989245  0.34399447  1
  In  In11  1  0.51411034  0.85721468  0.00619553  1
  In  In12  1  0.32021001  0.64689814  0.03006293  1
  In  In13  1  0.65721496  -0.01331918  0.66198214  1
  In  In14  1  0.30017138  0.33731382  0.65208745  1
  In  In15  1  0.01136851  0.47147629  0.17336354  1
  In  In16  1  0.31548014  0.84139490  0.82649200  1
  In  In17  1  0.67958506  0.47484371  0.15455409  1
  In  In18  1  0.49204384  0.47168263  0.00303603  1
  In  In19  1  0.00076978  0.19893643  0.14209726  1
  In  In20  1  -0.00799750  0.66368544  -0.00896139  1
  In  In21  1  0.85368588  0.50803940  0.33145781  1
  In  In22  1  0.48966290  0.67449923  0.48787613  1
  In  In23  1  0.15619873  0.33803671  0.48669150  1
  In  In24  1  0.17273479  0.63302289  0.17737161  1
  In  In25  1  0.49207126  0.33032772  0.47389947  1
  In  In26  1  0.68099160  0.01021881  0.34067555  1
  In  In27  1  0.34265933  0.02834987  0.02252704  1
  In  In28  1  0.15401852  0.81776518  0.36312018  1
  In  In29  1  0.16023164  -0.01699120  0.84258678  1
  In  In30  1  -0.00402149  -0.00285211  0.65877032  1
  In  In31  1  0.31434739  0.48077168  0.50080175  1
  In  In32  1  0.16239634  0.18715935  0.01145032  1
  In  In33  1  0.30483015  0.50712552  0.83190476  1
  In  In34  1  0.48476424  0.17073720  0.70399382  1
  In  In35  1  0.33998062  0.65894718  0.35049988  1
  In  In36  1  0.68968852  0.80282973  0.46736719  1
  In  In37  1  0.54635333  0.70179672  0.20529213  1
  In  In38  1  0.46898530  0.83105817  0.64861028  1
  In  In39  1  0.84132666  0.67704890  0.18800232  1
  In  In40  1  0.14842670  0.78069603  0.62601555  1
  In  In41  1  -0.00578078  0.17875772  0.85242360  1
  In  In42  1  0.67616896  0.01517077  0.02239277  1
  In  In43  1  0.51294519  0.03690396  0.83213236  1
  In  In44  1  0.16562676  -0.00281354  0.48878175  1
  In  In45  1  0.49453537  0.68739142  0.82534461  1
  In  In46  1  0.68356413  0.63576070  0.63694331  1
  In  In47  1  0.50142946  0.19110011  0.31522701  1
  In  In48  1  0.68589383  0.35422575  0.67517175  1
  In  In49  1  0.86943537  0.65285815  0.82518369  1
  In  In50  1  0.51612590  0.49952798  0.32504413  1
  In  In51  1  0.83407370  -0.00293012  0.18347018  1
  In  In52  1  0.49689961  0.36061580  0.86775484  1
  In  In53  1  0.15988973  0.18969781  0.65377047  1
  In  In54  1  0.84563645  0.01414889  0.83612178  1
  In  In55  1  0.68262144  0.84149599  0.83610615  1
  In  In56  1  0.81787986  0.48215955  0.00442213  1
  In  In57  1  0.83626534  0.33281774  0.83450414  1
  In  In58  1  0.34429940  0.84191518  0.16736235  1
  In  In59  1  0.31941695  0.15979771  0.48596167  1
  In  In60  1  0.67018145  0.17617898  0.87765285  1
  In  In61  1  0.14431058  0.66530345  0.80892305  1
  In  In62  1  0.84668466  0.17538700  0.67938145  1
  In  In63  1  0.34340122  0.17505808  0.81552946  1
  In  In64  1  -0.02167326  0.82715555  0.18448856  1
  In  In65  1  0.01621058  0.48641649  0.80356263  1
  In  In66  1  0.82784476  0.00616730  0.47633528  1
  In  In67  1  0.69231135  0.65742768  0.03499828  1
  In  In68  1  0.00160348  0.00269916  0.34131994  1
  In  In69  1  0.48843050  -0.01070081  0.50803351  1
  In  In70  1  0.65664313  0.46452999  0.84563248  1
  In  In71  1  0.14591307  0.83340167  -0.01281548  1
  Te  Te72  1  0.07110357  0.07697755  0.06471253  1
  Te  Te73  1  0.08186255  0.10559047  0.42232537  1
  Te  Te74  1  0.07801228  0.08933196  0.75139487  1
  Te  Te75  1  0.10990739  0.42002654  0.07767429  1
  Te  Te76  1  0.04390597  0.41640387  0.41944697  1
  Te  Te77  1  0.07046996  0.38385322  0.71176330  1
  Te  Te78  1  0.08490410  0.73911721  0.09472811  1
  Te  Te79  1  0.07289258  0.72322662  0.44478119  1
  Te  Te80  1  0.05959258  0.76696176  0.74493855  1
  Te  Te81  1  0.41318913  0.12345851  0.11509211  1
  Te  Te82  1  0.42770927  0.08802510  0.40702572  1
  Te  Te83  1  0.39177409  0.05051973  0.73888866  1
  Te  Te84  1  0.42925947  0.38328670  0.11511423  1
  Te  Te85  1  0.40049625  0.41891282  0.38929723  1
  Te  Te86  1  0.41185166  0.40843129  0.74191226  1
  Te  Te87  1  0.43014541  0.74666460  0.07929640  1
  Te  Te88  1  0.42076249  0.77288644  0.40148857  1
  Te  Te89  1  0.38313245  0.73713052  0.73513985  1
  Te  Te90  1  0.75470418  0.10691988  0.11218654  1
  Te  Te91  1  0.78641579  0.12558343  0.37659053  1
  Te  Te92  1  0.73489240  0.09130430  0.75689728  1
  Te  Te93  1  0.80282178  0.38573976  0.12348794  1
  Te  Te94  1  0.76485549  0.39501782  0.39716146  1
  Te  Te95  1  0.77781168  0.44985232  0.74924963  1
  Te  Te96  1  0.76671375  0.76765446  0.09600188  1
  Te  Te97  1  0.77820203  0.71911470  0.38374171  1
  Te  Te98  1  0.74824643  0.73821425  0.74326401  1
  Te  Te99  1  0.07744050  0.27153075  0.24699228  1
  Te  Te100  1  0.05882587  0.26142609  0.57249969  1
  Te  Te101  1  0.07464929  0.27619715  0.93078952  1
  Te  Te102  1  0.05455586  0.59164107  0.26213395  1
  Te  Te103  1  0.04831644  0.60810400  0.55071706  1
  Te  Te104  1  0.08639444  0.57235581  0.91457859  1
  Te  Te105  1  0.09659952  0.91314847  0.24784927  1
  Te  Te106  1  0.07062448  0.90512921  0.56438462  1
  Te  Te107  1  0.04907289  0.91861137  0.91580391  1
  Te  Te108  1  0.40745768  0.25320331  0.21890122  1
  Te  Te109  1  0.41088123  0.25327111  0.58174550  1
  Te  Te110  1  0.41877126  0.24424601  0.92979645  1
  Te  Te111  1  0.41972731  0.59210388  0.23754508  1
  Te  Te112  1  0.39033274  0.59664590  0.57808437  1
  Te  Te113  1  0.41683341  0.57802493  0.91043860  1
  Te  Te114  1  0.43097056  0.91381824  0.26261450  1
  Te  Te115  1  0.37648050  0.91112415  0.56620876  1
  Te  Te116  1  0.40926687  0.92556006  0.91940915  1
  Te  Te117  1  0.71313345  0.23922281  0.19440741  1
  Te  Te118  1  0.74752107  0.24751430  0.58603463  1
  Te  Te119  1  0.79012344  0.23836033  0.94582765  1
  Te  Te120  1  0.74237043  0.57689648  0.25135077  1
  Te  Te121  1  0.79969865  0.57436567  0.56124414  1
  Te  Te122  1  0.74789318  0.58570879  0.91137855  1
  Te  Te123  1  0.75236175  0.90079927  0.26610433  1
  Te  Te124  1  0.75651313  0.90553223  0.57865974  1
  Te  Te125  1  0.76349654  0.92425962  0.93361875  1
  Te  Te126  1  0.24932067  0.25023583  0.11396067  1
  Te  Te127  1  0.25533154  0.26410573  0.39840098  1
  Te  Te128  1  0.22872326  0.26524787  0.76826588  1
  Te  Te129  1  0.21869067  0.53049577  0.06844507  1
  Te  Te130  1  0.22875175  0.59699346  0.43533320  1
  Te  Te131  1  0.22878087  0.57649757  0.72522036  1
  Te  Te132  1  0.24722128  0.91839451  0.07425152  1
  Te  Te133  1  0.25809255  0.91376897  0.40798264  1
  Te  Te134  1  0.21331918  0.89540140  0.73023824  1
  Te  Te135  1  0.61473328  0.28424063  0.09891402  1
  Te  Te136  1  0.60765915  0.26376872  0.40076379  1
  Te  Te137  1  0.59325782  0.26324877  0.76728132  1
  Te  Te138  1  0.57386009  0.57772273  0.08699867  1
  Te  Te139  1  0.59689007  0.59325203  0.41427722  1
  Te  Te140  1  0.58472812  0.57613422  0.75593038  1
  Te  Te141  1  0.60782828  0.90886642  0.11174427  1
  Te  Te142  1  0.59158546  0.91495436  0.42420142  1
  Te  Te143  1  0.56245322  0.90270821  0.76087388  1
  Te  Te144  1  0.90429951  0.27335080  0.05659044  1
  Te  Te145  1  0.89531637  0.23110494  0.42158545  1
  Te  Te146  1  0.94501457  0.28066878  0.73542039  1
  Te  Te147  1  0.91326025  0.57607313  0.09089158  1
  Te  Te148  1  0.94360612  0.55885292  0.44241231  1
  Te  Te149  1  0.95166090  0.59223282  0.71790213  1
  Te  Te150  1  0.92519513  0.92526041  0.08888427  1
  Te  Te151  1  0.91774869  0.90534383  0.41573324  1
  Te  Te152  1  0.90288138  0.90870283  0.74187027  1
  Te  Te153  1  0.27424859  0.07823454  0.26093407  1
  Te  Te154  1  0.24632570  0.07970471  0.59311928  1
  Te  Te155  1  0.24929689  0.08866300  0.91392928  1
  Te  Te156  1  0.22284012  0.40846224  0.25116570  1
  Te  Te157  1  0.20127165  0.44156529  0.59896025  1
  Te  Te158  1  0.23374719  0.39966688  0.90515403  1
  Te  Te159  1  0.24977448  0.74569592  0.24764804  1
  Te  Te160  1  0.25894840  0.70908856  0.56074891  1
  Te  Te161  1  0.25013481  0.73559881  0.92098623  1
  Te  Te162  1  0.59518943  0.09275073  0.24370115  1
  Te  Te163  1  0.56890343  0.09838265  0.58558107  1
  Te  Te164  1  0.56433390  0.10135105  0.96114635  1
  Te  Te165  1  0.58765353  0.39632953  0.24288547  1
  Te  Te166  1  0.58151279  0.42089849  0.57325896  1
  Te  Te167  1  0.62190185  0.37803704  0.96892676  1
  Te  Te168  1  0.64501965  0.77206793  0.29322025  1
  Te  Te169  1  0.58721114  0.75228591  0.58855035  1
  Te  Te170  1  0.59448289  0.74672491  0.92731277  1
  Te  Te171  1  0.93639970  0.09716106  0.24200954  1
  Te  Te172  1  0.91644550  0.09276096  0.56982904  1
  Te  Te173  1  0.90516618  0.09875924  0.94191483  1
  Te  Te174  1  0.91091939  0.39149426  0.25223473  1
  Te  Te175  1  0.88867601  0.44975786  0.60015388  1
  Te  Te176  1  0.92875790  0.42428712  0.91805885  1
  Te  Te177  1  0.91205456  0.75404862  0.29995520  1
  Te  Te178  1  0.94396991  0.72862950  0.54482606  1
  Te  Te179  1  0.90133489  0.75831403  0.92246251  1
