# generated using pymatgen
data_In2Te3
_symmetry_space_group_name_H-M   'P 1'
_cell_length_a   18.80561857
_cell_length_b   18.80486797
_cell_length_c   18.79863889
_cell_angle_alpha   90.18033386
_cell_angle_beta   89.94621325
_cell_angle_gamma   90.04530339
_symmetry_Int_Tables_number   1
_chemical_formula_structural   In2Te3
_chemical_formula_sum   'In72 Te108'
_cell_volume   6647.85961805
_cell_formula_units_Z   36
loop_
 _symmetry_equiv_pos_site_id
 _symmetry_equiv_pos_as_xyz
  1  'x, y, z'
loop_
 _atom_site_type_symbol
 _atom_site_label
 _atom_site_symmetry_multiplicity
 _atom_site_fract_x
 _atom_site_fract_y
 _atom_site_fract_z
 _atom_site_occupancy
  In  In0  1  0.16738429  0.67442385  0.18792559  1
  In  In1  1  0.84377516  0.36013192  0.47610928  1
  In  In2  1  0.49407756  0.69527240  0.82206605  1
  In  In3  1  0.82443002  0.68778573  0.86048100  1
  In  In4  1  0.46916437  0.00530672  0.51407974  1
  In  In5  1  -0.01579873  0.69083036  0.02117449  1
  In  In6  1  0.66487922  0.67853455  0.64424914  1
  In  In7  1  0.66116250  0.82767270  0.17637731  1
  In  In8  1  0.79996780  0.69044534  0.50231423  1
  In  In9  1  0.84626485  -0.02503878  0.49784572  1
  In  In10  1  0.15468219  0.50599536  0.01245644  1
  In  In11  1  0.01690471  0.49559728  0.83427315  1
  In  In12  1  0.32464269  0.16072562  0.48694719  1
  In  In13  1  0.83498156  0.86589230  -0.00507887  1
  In  In14  1  0.82209943  0.82437707  0.33209300  1
  In  In15  1  0.49447550  0.83594141  0.00323282  1
  In  In16  1  0.81042006  0.16433184  0.68950537  1
  In  In17  1  0.49998222  0.51642754  0.35794129  1
  In  In18  1  0.67217953  0.16856365  0.83439644  1
  In  In19  1  0.85505612  0.85530455  0.68249459  1
  In  In20  1  0.50342551  -0.01474486  0.17294803  1
  In  In21  1  0.01664518  0.32809678  0.02131911  1
  In  In22  1  0.50346206  -0.01344085  0.82473310  1
  In  In23  1  0.17301166  0.16822399  0.66396636  1
  In  In24  1  0.65447641  0.32975083  0.67001149  1
  In  In25  1  0.49288844  0.15454425  0.35568537  1
  In  In26  1  0.49337029  0.15793658  0.00251942  1
  In  In27  1  0.16583676  0.13542345  0.03087733  1
  In  In28  1  0.33506252  0.67144240  0.31693281  1
  In  In29  1  0.65319277  -0.00921407  0.66883110  1
  In  In30  1  0.33520808  0.16227402  0.16855748  1
  In  In31  1  0.01545318  0.31422068  0.32041148  1
  In  In32  1  0.65453379  0.50542709  0.16447551  1
  In  In33  1  0.83523258  0.32751221  0.80771037  1
  In  In34  1  0.18697612  0.71102982  0.84537604  1
  In  In35  1  0.02100851  0.31047728  0.67962757  1
  In  In36  1  0.00460527  0.83135155  0.49269314  1
  In  In37  1  0.01506406  0.17598987  0.50663111  1
  In  In38  1  0.49348192  0.31997187  0.84868364  1
  In  In39  1  0.01028268  0.00916409  0.67456854  1
  In  In40  1  0.20421633  0.48733731  0.30227696  1
  In  In41  1  0.16927554  0.15931368  0.31541336  1
  In  In42  1  0.19024813  -0.04041794  0.82879941  1
  In  In43  1  0.65324898  0.67235907  0.00575802  1
  In  In44  1  0.84654929  0.31546544  0.17105521  1
  In  In45  1  0.00470990  0.48799483  0.47788484  1
  In  In46  1  0.49241165  0.84344072  0.33753046  1
  In  In47  1  0.83590393  0.63508605  0.16352202  1
  In  In48  1  0.15577867  0.32222739  0.84937521  1
  In  In49  1  0.33384351  0.69357698  0.02182297  1
  In  In50  1  0.82896093  0.51742482  0.65713183  1
  In  In51  1  0.32092407  0.35396767  0.62536037  1
  In  In52  1  0.32682161  0.83579261  0.51128488  1
  In  In53  1  0.66447754  -0.01638417  0.31644605  1
  In  In54  1  0.32872489  0.50766387  0.83559275  1
  In  In55  1  0.49192468  0.51663658  0.65416818  1
  In  In56  1  0.02979798  0.67533445  0.68851439  1
  In  In57  1  0.48487395  0.48259587  0.01414483  1
  In  In58  1  0.84044805  0.14509260  0.27695055  1
  In  In59  1  0.34595680  0.67789694  0.66036301  1
  In  In60  1  0.47170002  0.33827724  0.48033045  1
  In  In61  1  0.17456399  0.00977253  0.48997891  1
  In  In62  1  0.80938051  0.49579057  0.31939055  1
  In  In63  1  0.48666676  0.32599890  0.16597979  1
  In  In64  1  0.34645406  0.16438436  0.84705618  1
  In  In65  1  0.83991450  0.09291527  0.02646333  1
  In  In66  1  0.84668951  0.52704165  -0.00400217  1
  In  In67  1  0.03098313  0.84688778  0.17596386  1
  In  In68  1  0.67256545  0.15849182  0.49570733  1
  In  In69  1  0.65470847  0.33921353  0.00117400  1
  In  In70  1  0.14855857  0.67608410  0.48355531  1
  In  In71  1  0.00421220  0.67500882  0.35602390  1
  Te  Te72  1  0.06071045  0.05689929  0.10546553  1
  Te  Te73  1  0.06715039  0.07683260  0.40577581  1
  Te  Te74  1  0.10696588  0.08017516  0.76787519  1
  Te  Te75  1  0.10098603  0.40898077  0.11555435  1
  Te  Te76  1  0.10589024  0.40961102  0.39863600  1
  Te  Te77  1  0.11180128  0.42516130  0.73822018  1
  Te  Te78  1  0.11016033  0.76016215  0.07021274  1
  Te  Te79  1  0.10567562  0.78601718  0.38572148  1
  Te  Te80  1  0.09081534  0.78738475  0.76161761  1
  Te  Te81  1  0.40631439  0.05946860  0.07906778  1
  Te  Te82  1  0.38714459  0.05284002  0.39430964  1
  Te  Te83  1  0.42019524  0.08374815  0.74900812  1
  Te  Te84  1  0.38706338  0.41984185  0.10626373  1
  Te  Te85  1  0.38682675  0.42876838  0.40271116  1
  Te  Te86  1  0.41477859  0.41216527  0.75012643  1
  Te  Te87  1  0.42159277  0.76991335  0.11629447  1
  Te  Te88  1  0.41668094  0.74493596  0.42623409  1
  Te  Te89  1  0.38902364  0.78455184  0.76117128  1
  Te  Te90  1  0.73636682  0.04006173  0.11487660  1
  Te  Te91  1  0.76265923  0.07035522  0.40799505  1
  Te  Te92  1  0.75292809  0.04615785  0.77186342  1
  Te  Te93  1  0.75911969  0.42675913  0.08237212  1
  Te  Te94  1  0.72590544  0.41023194  0.40495974  1
  Te  Te95  1  0.73941441  0.42982984  0.74881412  1
  Te  Te96  1  0.76731365  0.74544287  0.07832718  1
  Te  Te97  1  0.71195883  0.76771911  0.41218415  1
  Te  Te98  1  0.75594472  0.75696072  0.74559750  1
  Te  Te99  1  0.07725782  0.22687412  0.21952740  1
  Te  Te100  1  0.11706088  0.27164772  0.56430965  1
  Te  Te101  1  0.07726155  0.22173118  0.93027140  1
  Te  Te102  1  0.08103876  0.57788539  0.26758744  1
  Te  Te103  1  0.07881030  0.57701261  0.58035693  1
  Te  Te104  1  0.08543889  0.60549881  0.91524583  1
  Te  Te105  1  0.12265318  0.96053464  0.21613704  1
  Te  Te106  1  0.09156323  0.91879093  0.58320002  1
  Te  Te107  1  0.11013339  0.92586706  0.95003667  1
  Te  Te108  1  0.40636269  0.24895203  0.27223218  1
  Te  Te109  1  0.41306658  0.24229331  0.58373587  1
  Te  Te110  1  0.39821879  0.26596120  0.95261367  1
  Te  Te111  1  0.41805792  0.57053089  0.24655524  1
  Te  Te112  1  0.39510164  0.57864353  0.56306079  1
  Te  Te113  1  0.41906756  0.60125411  0.91937593  1
  Te  Te114  1  0.39854680  0.89508199  0.23068216  1
  Te  Te115  1  0.41874902  0.90288506  0.61028663  1
  Te  Te116  1  0.41033497  0.93097943  0.92792516  1
  Te  Te117  1  0.74288768  0.25149623  0.25332908  1
  Te  Te118  1  0.76207238  0.26224201  0.58032870  1
  Te  Te119  1  0.75892673  0.25727685  0.92195681  1
  Te  Te120  1  0.72196409  0.60594852  0.26069110  1
  Te  Te121  1  0.72722809  0.56423410  0.55431691  1
  Te  Te122  1  0.73051049  0.57815225  0.91236558  1
  Te  Te123  1  0.77611156  0.92881109  0.22309430  1
  Te  Te124  1  0.74640442  0.90092743  0.58233661  1
  Te  Te125  1  0.76145028  0.94199128  0.89285708  1
  Te  Te126  1  0.23884310  0.25083717  0.09430183  1
  Te  Te127  1  0.24496580  0.25182278  0.40394511  1
  Te  Te128  1  0.25988884  0.25947360  0.75377002  1
  Te  Te129  1  0.25512197  0.58682443  0.09569378  1
  Te  Te130  1  0.24774731  0.58579271  0.41268471  1
  Te  Te131  1  0.24504121  0.60194845  0.75315582  1
  Te  Te132  1  0.21894650  0.88727960  0.04345023  1
  Te  Te133  1  0.25646384  0.91746338  0.40877843  1
  Te  Te134  1  0.28691591  0.90042947  0.73175193  1
  Te  Te135  1  0.58997375  0.23731680  0.09194526  1
  Te  Te136  1  0.58824122  0.25654099  0.41663577  1
  Te  Te137  1  0.56545629  0.23235967  0.74645259  1
  Te  Te138  1  0.55487273  0.59550859  0.09238522  1
  Te  Te139  1  0.57518091  0.60457316  0.45328929  1
  Te  Te140  1  0.58299823  0.59659386  0.74637055  1
  Te  Te141  1  0.60630994  0.92541627  0.07456290  1
  Te  Te142  1  0.57783896  0.93342600  0.42966959  1
  Te  Te143  1  0.57115650  0.88721191  0.73469918  1
  Te  Te144  1  0.91128875  0.22597169  0.06724090  1
  Te  Te145  1  0.91089366  0.23825016  0.41069221  1
  Te  Te146  1  0.93425450  0.21859577  0.76564198  1
  Te  Te147  1  0.95374185  0.56188007  0.09727236  1
  Te  Te148  1  0.89752093  0.58874016  0.42534652  1
  Te  Te149  1  0.91379888  0.59193904  0.76376195  1
  Te  Te150  1  0.93909767  0.92665304  0.08568676  1
  Te  Te151  1  0.93264641  0.91651765  0.38695455  1
  Te  Te152  1  0.93628583  0.93395356  0.78161028  1
  Te  Te153  1  0.24731186  0.05697467  0.23338573  1
  Te  Te154  1  0.26658532  0.06980777  0.59696213  1
  Te  Te155  1  0.25236329  0.07190872  0.92169826  1
  Te  Te156  1  0.23771958  0.38359072  0.20118763  1
  Te  Te157  1  0.20725325  0.43718628  0.59696822  1
  Te  Te158  1  0.24707493  0.41721824  0.92846413  1
  Te  Te159  1  0.25849858  0.77720727  0.24430832  1
  Te  Te160  1  0.22728935  0.75019419  0.59048873  1
  Te  Te161  1  0.28014852  0.80158129  0.92861094  1
  Te  Te162  1  0.58249381  0.09276665  0.24868596  1
  Te  Te163  1  0.57310002  0.09273314  0.58928657  1
  Te  Te164  1  0.59310709  0.07599250  0.92401661  1
  Te  Te165  1  0.57520039  0.41445691  0.25378054  1
  Te  Te166  1  0.57086524  0.41178703  0.57529453  1
  Te  Te167  1  0.58123229  0.43170154  0.90522012  1
  Te  Te168  1  0.56944365  0.74534070  0.25500987  1
  Te  Te169  1  0.56587056  0.72556441  0.54734898  1
  Te  Te170  1  0.59660198  0.77260572  0.90655516  1
  Te  Te171  1  0.95047195  0.07080187  0.21718726  1
  Te  Te172  1  0.90882905  0.08549415  0.58589713  1
  Te  Te173  1  0.90423350  0.03302729  0.90773971  1
  Te  Te174  1  0.92199193  0.41975549  0.25287537  1
  Te  Te175  1  0.92791466  0.41156731  0.60225583  1
  Te  Te176  1  0.92133515  0.40912712  0.91678680  1
  Te  Te177  1  0.92426536  0.74421823  0.23781947  1
  Te  Te178  1  0.92313912  0.74265372  0.58838484  1
  Te  Te179  1  0.93639258  0.77737419  0.90856676  1
