# generated using pymatgen
data_In2Te3
_symmetry_space_group_name_H-M   'P 1'
_cell_length_a   18.78230388
_cell_length_b   18.78976072
_cell_length_c   18.78017072
_cell_angle_alpha   90.02973443
_cell_angle_beta   89.92640838
_cell_angle_gamma   89.94162138
_symmetry_Int_Tables_number   1
_chemical_formula_structural   In2Te3
_chemical_formula_sum   'In72 Te108'
_cell_volume   6627.79406308
_cell_formula_units_Z   36
loop_
 _symmetry_equiv_pos_site_id
 _symmetry_equiv_pos_as_xyz
  1  'x, y, z'
loop_
 _atom_site_type_symbol
 _atom_site_label
 _atom_site_symmetry_multiplicity
 _atom_site_fract_x
 _atom_site_fract_y
 _atom_site_fract_z
 _atom_site_occupancy
  In  In0  1  0.48168447  0.17778087  0.30875381  1
  In  In1  1  0.34731543  0.66591679  0.65689893  1
  In  In2  1  0.17055679  0.48633198  0.34222143  1
  In  In3  1  0.65576607  0.80701509  0.49048701  1
  In  In4  1  0.01651616  -0.00685791  0.66987965  1
  In  In5  1  0.36138842  0.32140884  0.31045704  1
  In  In6  1  0.34904324  0.67867388  0.33395398  1
  In  In7  1  0.63303301  0.35268695  0.30751695  1
  In  In8  1  0.66650672  0.81409803  0.85163823  1
  In  In9  1  0.81175822  0.65910817  0.85580978  1
  In  In10  1  0.81104457  0.67094464  0.17057644  1
  In  In11  1  0.65223248  0.66917739  0.02591412  1
  In  In12  1  0.35306439  -0.03320595  0.30507653  1
  In  In13  1  0.34337415  0.83352775  0.82363780  1
  In  In14  1  0.32717494  0.00394513  0.65469197  1
  In  In15  1  -0.01156048  0.69196921  -0.01120782  1
  In  In16  1  0.83814333  0.03929259  0.84831295  1
  In  In17  1  0.48482999  0.33281344  0.49782826  1
  In  In18  1  0.02330500  0.15643130  0.49580844  1
  In  In19  1  0.01160834  0.00955741  0.34119331  1
  In  In20  1  -0.00444563  0.49405707  0.82603216  1
  In  In21  1  0.83893451  0.34394817  0.50643126  1
  In  In22  1  0.78926465  0.49282193  0.67749993  1
  In  In23  1  0.78297803  0.50695699  0.01706038  1
  In  In24  1  0.18319085  0.01981839  0.15740777  1
  In  In25  1  0.34920330  0.47355625  0.16608274  1
  In  In26  1  0.17189565  0.67229561  0.50316137  1
  In  In27  1  -0.01715054  0.84746247  0.15887185  1
  In  In28  1  0.51132480  0.52220276  0.67941588  1
  In  In29  1  0.16440839  0.84801353  -0.01876529  1
  In  In30  1  0.51151921  0.50226295  0.32478389  1
  In  In31  1  0.38339613  0.67646715  0.01931647  1
  In  In32  1  0.34611896  0.50449057  0.86495914  1
  In  In33  1  0.00374886  0.18027150  0.14676795  1
  In  In34  1  0.17450361  0.64800644  0.17854336  1
  In  In35  1  0.66310502  0.15983842  0.52104644  1
  In  In36  1  0.50137243  0.82477762  0.66655859  1
  In  In37  1  0.50022766  0.00668375  0.85683234  1
  In  In38  1  0.00977817  0.33301870  0.30312048  1
  In  In39  1  -0.00657090  0.33605824  -0.01639137  1
  In  In40  1  0.32154641  0.32655076  0.67819438  1
  In  In41  1  0.14553768  0.01527972  0.84092750  1
  In  In42  1  0.83232101  0.16064123  0.70307843  1
  In  In43  1  0.65563322  0.17249402  0.17994354  1
  In  In44  1  0.17997502  0.47373974  -0.00172932  1
  In  In45  1  0.52836003  -0.00698781  0.49669445  1
  In  In46  1  0.82509500  0.82900898  0.33395000  1
  In  In47  1  0.83863543  0.81378748  0.67068456  1
  In  In48  1  0.84267169  -0.01188792  0.49374470  1
  In  In49  1  0.35495866  0.00835081  0.03178668  1
  In  In50  1  0.50901017  0.33902418  0.16084220  1
  In  In51  1  0.15435055  0.81868393  0.65191333  1
  In  In52  1  0.63446177  0.00114145  0.33276221  1
  In  In53  1  0.65152635  -0.00167903  0.01018746  1
  In  In54  1  0.64693167  0.80793238  0.17227711  1
  In  In55  1  0.16509867  0.47905799  0.66676729  1
  In  In56  1  0.32579711  0.16463589  0.50821444  1
  In  In57  1  0.51163330  0.33942073  0.86853798  1
  In  In58  1  0.85993757  0.53521228  0.34640752  1
  In  In59  1  -0.01878925  0.33109625  0.67756186  1
  In  In60  1  0.82812963  -0.00867656  0.13642878  1
  In  In61  1  0.82296444  0.17984529  0.31202043  1
  In  In62  1  0.68799327  0.01376235  0.68288866  1
  In  In63  1  0.64388082  0.34219360  0.70075675  1
  In  In64  1  0.00682995  0.50199921  0.15910653  1
  In  In65  1  0.00460783  0.67974620  0.65941238  1
  In  In66  1  0.16893171  0.34055923  0.49419860  1
  In  In67  1  0.66791104  0.51940876  0.48467501  1
  In  In68  1  0.34115820  0.19033417  0.84669553  1
  In  In69  1  0.15928208  0.67576215  0.82229246  1
  In  In70  1  0.17432815  0.18059481  0.00939260  1
  In  In71  1  0.17099797  0.82884335  0.35347844  1
  Te  Te72  1  0.07387371  0.07147898  0.06644336  1
  Te  Te73  1  0.11848171  0.07788314  0.41562234  1
  Te  Te74  1  0.06424628  0.10310267  0.75454868  1
  Te  Te75  1  0.09021066  0.39480066  0.09189171  1
  Te  Te76  1  0.05854045  0.41766624  0.42132689  1
  Te  Te77  1  0.09452510  0.39348251  0.76904166  1
  Te  Te78  1  0.09273974  0.74611243  0.08817105  1
  Te  Te79  1  0.06990294  0.73307465  0.41117592  1
  Te  Te80  1  0.06019681  0.77508257  0.76642621  1
  Te  Te81  1  0.45442329  0.09928800  0.09129607  1
  Te  Te82  1  0.42972285  0.08603022  0.42160265  1
  Te  Te83  1  0.40778164  0.07946431  0.75958012  1
  Te  Te84  1  0.42119397  0.40428149  0.05525404  1
  Te  Te85  1  0.40717833  0.42853768  0.40929099  1
  Te  Te86  1  0.42393571  0.41921284  0.75330180  1
  Te  Te87  1  0.45224014  0.76504745  0.11637590  1
  Te  Te88  1  0.45591132  0.75541511  0.40345999  1
  Te  Te89  1  0.43540137  0.72610734  0.76619892  1
  Te  Te90  1  0.74620107  0.10217405  0.07520629  1
  Te  Te91  1  0.74716734  0.08173670  0.41016977  1
  Te  Te92  1  0.71394990  0.11672191  0.79145512  1
  Te  Te93  1  0.71106471  0.37592619  0.04295101  1
  Te  Te94  1  0.74387066  0.40911375  0.40620901  1
  Te  Te95  1  0.76588329  0.38331323  0.77325107  1
  Te  Te96  1  0.75846315  0.76959097  0.06863946  1
  Te  Te97  1  0.74300163  0.72733885  0.40186942  1
  Te  Te98  1  0.72997803  0.73298490  0.73848250  1
  Te  Te99  1  0.09535572  0.22447944  0.25353490  1
  Te  Te100  1  0.08628089  0.25688453  0.59182709  1
  Te  Te101  1  0.08303723  0.24233657  0.91056832  1
  Te  Te102  1  0.07366624  0.58198052  0.27045099  1
  Te  Te103  1  0.08334511  0.57363418  0.58114818  1
  Te  Te104  1  0.08649097  0.57949603  0.92416188  1
  Te  Te105  1  0.09140519  0.91673318  0.24194370  1
  Te  Te106  1  0.07958210  0.91157865  0.56549274  1
  Te  Te107  1  0.05549980  0.92098572  0.91415112  1
  Te  Te108  1  0.38989813  0.22962408  0.18660113  1
  Te  Te109  1  0.42373052  0.23991531  0.59983343  1
  Te  Te110  1  0.40509949  0.27331761  0.95359213  1
  Te  Te111  1  0.42214109  0.58812023  0.23196588  1
  Te  Te112  1  0.43062428  0.58016741  0.57074474  1
  Te  Te113  1  0.45423188  0.58107424  0.93062684  1
  Te  Te114  1  0.43618696  0.89226499  0.20664165  1
  Te  Te115  1  0.41995398  0.91374805  0.57311406  1
  Te  Te116  1  0.41961478  0.90323378  0.93429976  1
  Te  Te117  1  0.75022312  0.28347601  0.23055658  1
  Te  Te118  1  0.75441622  0.25379832  0.59882313  1
  Te  Te119  1  0.82556199  0.21892672  0.93327494  1
  Te  Te120  1  0.74554032  0.57539773  0.26121333  1
  Te  Te121  1  0.76206922  0.59133171  0.57270996  1
  Te  Te122  1  0.70076959  0.55913092  0.88828174  1
  Te  Te123  1  0.73968883  0.92334383  0.24328394  1
  Te  Te124  1  0.73480093  0.91515901  0.57374051  1
  Te  Te125  1  0.74583721  0.92920421  0.91150388  1
  Te  Te126  1  0.25422276  0.25044559  0.10892865  1
  Te  Te127  1  0.25743528  0.25410313  0.40515656  1
  Te  Te128  1  0.23975533  0.22443128  0.74502238  1
  Te  Te129  1  0.26393371  0.57941960  0.07472805  1
  Te  Te130  1  0.26149951  0.58332976  0.41681924  1
  Te  Te131  1  0.25267126  0.57611879  0.75048739  1
  Te  Te132  1  0.25693117  0.90346299  0.08812123  1
  Te  Te133  1  0.27261685  0.91349822  0.41712720  1
  Te  Te134  1  0.23597372  0.91304461  0.75142614  1
  Te  Te135  1  0.59947657  0.25876196  0.06804537  1
  Te  Te136  1  0.58619535  0.24247059  0.40850514  1
  Te  Te137  1  0.56473571  0.24012989  0.77166480  1
  Te  Te138  1  0.56533314  0.57429519  0.09556168  1
  Te  Te139  1  0.56992282  0.60660873  0.41340015  1
  Te  Te140  1  0.62530258  0.57903765  0.75049671  1
  Te  Te141  1  0.56393774  0.89978266  0.08486633  1
  Te  Te142  1  0.55216296  0.88137964  0.38755214  1
  Te  Te143  1  0.58565123  0.91794187  0.75617593  1
  Te  Te144  1  0.89888392  0.26188397  0.07710510  1
  Te  Te145  1  0.91676870  0.24576937  0.41478215  1
  Te  Te146  1  0.90850364  0.25879210  0.78878392  1
  Te  Te147  1  0.91127797  0.58889111  0.07498657  1
  Te  Te148  1  0.93688644  0.63334553  0.42301896  1
  Te  Te149  1  0.90935369  0.59339289  0.75062112  1
  Te  Te150  1  0.92335719  0.92231277  0.04638349  1
  Te  Te151  1  0.93578191  0.89841309  0.41566157  1
  Te  Te152  1  0.89141144  0.93743492  0.73909871  1
  Te  Te153  1  0.27054495  0.08081793  0.25861430  1
  Te  Te154  1  0.22638528  0.08592749  0.58517880  1
  Te  Te155  1  0.26353033  0.07133432  0.92348293  1
  Te  Te156  1  0.24059523  0.39821811  0.24015928  1
  Te  Te157  1  0.27079652  0.42482692  0.57161396  1
  Te  Te158  1  0.25904902  0.39188061  0.90492626  1
  Te  Te159  1  0.25562888  0.75830653  0.24398899  1
  Te  Te160  1  0.27270505  0.76620615  0.56982009  1
  Te  Te161  1  0.26153938  0.73661115  0.92039008  1
  Te  Te162  1  0.54847090  0.06579159  0.21873612  1
  Te  Te163  1  0.56969695  0.08402009  0.61312726  1
  Te  Te164  1  0.56243429  0.10423326  0.95024199  1
  Te  Te165  1  0.60239087  0.46188869  0.19849394  1
  Te  Te166  1  0.59186916  0.41165011  0.57297251  1
  Te  Te167  1  0.61140729  0.42502368  0.93759409  1
  Te  Te168  1  0.55455142  0.74753866  0.27245744  1
  Te  Te169  1  0.57376537  0.72662647  0.58324477  1
  Te  Te170  1  0.56450903  0.74216495  0.92948756  1
  Te  Te171  1  0.91133827  0.07290891  0.24265949  1
  Te  Te172  1  0.90724804  0.09613788  0.57927993  1
  Te  Te173  1  0.93463210  0.12114936  0.92809961  1
  Te  Te174  1  0.90479762  0.42464031  0.24195961  1
  Te  Te175  1  0.91757090  0.43919798  0.59286035  1
  Te  Te176  1  0.89626144  0.44159478  0.92818776  1
  Te  Te177  1  0.92127274  0.74179606  0.24831057  1
  Te  Te178  1  0.90888983  0.74113556  0.56150125  1
  Te  Te179  1  0.90103670  0.76872960  0.89914586  1
