# generated using pymatgen
data_In2Te3
_symmetry_space_group_name_H-M   'P 1'
_cell_length_a   18.82227817
_cell_length_b   18.82894070
_cell_length_c   18.81870188
_cell_angle_alpha   89.95063614
_cell_angle_beta   89.91735506
_cell_angle_gamma   90.02511095
_symmetry_Int_Tables_number   1
_chemical_formula_structural   In2Te3
_chemical_formula_sum   'In72 Te108'
_cell_volume   6669.40487601
_cell_formula_units_Z   36
loop_
 _symmetry_equiv_pos_site_id
 _symmetry_equiv_pos_as_xyz
  1  'x, y, z'
loop_
 _atom_site_type_symbol
 _atom_site_label
 _atom_site_symmetry_multiplicity
 _atom_site_fract_x
 _atom_site_fract_y
 _atom_site_fract_z
 _atom_site_occupancy
  In  In0  1  0.84688778  0.16635990  0.02583414  1
  In  In1  1  0.65939012  0.86296579  0.49318487  1
  In  In2  1  0.03039604  -0.01621334  0.01516106  1
  In  In3  1  0.02591636  0.84650498  0.16072519  1
  In  In4  1  0.85866265  0.50659693  -0.02990186  1
  In  In5  1  0.49693747  -0.00848663  0.49526287  1
  In  In6  1  0.16268866  0.66624516  0.49667064  1
  In  In7  1  0.82331684  0.83187470  0.33056044  1
  In  In8  1  0.48175207  0.83385747  -0.00638157  1
  In  In9  1  0.50467247  0.66350046  0.86161770  1
  In  In10  1  0.86275558  0.35339705  0.83780050  1
  In  In11  1  0.66826508  0.51633507  0.82807635  1
  In  In12  1  0.00536044  0.67808032  0.00148297  1
  In  In13  1  0.81954630  -0.00466423  0.51337412  1
  In  In14  1  0.67497907  0.02139726  -0.00533692  1
  In  In15  1  0.65588736  0.15909411  0.19085950  1
  In  In16  1  0.00058225  0.50108604  0.50445120  1
  In  In17  1  0.65034686  0.82619835  0.18752384  1
  In  In18  1  0.49780006  0.32651114  0.51128663  1
  In  In19  1  0.34252173  0.11776746  0.81769378  1
  In  In20  1  0.48414311  0.67006081  0.47185358  1
  In  In21  1  0.33187454  0.68263181  0.01908715  1
  In  In22  1  0.01889825  0.66107474  0.33482089  1
  In  In23  1  0.65642914  0.32416471  0.65851495  1
  In  In24  1  0.49391829  0.51965705  0.31290740  1
  In  In25  1  0.00262485  0.67509618  0.68205530  1
  In  In26  1  0.47716565  0.51671979  0.01035527  1
  In  In27  1  0.34765850  0.32016617  0.30143316  1
  In  In28  1  0.81363912  0.66994794  0.16309894  1
  In  In29  1  0.84487301  0.16122724  0.67769065  1
  In  In30  1  0.17519648  0.34013262  0.85200047  1
  In  In31  1  0.83754258  -0.00738418  0.82448847  1
  In  In32  1  0.32362311  0.13916781  0.51147641  1
  In  In33  1  0.82570787  0.70494843  0.84703318  1
  In  In34  1  0.67121151  0.67770802  0.68248682  1
  In  In35  1  0.16517601  0.32551227  0.50648669  1
  In  In36  1  0.82228011  0.68287801  0.49859764  1
  In  In37  1  0.01539118  0.00066938  0.33201964  1
  In  In38  1  0.33991328  0.33537448  0.66003116  1
  In  In39  1  0.81154065  0.47842212  0.32093610  1
  In  In40  1  0.02632212  0.49898218  0.82312691  1
  In  In41  1  0.67120238  0.33053617  0.34139409  1
  In  In42  1  0.02262100  0.14313868  0.16756409  1
  In  In43  1  0.31345620  0.50643439  0.48148198  1
  In  In44  1  0.32407331  0.82342911  0.48395663  1
  In  In45  1  0.03630756  0.47943748  0.14082266  1
  In  In46  1  0.33238474  0.49791337  0.15957397  1
  In  In47  1  0.85123849  0.31779847  0.17782574  1
  In  In48  1  0.18156603  0.50936681  0.34169187  1
  In  In49  1  0.48551887  0.15557393  0.01030120  1
  In  In50  1  0.32107598  0.18924434  0.13984319  1
  In  In51  1  0.50945557  0.84781212  0.67015806  1
  In  In52  1  0.84901070  0.51256961  0.64942078  1
  In  In53  1  0.49499842  0.00393424  0.17673690  1
  In  In54  1  0.16266385  0.16928951  0.65638670  1
  In  In55  1  0.65827619  0.14364275  0.49966688  1
  In  In56  1  0.16344053  0.15552607  0.33316004  1
  In  In57  1  0.68200837  0.34077456  -0.00287437  1
  In  In58  1  0.86377809  0.30956319  0.46463776  1
  In  In59  1  0.17121914  0.67590308  0.82806479  1
  In  In60  1  0.66432731  0.14648331  0.84696708  1
  In  In61  1  -0.01454222  -0.00586538  0.64968524  1
  In  In62  1  0.47612308  0.32743871  0.83638042  1
  In  In63  1  0.47365085  0.34515788  0.16835244  1
  In  In64  1  0.32521941  -0.02730784  0.32097002  1
  In  In65  1  0.33719352  0.85570352  0.82028021  1
  In  In66  1  0.64770710  0.70646852  0.01226966  1
  In  In67  1  0.66279829  0.52337059  0.14305712  1
  In  In68  1  0.16364220  -0.01120050  0.84732640  1
  In  In69  1  0.01729150  0.18331508  0.85454511  1
  In  In70  1  0.00999434  0.81291450  0.51299884  1
  In  In71  1  0.31854145  0.65527896  0.67126361  1
  Te  Te72  1  0.12445120  0.08039898  0.07830463  1
  Te  Te73  1  0.10022204  0.06777794  0.43407073  1
  Te  Te74  1  0.07203070  0.08154574  0.75412312  1
  Te  Te75  1  0.14486195  0.40972848  0.06170215  1
  Te  Te76  1  0.08386789  0.41533190  0.41140148  1
  Te  Te77  1  0.09067895  0.39470376  0.74304430  1
  Te  Te78  1  0.11296398  0.74622461  0.08610867  1
  Te  Te79  1  0.10296927  0.76927633  0.39782943  1
  Te  Te80  1  0.08036000  0.77265775  0.75967328  1
  Te  Te81  1  0.38933131  0.06099712  0.08181966  1
  Te  Te82  1  0.40804314  0.07591275  0.40316693  1
  Te  Te83  1  0.44466068  0.05485252  0.72978115  1
  Te  Te84  1  0.39275632  0.39438611  0.05124208  1
  Te  Te85  1  0.41418397  0.41459471  0.40682073  1
  Te  Te86  1  0.41086288  0.42670331  0.75202876  1
  Te  Te87  1  0.40133029  0.78058730  0.10912614  1
  Te  Te88  1  0.42851595  0.77832597  0.38763667  1
  Te  Te89  1  0.41934959  0.74232399  0.75241971  1
  Te  Te90  1  0.75819314  0.07778570  0.11031238  1
  Te  Te91  1  0.75087214  0.07344729  0.40923323  1
  Te  Te92  1  0.73799146  0.07098166  0.73639387  1
  Te  Te93  1  0.77238600  0.42294391  0.08540091  1
  Te  Te94  1  0.74905546  0.41332608  0.44216617  1
  Te  Te95  1  0.75340494  0.41653516  0.74975623  1
  Te  Te96  1  0.76051877  0.78218890  0.07897620  1
  Te  Te97  1  0.72094355  0.74936999  0.40869590  1
  Te  Te98  1  0.74148199  0.78427416  0.75533061  1
  Te  Te99  1  0.06752910  0.25101199  0.26763480  1
  Te  Te100  1  0.06673403  0.23226071  0.56267503  1
  Te  Te101  1  0.13161596  0.22566507  0.94172326  1
  Te  Te102  1  0.10174756  0.58457063  0.23368348  1
  Te  Te103  1  0.08881529  0.58010904  0.59960145  1
  Te  Te104  1  0.09749475  0.58241803  0.92737271  1
  Te  Te105  1  0.12165949  0.93579191  0.23944824  1
  Te  Te106  1  0.08995378  0.91704531  0.57848976  1
  Te  Te107  1  0.07641551  0.88641817  0.91216003  1
  Te  Te108  1  0.44051322  0.21743345  0.24036003  1
  Te  Te109  1  0.42137220  0.22447126  0.59482813  1
  Te  Te110  1  0.39224451  0.23088248  0.91672729  1
  Te  Te111  1  0.39045014  0.60167355  0.24864348  1
  Te  Te112  1  0.40926227  0.58046678  0.57357918  1
  Te  Te113  1  0.38682908  0.58195443  0.90816954  1
  Te  Te114  1  0.41375324  0.88860340  0.23209083  1
  Te  Te115  1  0.40203649  0.91081596  0.58349116  1
  Te  Te116  1  0.38508293  0.93220287  0.93809578  1
  Te  Te117  1  0.76470387  0.23335694  0.27031653  1
  Te  Te118  1  0.75875000  0.24445415  0.57808158  1
  Te  Te119  1  0.76907713  0.24640431  0.90901714  1
  Te  Te120  1  0.72867957  0.59343459  0.26452610  1
  Te  Te121  1  0.73620226  0.58403597  0.57901864  1
  Te  Te122  1  0.73503846  0.59673832  0.93974835  1
  Te  Te123  1  0.73812340  0.92413860  0.25441718  1
  Te  Te124  1  0.74277470  0.90914207  0.60530732  1
  Te  Te125  1  0.74921885  0.91968003  0.91880799  1
  Te  Te126  1  0.20599120  0.26707410  0.08844908  1
  Te  Te127  1  0.26811093  0.25362365  0.41707828  1
  Te  Te128  1  0.25893667  0.23970537  0.75230068  1
  Te  Te129  1  0.23973499  0.58943881  0.08899252  1
  Te  Te130  1  0.26831743  0.62453663  0.39328861  1
  Te  Te131  1  0.23762278  0.56550357  0.75508045  1
  Te  Te132  1  0.19919078  0.89362897  0.10351405  1
  Te  Te133  1  0.23166638  0.92478687  0.42560309  1
  Te  Te134  1  0.24773479  0.93776092  0.73315175  1
  Te  Te135  1  0.58899496  0.24868588  0.07778140  1
  Te  Te136  1  0.57286118  0.23865807  0.41213294  1
  Te  Te137  1  0.57878179  0.24241159  0.76173621  1
  Te  Te138  1  0.54842740  0.62338322  0.10051009  1
  Te  Te139  1  0.58011675  0.56990569  0.41915874  1
  Te  Te140  1  0.56441759  0.58459283  0.74313638  1
  Te  Te141  1  0.58308681  0.92374933  0.07770735  1
  Te  Te142  1  0.57119559  0.91840339  0.38726795  1
  Te  Te143  1  0.55343462  0.95188927  0.76313669  1
  Te  Te144  1  0.95181672  0.25877807  0.08145426  1
  Te  Te145  1  0.94322527  0.24133955  0.36477222  1
  Te  Te146  1  0.93950380  0.26000606  0.74536459  1
  Te  Te147  1  0.92139441  0.58124575  0.09590406  1
  Te  Te148  1  0.90852445  0.58558246  0.41370179  1
  Te  Te149  1  0.90136184  0.58663458  0.77237042  1
  Te  Te150  1  0.92180400  0.93329303  0.10179103  1
  Te  Te151  1  0.91889003  0.90517275  0.42434386  1
  Te  Te152  1  0.93141224  0.90353837  0.75319455  1
  Te  Te153  1  0.26086135  0.08827157  0.23968160  1
  Te  Te154  1  0.24964669  0.05605057  0.61064376  1
  Te  Te155  1  0.25354122  0.07328457  0.93054406  1
  Te  Te156  1  0.23887251  0.40600444  0.24324423  1
  Te  Te157  1  0.23950216  0.42836996  0.59003769  1
  Te  Te158  1  0.25225706  0.42349069  0.94607394  1
  Te  Te159  1  0.20951652  0.79802882  0.21388945  1
  Te  Te160  1  0.23518619  0.75626392  0.59496432  1
  Te  Te161  1  0.25525356  0.76666139  0.91705496  1
  Te  Te162  1  0.58951571  0.05871925  0.27904497  1
  Te  Te163  1  0.56953094  0.07390678  0.59727890  1
  Te  Te164  1  0.55224728  0.06234866  0.90924486  1
  Te  Te165  1  0.59442725  0.41173462  0.23122655  1
  Te  Te166  1  0.57350939  0.42402821  0.59068850  1
  Te  Te167  1  0.58132589  0.43038403  0.92615663  1
  Te  Te168  1  0.57777471  0.70666791  0.22993970  1
  Te  Te169  1  0.57763599  0.74825877  0.57534089  1
  Te  Te170  1  0.58965466  0.78405041  0.89468061  1
  Te  Te171  1  0.91912015  0.06773511  0.24220784  1
  Te  Te172  1  0.92025190  0.10045177  0.55961020  1
  Te  Te173  1  0.92241193  0.08228252  0.92311208  1
  Te  Te174  1  0.93208100  0.42780532  0.24754453  1
  Te  Te175  1  0.92285400  0.39907566  0.58482750  1
  Te  Te176  1  0.96476783  0.40426154  0.93592255  1
  Te  Te177  1  0.92299552  0.74476867  0.24767898  1
  Te  Te178  1  0.89935852  0.75786433  0.60471539  1
  Te  Te179  1  0.92360923  0.77766219  0.92945352  1
