# generated using pymatgen
data_In2Te3
_symmetry_space_group_name_H-M   'P 1'
_cell_length_a   18.78453858
_cell_length_b   18.78612924
_cell_length_c   18.78334312
_cell_angle_alpha   89.98128134
_cell_angle_beta   89.99259860
_cell_angle_gamma   90.05910613
_symmetry_Int_Tables_number   1
_chemical_formula_structural   In2Te3
_chemical_formula_sum   'In72 Te108'
_cell_volume   6628.42690357
_cell_formula_units_Z   36
loop_
 _symmetry_equiv_pos_site_id
 _symmetry_equiv_pos_as_xyz
  1  'x, y, z'
loop_
 _atom_site_type_symbol
 _atom_site_label
 _atom_site_symmetry_multiplicity
 _atom_site_fract_x
 _atom_site_fract_y
 _atom_site_fract_z
 _atom_site_occupancy
  In  In0  1  0.47734359  0.16284532  -0.00083405  1
  In  In1  1  0.63555532  0.01005889  0.67663764  1
  In  In2  1  0.48368737  0.16074814  0.63386206  1
  In  In3  1  0.84788081  0.83248704  -0.02003616  1
  In  In4  1  0.01487008  0.32065635  0.63915735  1
  In  In5  1  0.00419541  0.18535897  0.19200454  1
  In  In6  1  0.65576319  0.66551611  0.35270699  1
  In  In7  1  0.46694087  0.81166829  0.35347750  1
  In  In8  1  0.17634347  0.19171430  0.00221319  1
  In  In9  1  0.85598365  0.64787724  0.16635518  1
  In  In10  1  0.32052756  0.67612611  0.65420338  1
  In  In11  1  0.51610125  -0.01122339  0.82929802  1
  In  In12  1  0.30926446  0.32897684  0.33385560  1
  In  In13  1  0.33086020  0.34723843  0.00521322  1
  In  In14  1  -0.01728295  0.01388936  0.00010543  1
  In  In15  1  0.02487788  0.83393010  0.19039134  1
  In  In16  1  0.48317836  0.50551579  -0.03285123  1
  In  In17  1  0.67062524  0.02229116  0.34026506  1
  In  In18  1  0.18379298  0.49553854  0.66686199  1
  In  In19  1  0.45766516  0.64921915  0.19319550  1
  In  In20  1  -0.00099728  0.33276570  0.01434582  1
  In  In21  1  -0.00728119  0.47333125  0.17353816  1
  In  In22  1  0.17004317  -0.01547118  0.16672843  1
  In  In23  1  0.04817865  0.02552417  0.64651144  1
  In  In24  1  0.17679294  0.82545067  0.00113435  1
  In  In25  1  0.67013720  0.35712941  0.00749382  1
  In  In26  1  0.02585201  0.47811608  0.51250293  1
  In  In27  1  0.17884364  0.49498533  0.35071793  1
  In  In28  1  0.32436352  0.18399725  0.81068888  1
  In  In29  1  0.65112808  0.83749762  0.83279918  1
  In  In30  1  0.19519048  0.64913528  0.15864755  1
  In  In31  1  0.32459999  -0.01120405  0.02525203  1
  In  In32  1  0.66078192  0.68100465  -0.01452634  1
  In  In33  1  0.66574925  0.18783432  0.82751980  1
  In  In34  1  0.84164259  0.03267281  0.17917239  1
  In  In35  1  0.49022008  0.32910724  0.49154837  1
  In  In36  1  0.83007461  0.48391447  0.32100720  1
  In  In37  1  0.03292193  0.52296552  0.86348272  1
  In  In38  1  0.82974167  0.66263681  0.49751003  1
  In  In39  1  0.34333500  -0.01232161  0.34558798  1
  In  In40  1  0.81640849  0.50306751  0.00905200  1
  In  In41  1  0.82042878  0.18875143  0.64849796  1
  In  In42  1  0.83044394  0.00951673  0.47256103  1
  In  In43  1  0.33362831  0.81393831  0.83251228  1
  In  In44  1  0.65587789  0.32309229  0.32443898  1
  In  In45  1  0.01114819  0.85860687  0.50179752  1
  In  In46  1  0.65185182  0.81223167  0.51681516  1
  In  In47  1  0.19285473  0.82718065  0.33569054  1
  In  In48  1  0.17311515  0.34881392  0.82736579  1
  In  In49  1  0.03794073  0.65027660  0.67852735  1
  In  In50  1  0.82921847  0.67019061  0.84358130  1
  In  In51  1  0.83614495  -0.00173445  0.85780667  1
  In  In52  1  0.02352664  0.81199365  0.81408604  1
  In  In53  1  0.65284221  0.33073951  0.65617652  1
  In  In54  1  0.49127968  0.34934972  0.17882836  1
  In  In55  1  0.49384204  0.00416298  0.49748908  1
  In  In56  1  0.49755322  0.80909052  0.02381206  1
  In  In57  1  0.31082528  0.01920904  0.62849139  1
  In  In58  1  0.33967863  0.18428333  0.15707571  1
  In  In59  1  0.84390925  0.47750382  0.65928401  1
  In  In60  1  0.32455801  0.51249527  0.50667198  1
  In  In61  1  0.63014052  0.51035704  0.49164302  1
  In  In62  1  0.82396854  0.33601747  0.82207286  1
  In  In63  1  0.65378662  0.48085401  0.13994281  1
  In  In64  1  -0.01032068  0.17155858  0.47896835  1
  In  In65  1  0.66076976  0.84831953  0.16894035  1
  In  In66  1  0.17364073  0.00156400  0.82032525  1
  In  In67  1  0.62835410  0.64828478  0.68247404  1
  In  In68  1  0.66991466  0.16019123  0.17259883  1
  In  In69  1  0.15691434  0.16605826  0.34470293  1
  In  In70  1  0.00478537  0.67561769  0.33795830  1
  In  In71  1  0.84405878  0.84168262  0.65514278  1
  Te  Te72  1  0.09316164  0.08604874  0.08148723  1
  Te  Te73  1  0.07780949  0.06580103  0.42206995  1
  Te  Te74  1  0.09152006  0.10753954  0.76063576  1
  Te  Te75  1  0.09632451  0.42957840  0.07345667  1
  Te  Te76  1  0.10011577  0.38983809  0.41971690  1
  Te  Te77  1  0.06212878  0.42942809  0.74178146  1
  Te  Te78  1  0.08659869  0.73921235  0.09122642  1
  Te  Te79  1  0.09612871  0.75035137  0.43043599  1
  Te  Te80  1  0.13309148  0.73952975  0.74729724  1
  Te  Te81  1  0.42687829  0.06742079  0.10717044  1
  Te  Te82  1  0.40624080  0.09844186  0.42341821  1
  Te  Te83  1  0.41531151  0.07533647  0.74861370  1
  Te  Te84  1  0.41228394  0.44517549  0.09060829  1
  Te  Te85  1  0.41141329  0.42879945  0.40212388  1
  Te  Te86  1  0.44615735  0.44623938  0.80645066  1
  Te  Te87  1  0.39662407  0.71334321  0.07484640  1
  Te  Te88  1  0.36934974  0.72860331  0.43330062  1
  Te  Te89  1  0.42373230  0.75101436  0.73451599  1
  Te  Te90  1  0.75249190  0.08459233  0.07560437  1
  Te  Te91  1  0.76978826  0.12127266  0.39415428  1
  Te  Te92  1  0.75100715  0.07956382  0.74983560  1
  Te  Te93  1  0.77781056  0.39586028  0.11138224  1
  Te  Te94  1  0.73148441  0.42204289  0.42021705  1
  Te  Te95  1  0.72853458  0.42835667  0.74810322  1
  Te  Te96  1  0.76303496  0.74382467  0.08096798  1
  Te  Te97  1  0.75586190  0.76515557  0.41272981  1
  Te  Te98  1  0.74487137  0.75191222  0.73850600  1
  Te  Te99  1  0.10338709  0.27360934  0.25675879  1
  Te  Te100  1  0.10339560  0.22054954  0.57116796  1
  Te  Te101  1  0.07948926  0.25641814  0.90576877  1
  Te  Te102  1  0.08161604  0.57926241  0.24969868  1
  Te  Te103  1  0.11746683  0.58919239  0.56365393  1
  Te  Te104  1  0.13790769  0.60711871  0.92333255  1
  Te  Te105  1  0.08778560  0.93389117  0.28463113  1
  Te  Te106  1  0.10650885  0.89692126  0.60701341  1
  Te  Te107  1  0.08507869  0.92045628  0.92244184  1
  Te  Te108  1  0.42484689  0.24568511  0.26687128  1
  Te  Te109  1  0.39524065  0.27192354  0.59321174  1
  Te  Te110  1  0.41385878  0.26467775  0.90565912  1
  Te  Te111  1  0.42158886  0.54711300  0.29291079  1
  Te  Te112  1  0.42000095  0.57682811  0.60068112  1
  Te  Te113  1  0.39685085  0.57936513  0.86837227  1
  Te  Te114  1  0.41927114  0.90459766  0.24963934  1
  Te  Te115  1  0.40575240  0.91467526  0.57815868  1
  Te  Te116  1  0.41502123  0.91680257  0.92357177  1
  Te  Te117  1  0.76158932  0.23708345  0.26281715  1
  Te  Te118  1  0.73179238  0.25749227  0.55456027  1
  Te  Te119  1  0.75548584  0.25419884  0.93137049  1
  Te  Te120  1  0.74129156  0.58568107  0.24630361  1
  Te  Te121  1  0.74087039  0.57954864  0.58981906  1
  Te  Te122  1  0.72855658  0.57131133  0.90332610  1
  Te  Te123  1  0.75646727  0.92702486  0.25521915  1
  Te  Te124  1  0.74060554  0.92638811  0.58052355  1
  Te  Te125  1  0.73015192  0.91969356  0.93503821  1
  Te  Te126  1  0.23378232  0.28306164  0.10888309  1
  Te  Te127  1  0.26939431  0.22006443  0.43126220  1
  Te  Te128  1  0.25702980  0.28205084  0.72332812  1
  Te  Te129  1  0.21352794  0.54846979  0.04800060  1
  Te  Te130  1  0.26427151  0.60801035  0.40326211  1
  Te  Te131  1  0.28071819  0.56620673  0.75573990  1
  Te  Te132  1  0.26655099  0.87942215  0.11382366  1
  Te  Te133  1  0.25439730  0.91404320  0.44172977  1
  Te  Te134  1  0.26573902  0.91676108  0.73796635  1
  Te  Te135  1  0.56821070  0.26092635  0.07841681  1
  Te  Te136  1  0.57027918  0.23662229  0.40886547  1
  Te  Te137  1  0.55734416  0.24721233  0.74213877  1
  Te  Te138  1  0.57349523  0.59222375  0.07561325  1
  Te  Te139  1  0.53776580  0.60415465  0.42011556  1
  Te  Te140  1  0.53999584  0.56747626  0.76828800  1
  Te  Te141  1  0.57988913  0.92208723  0.07151811  1
  Te  Te142  1  0.58137506  0.90282854  0.41409833  1
  Te  Te143  1  0.55816493  0.88723412  0.71984168  1
  Te  Te144  1  0.91523607  0.23489812  0.08478739  1
  Te  Te145  1  0.93617902  0.29024341  0.40902950  1
  Te  Te146  1  0.92234798  0.25084502  0.74256850  1
  Te  Te147  1  0.93969339  0.57508952  0.06488169  1
  Te  Te148  1  0.92266124  0.56723458  0.42025606  1
  Te  Te149  1  0.91363470  0.58413462  0.74555475  1
  Te  Te150  1  0.92270296  0.90637537  0.09332675  1
  Te  Te151  1  0.90661473  0.90069146  0.40801016  1
  Te  Te152  1  0.92520814  0.91782084  0.76049321  1
  Te  Te153  1  0.25424859  0.08665686  0.24323704  1
  Te  Te154  1  0.22240896  0.11660077  0.56201950  1
  Te  Te155  1  0.26379140  0.08878578  0.92578511  1
  Te  Te156  1  0.26840573  0.44059377  0.24477020  1
  Te  Te157  1  0.25378166  0.40032636  0.57685231  1
  Te  Te158  1  0.25221526  0.43842131  0.91518267  1
  Te  Te159  1  0.27431367  0.72821928  0.25776545  1
  Te  Te160  1  0.28701732  0.78319635  0.55110073  1
  Te  Te161  1  0.25954199  0.72416142  0.92802645  1
  Te  Te162  1  0.57136335  0.08381861  0.25147169  1
  Te  Te163  1  0.60167954  0.09790491  0.55882351  1
  Te  Te164  1  0.58643600  0.09163354  0.91826993  1
  Te  Te165  1  0.57747769  0.44222546  0.26545647  1
  Te  Te166  1  0.55300198  0.42846515  0.59372864  1
  Te  Te167  1  0.57820065  0.40763765  0.90123807  1
  Te  Te168  1  0.57637429  0.74342184  0.24247475  1
  Te  Te169  1  0.55401623  0.71410412  0.57071118  1
  Te  Te170  1  0.55263638  0.73997065  0.89673426  1
  Te  Te171  1  0.93292833  0.08957900  0.27940693  1
  Te  Te172  1  0.91391909  0.07356387  0.59173549  1
  Te  Te173  1  0.91732457  0.10953406  0.90971454  1
  Te  Te174  1  0.93084593  0.38048994  0.27758962  1
  Te  Te175  1  0.90287293  0.38567074  0.55306938  1
  Te  Te176  1  0.91387331  0.42556449  0.91001688  1
  Te  Te177  1  0.90678964  0.75926275  0.25725341  1
  Te  Te178  1  0.93094138  0.73395421  0.58912716  1
  Te  Te179  1  0.94650288  0.73215318  0.92038520  1
