# generated using pymatgen
data_In2Te3
_symmetry_space_group_name_H-M   'P 1'
_cell_length_a   18.89538498
_cell_length_b   18.86773587
_cell_length_c   18.89376197
_cell_angle_alpha   89.95663980
_cell_angle_beta   90.00779673
_cell_angle_gamma   89.89400594
_symmetry_Int_Tables_number   1
_chemical_formula_structural   In2Te3
_chemical_formula_sum   'In72 Te108'
_cell_volume   6735.86075643
_cell_formula_units_Z   36
loop_
 _symmetry_equiv_pos_site_id
 _symmetry_equiv_pos_as_xyz
  1  'x, y, z'
loop_
 _atom_site_type_symbol
 _atom_site_label
 _atom_site_symmetry_multiplicity
 _atom_site_fract_x
 _atom_site_fract_y
 _atom_site_fract_z
 _atom_site_occupancy
  In  In0  1  -0.01839195  0.67319192  0.65852336  1
  In  In1  1  0.83442842  -0.01264493  0.19344758  1
  In  In2  1  0.39939902  0.81217955  0.87872779  1
  In  In3  1  0.50239045  0.81231844  0.66020592  1
  In  In4  1  0.85476896  0.68290841  0.21173298  1
  In  In5  1  0.81673682  0.69438237  0.81587152  1
  In  In6  1  0.13965015  0.33604651  0.51337032  1
  In  In7  1  0.18524080  0.50939882  0.68440291  1
  In  In8  1  -0.03105542  0.33148680  0.32414169  1
  In  In9  1  0.50683119  0.34044736  0.18197282  1
  In  In10  1  0.82768311  0.15161104  -0.01434473  1
  In  In11  1  0.48545006  0.35143581  0.52603568  1
  In  In12  1  0.48477286  0.52696651  -0.01949567  1
  In  In13  1  -0.00136829  0.48764533  0.19846145  1
  In  In14  1  0.00553740  0.84011772  0.81457015  1
  In  In15  1  0.35466109  0.31362768  0.30649299  1
  In  In16  1  0.49926724  0.34032190  0.83104021  1
  In  In17  1  0.51843726  0.13548388  0.00421854  1
  In  In18  1  0.29669030  0.83805357  0.03414552  1
  In  In19  1  0.16429977  -0.01437234  0.50757767  1
  In  In20  1  0.68260491  0.34865854  -0.00760867  1
  In  In21  1  0.37622348  0.53258508  0.52939778  1
  In  In22  1  0.33887019  0.50927477  0.16705959  1
  In  In23  1  0.51565124  0.51885582  0.36200855  1
  In  In24  1  0.21131287  0.51918251  0.00254811  1
  In  In25  1  0.82786194  0.32938709  0.83245405  1
  In  In26  1  0.14146693  0.81076902  0.36185308  1
  In  In27  1  0.81688535  0.53479040  -0.01119061  1
  In  In28  1  0.15919756  0.17949919  0.66747654  1
  In  In29  1  0.00938370  0.82615723  0.18447658  1
  In  In30  1  0.15102810  -0.00378435  0.83193114  1
  In  In31  1  0.53088512  0.15255493  0.32903183  1
  In  In32  1  0.82951367  0.34784418  0.15192592  1
  In  In33  1  0.81951869  0.35376711  0.48253145  1
  In  In34  1  0.35428742  0.35088144  0.65878431  1
  In  In35  1  0.83429428  0.12105897  0.34163244  1
  In  In36  1  0.18532530  0.12511736  0.35099856  1
  In  In37  1  0.64924908  0.84032474  0.14892687  1
  In  In38  1  0.80597483  0.68165922  0.49307151  1
  In  In39  1  0.63265972  0.37168012  0.68237199  1
  In  In40  1  0.69358038  0.16525879  0.49243828  1
  In  In41  1  0.03921355  0.33707180  -0.00882033  1
  In  In42  1  -0.00655990  0.02114847  -0.00928845  1
  In  In43  1  0.65832723  0.84010456  0.49444152  1
  In  In44  1  0.82492379  0.16079280  0.65727160  1
  In  In45  1  0.68650852  0.34333773  0.35181032  1
  In  In46  1  0.30978099  0.80323213  0.49830458  1
  In  In47  1  0.18864384  0.14892290  0.01086996  1
  In  In48  1  0.35634059  0.16574070  0.84056328  1
  In  In49  1  0.00768508  0.48499883  0.83588294  1
  In  In50  1  0.01759819  0.65609787  0.00348957  1
  In  In51  1  0.33615699  0.19459397  0.49836485  1
  In  In52  1  0.81413321  0.50626925  0.64716528  1
  In  In53  1  0.64412871  0.69138880  0.00117091  1
  In  In54  1  -0.01158057  0.15412954  0.16434435  1
  In  In55  1  0.15307731  0.82938881  0.64914117  1
  In  In56  1  0.49923952  -0.00288571  0.51044712  1
  In  In57  1  0.17873358  0.65137205  0.17293952  1
  In  In58  1  0.50782466  0.80025205  0.30885749  1
  In  In59  1  0.66825173  -0.00998904  0.66228350  1
  In  In60  1  -0.01336728  0.15242066  0.83776292  1
  In  In61  1  0.17491675  0.31810820  0.15608384  1
  In  In62  1  -0.02306340  -0.03284263  0.63745675  1
  In  In63  1  0.62995366  0.82199379  0.83620671  1
  In  In64  1  0.15837898  0.53032082  0.33723673  1
  In  In65  1  -0.02634551  0.52046251  0.50573105  1
  In  In66  1  0.35889237  -0.02002269  0.29787654  1
  In  In67  1  0.65863441  0.14879614  0.18055437  1
  In  In68  1  0.33163040  0.66713866  0.32371298  1
  In  In69  1  0.18127366  0.36397433  0.83976199  1
  In  In70  1  0.35278880  0.01319561  0.68963437  1
  In  In71  1  0.81654643  0.84155657  -0.00820132  1
  Te  Te72  1  0.09312099  0.06644896  0.09641340  1
  Te  Te73  1  0.07703382  0.08441405  0.43911641  1
  Te  Te74  1  0.06324482  0.06628025  0.72843644  1
  Te  Te75  1  0.09896609  0.44305323  0.08918033  1
  Te  Te76  1  0.06626051  0.42278140  0.40816012  1
  Te  Te77  1  0.08315796  0.40323238  0.73204210  1
  Te  Te78  1  0.10118154  0.75163042  0.08435878  1
  Te  Te79  1  0.08549748  0.68296962  0.40505912  1
  Te  Te80  1  0.08908400  0.73169748  0.75143975  1
  Te  Te81  1  0.40833601  0.04800245  0.05781688  1
  Te  Te82  1  0.41349415  0.09191115  0.41657288  1
  Te  Te83  1  0.45419617  0.07696599  0.77410915  1
  Te  Te84  1  0.42670626  0.42036535  0.08181305  1
  Te  Te85  1  0.40627657  0.41616107  0.40823962  1
  Te  Te86  1  0.41551835  0.44768153  0.75685286  1
  Te  Te87  1  0.39841899  0.75485705  0.10240548  1
  Te  Te88  1  0.42400260  0.73784888  0.42243412  1
  Te  Te89  1  0.40188530  0.74180985  0.74358967  1
  Te  Te90  1  0.75592131  0.06954456  0.09175770  1
  Te  Te91  1  0.70141907  0.06053168  0.38350036  1
  Te  Te92  1  0.73535151  0.09021136  0.74808586  1
  Te  Te93  1  0.73581388  0.45304054  0.08899180  1
  Te  Te94  1  0.71881198  0.46283780  0.44511393  1
  Te  Te95  1  0.74485098  0.43655271  0.76416857  1
  Te  Te96  1  0.77009409  0.73551568  0.08885029  1
  Te  Te97  1  0.74227061  0.77228114  0.39123453  1
  Te  Te98  1  0.71202292  0.75499576  0.72857960  1
  Te  Te99  1  0.07494583  0.24920090  0.24871497  1
  Te  Te100  1  0.05904783  0.22913304  0.57136118  1
  Te  Te101  1  0.10263349  0.22835280  0.90086726  1
  Te  Te102  1  0.05344219  0.61944523  0.26554814  1
  Te  Te103  1  0.08356723  0.57971135  0.59042636  1
  Te  Te104  1  0.10581767  0.57817090  0.90723952  1
  Te  Te105  1  0.09581811  0.91282931  0.26757065  1
  Te  Te106  1  0.05837417  0.88022686  0.54014839  1
  Te  Te107  1  0.07831239  0.90780858  0.93019442  1
  Te  Te108  1  0.43267766  0.21467601  0.22439463  1
  Te  Te109  1  0.43430954  0.23137225  0.60825720  1
  Te  Te110  1  0.43801683  0.24847059  0.93757079  1
  Te  Te111  1  0.43815098  0.58764681  0.24977941  1
  Te  Te112  1  0.44566876  0.62055363  0.62747691  1
  Te  Te113  1  0.39177832  0.59460604  0.88812115  1
  Te  Te114  1  0.41662408  0.87051002  0.20955630  1
  Te  Te115  1  0.39781922  0.90888089  0.58266145  1
  Te  Te116  1  0.44396827  0.93425902  0.95678943  1
  Te  Te117  1  0.76043036  0.24827016  0.24775440  1
  Te  Te118  1  0.73601986  0.27669412  0.58781119  1
  Te  Te119  1  0.73118106  0.23503026  0.90237899  1
  Te  Te120  1  0.77983998  0.56906433  0.26320091  1
  Te  Te121  1  0.73986299  0.63112438  0.62105361  1
  Te  Te122  1  0.72178326  0.60542046  0.89540034  1
  Te  Te123  1  0.74248103  0.88873385  0.25558439  1
  Te  Te124  1  0.76170501  0.92552775  0.56456309  1
  Te  Te125  1  0.73076064  0.91548821  0.89670919  1
  Te  Te126  1  0.27501520  0.24903311  0.07500114  1
  Te  Te127  1  0.23700232  0.26355369  0.40421911  1
  Te  Te128  1  0.26300506  0.25823243  0.74819619  1
  Te  Te129  1  0.29792472  0.62686174  0.07391661  1
  Te  Te130  1  0.26428936  0.58077214  0.43011668  1
  Te  Te131  1  0.28101376  0.55459217  0.78511526  1
  Te  Te132  1  0.28091348  0.96778732  0.10264092  1
  Te  Te133  1  0.26725259  0.92428025  0.41086948  1
  Te  Te134  1  0.24120878  0.92006438  0.73637491  1
  Te  Te135  1  0.60202790  0.25718093  0.08605892  1
  Te  Te136  1  0.57532827  0.26551150  0.42586042  1
  Te  Te137  1  0.58550985  0.25144381  0.75157172  1
  Te  Te138  1  0.56918497  0.59419959  0.08274416  1
  Te  Te139  1  0.62122284  0.58608646  0.43807208  1
  Te  Te140  1  0.54288934  0.52280536  0.70110956  1
  Te  Te141  1  0.57949907  0.91182244  0.03726997  1
  Te  Te142  1  0.55982376  0.91444715  0.40101137  1
  Te  Te143  1  0.55864387  0.92406950  0.74559984  1
  Te  Te144  1  0.92188148  0.24689958  0.06268935  1
  Te  Te145  1  0.90040301  0.23858448  0.41968781  1
  Te  Te146  1  0.92175964  0.25128350  0.74381003  1
  Te  Te147  1  0.92364430  0.57639026  0.09217964  1
  Te  Te148  1  0.89063007  0.59103078  0.40777757  1
  Te  Te149  1  0.91093475  0.57654941  0.76270622  1
  Te  Te150  1  0.92046669  0.91495096  0.08098626  1
  Te  Te151  1  0.83225100  0.99502007  0.43557607  1
  Te  Te152  1  0.89541260  0.89755647  0.73766927  1
  Te  Te153  1  0.26715136  0.08269253  0.23726895  1
  Te  Te154  1  0.25582382  0.09030740  0.58569145  1
  Te  Te155  1  0.26282463  0.06404264  0.90819449  1
  Te  Te156  1  0.24323932  0.42486900  0.24991252  1
  Te  Te157  1  0.25316771  0.42210508  0.56940317  1
  Te  Te158  1  0.27359183  0.39749110  0.94711313  1
  Te  Te159  1  0.24144903  0.76438037  0.25356838  1
  Te  Te160  1  0.24026750  0.72172409  0.59782887  1
  Te  Te161  1  0.25405043  0.78794366  0.90255661  1
  Te  Te162  1  0.56500154  0.04664955  0.23161949  1
  Te  Te163  1  0.59002502  0.09605500  0.58014055  1
  Te  Te164  1  0.61506193  0.03623824  0.95012784  1
  Te  Te165  1  0.59707632  0.42999661  0.26140263  1
  Te  Te166  1  0.58692637  0.45940267  0.56568733  1
  Te  Te167  1  0.58923275  0.43451510  0.91085162  1
  Te  Te168  1  0.59675780  0.72101030  0.22099246  1
  Te  Te169  1  0.57236056  0.73356814  0.55593781  1
  Te  Te170  1  0.53168828  0.73229263  0.90735408  1
  Te  Te171  1  0.94984513  0.05178061  0.26935440  1
  Te  Te172  1  0.90275527  0.07478884  0.56166504  1
  Te  Te173  1  0.88601732  0.05034844  0.88665026  1
  Te  Te174  1  0.86986967  0.44263203  0.27631593  1
  Te  Te175  1  0.91567774  0.40826124  0.58959146  1
  Te  Te176  1  0.90797606  0.41629898  0.93482189  1
  Te  Te177  1  0.90860467  0.79672175  0.28972540  1
  Te  Te178  1  0.90747488  0.76217391  0.56908492  1
  Te  Te179  1  0.92176607  0.74200588  0.91924423  1
