# generated using pymatgen
data_In2Te3
_symmetry_space_group_name_H-M   'P 1'
_cell_length_a   18.87106043
_cell_length_b   18.86888595
_cell_length_c   18.86092896
_cell_angle_alpha   90.05492938
_cell_angle_beta   89.94906794
_cell_angle_gamma   90.04004783
_symmetry_Int_Tables_number   1
_chemical_formula_structural   In2Te3
_chemical_formula_sum   'In72 Te108'
_cell_volume   6715.91463275
_cell_formula_units_Z   36
loop_
 _symmetry_equiv_pos_site_id
 _symmetry_equiv_pos_as_xyz
  1  'x, y, z'
loop_
 _atom_site_type_symbol
 _atom_site_label
 _atom_site_symmetry_multiplicity
 _atom_site_fract_x
 _atom_site_fract_y
 _atom_site_fract_z
 _atom_site_occupancy
  In  In0  1  0.31233954  0.49363012  0.82604496  1
  In  In1  1  0.68990836  0.19804847  0.51239246  1
  In  In2  1  -0.00058536  -0.00984575  0.01751177  1
  In  In3  1  0.81147606  0.01755701  0.14795257  1
  In  In4  1  0.01516354  0.50886776  0.84642687  1
  In  In5  1  0.51422132  0.50118179  0.00845346  1
  In  In6  1  0.31600055  0.35128930  -0.03664281  1
  In  In7  1  0.34260624  0.18083385  0.80601529  1
  In  In8  1  0.16262933  0.34688976  0.49973259  1
  In  In9  1  0.83938950  0.18956861  0.34017410  1
  In  In10  1  0.31695021  0.34007987  0.68046786  1
  In  In11  1  0.51090915  0.34533973  0.18077025  1
  In  In12  1  0.66797581  0.66573090  0.67175266  1
  In  In13  1  0.85971330  0.66630027  0.86107038  1
  In  In14  1  0.02361072  0.62531964  0.28212573  1
  In  In15  1  0.33868679  0.16519424  0.16523410  1
  In  In16  1  0.65382971  0.15333817  0.16671997  1
  In  In17  1  0.65891351  -0.00221052  0.67540549  1
  In  In18  1  0.32169442  0.66168044  0.32473335  1
  In  In19  1  0.33826830  0.51186070  0.16668016  1
  In  In20  1  0.50091306  0.34958951  0.48814416  1
  In  In21  1  0.00059295  0.81289067  0.50826881  1
  In  In22  1  0.14994147  0.18239397  -0.00273275  1
  In  In23  1  0.49989774  0.65395154  0.81665331  1
  In  In24  1  0.19030480  0.83085254  0.32357005  1
  In  In25  1  -0.01973610  0.16398462  0.49924528  1
  In  In26  1  0.48605517  -0.02475053  0.49409993  1
  In  In27  1  0.01744860  0.17509995  0.84388789  1
  In  In28  1  0.66609910  0.67451284  0.32724553  1
  In  In29  1  0.66294836  0.34015746  0.31909987  1
  In  In30  1  0.51793496  0.31329559  0.84401709  1
  In  In31  1  -0.00294292  0.18386977  0.15095843  1
  In  In32  1  0.17680107  0.65030239  0.49513377  1
  In  In33  1  0.32892518  0.81712007  0.17621336  1
  In  In34  1  0.32656404  0.16841075  0.50089105  1
  In  In35  1  0.51066109  0.81524835  0.33001803  1
  In  In36  1  0.13793122  0.36927030  0.14164169  1
  In  In37  1  -0.00224842  0.34980430  0.69374401  1
  In  In38  1  0.66720875  0.50410929  0.51380550  1
  In  In39  1  -0.02410534  0.00255979  0.68143620  1
  In  In40  1  -0.00440831  0.48488189  0.50587547  1
  In  In41  1  0.33337846  0.84051493  0.52066250  1
  In  In42  1  0.69066108  0.33560312  0.00137764  1
  In  In43  1  0.33095745  0.00948202  0.32749277  1
  In  In44  1  0.66047166  0.84285169  0.52312921  1
  In  In45  1  0.18955365  0.17520537  0.66625558  1
  In  In46  1  0.66197731  0.83837724  0.83829167  1
  In  In47  1  0.85969991  0.35517567  0.14433113  1
  In  In48  1  0.15910806  0.04064367  0.51530607  1
  In  In49  1  0.16479103  -0.01200083  0.86157815  1
  In  In50  1  0.82735208  0.49923823  -0.00851395  1
  In  In51  1  0.32223097  0.67549379  -0.00204434  1
  In  In52  1  0.34622105  0.82389759  0.85088208  1
  In  In53  1  0.84589102  0.49759890  0.34096782  1
  In  In54  1  0.82520281  0.66307393  0.51052725  1
  In  In55  1  0.81549479  0.34897554  0.81070072  1
  In  In56  1  0.17176940  0.81383288  -0.00378503  1
  In  In57  1  0.79629049  0.01038241  0.50491837  1
  In  In58  1  0.52516736  0.85501321  0.02366420  1
  In  In59  1  0.47096341  0.63298993  0.53280776  1
  In  In60  1  0.82054464  0.86248746  0.30692152  1
  In  In61  1  0.35464293  0.33798256  0.33620012  1
  In  In62  1  0.00222092  -0.00963823  0.33652633  1
  In  In63  1  0.54365370  0.13466772  -0.03731689  1
  In  In64  1  0.14173854  0.81857240  0.69598947  1
  In  In65  1  0.83762358  0.68373812  0.15641203  1
  In  In66  1  0.00459812  0.82158411  0.15499082  1
  In  In67  1  0.34232330  -0.00728279  0.00527890  1
  In  In68  1  -0.00762252  0.64900570  0.66896770  1
  In  In69  1  0.67767950  0.64940400  0.00153358  1
  In  In70  1  0.82641333  -0.00764653  0.84123805  1
  In  In71  1  0.51253070  0.15989290  0.67210461  1
  Te  Te72  1  0.09558359  0.07888702  0.09393783  1
  Te  Te73  1  0.08290334  0.10351228  0.40035189  1
  Te  Te74  1  0.09541469  0.07630823  0.74796246  1
  Te  Te75  1  0.02061824  0.45299572  0.09850863  1
  Te  Te76  1  0.08948281  0.43230193  0.40488260  1
  Te  Te77  1  0.09912698  0.44559208  0.73934890  1
  Te  Te78  1  0.06359596  0.72533263  0.05565025  1
  Te  Te79  1  0.09249121  0.74596671  0.40699259  1
  Te  Te80  1  0.06749037  0.71985152  0.77673713  1
  Te  Te81  1  0.43457552  0.09197302  0.07174111  1
  Te  Te82  1  0.42523577  0.09059612  0.41451172  1
  Te  Te83  1  0.43532441  0.07569789  0.76568179  1
  Te  Te84  1  0.41245646  0.40443958  0.07343572  1
  Te  Te85  1  0.41640008  0.44505303  0.41625590  1
  Te  Te86  1  0.42483009  0.40532210  0.76601379  1
  Te  Te87  1  0.42540462  0.74965078  0.08139790  1
  Te  Te88  1  0.40977800  0.74631144  0.42797223  1
  Te  Te89  1  0.41127902  0.74612825  0.74417752  1
  Te  Te90  1  0.74706811  0.11446263  0.05862053  1
  Te  Te91  1  0.73629601  0.09380596  0.39521387  1
  Te  Te92  1  0.74007843  0.08897870  0.76226958  1
  Te  Te93  1  0.73949789  0.43840326  0.10201527  1
  Te  Te94  1  0.74972714  0.41260053  0.42192659  1
  Te  Te95  1  0.70615046  0.36612021  0.70528937  1
  Te  Te96  1  0.75652379  0.75927417  0.06004973  1
  Te  Te97  1  0.75270761  0.76366334  0.42177179  1
  Te  Te98  1  0.75620795  0.74102991  0.77080569  1
  Te  Te99  1  0.07751593  0.27195031  0.23539470  1
  Te  Te100  1  0.07834668  0.24563089  0.59174008  1
  Te  Te101  1  0.07198765  0.28469706  0.92666118  1
  Te  Te102  1  0.10554308  0.53310441  0.19907083  1
  Te  Te103  1  0.09331838  0.56549232  0.59211671  1
  Te  Te104  1  0.10953096  0.56858940  0.94541907  1
  Te  Te105  1  0.09196503  0.91406083  0.24023956  1
  Te  Te106  1  0.07779681  0.92306488  0.58148107  1
  Te  Te107  1  0.06088052  0.89313068  0.91521715  1
  Te  Te108  1  0.43760094  0.23616454  0.25773907  1
  Te  Te109  1  0.41609399  0.25292687  0.59260710  1
  Te  Te110  1  0.41649026  0.23758202  0.92959061  1
  Te  Te111  1  0.42785362  0.59821857  0.24495712  1
  Te  Te112  1  0.37406124  0.55708681  0.61831021  1
  Te  Te113  1  0.40968216  0.57251454  0.92165123  1
  Te  Te114  1  0.41969250  0.91303555  0.25062873  1
  Te  Te115  1  0.42279715  0.91440381  0.61150436  1
  Te  Te116  1  0.44326625  0.92464258  0.91462264  1
  Te  Te117  1  0.75904871  0.25969971  0.23059808  1
  Te  Te118  1  0.77512907  0.28705126  0.59308205  1
  Te  Te119  1  0.75653192  0.24933363  0.90299148  1
  Te  Te120  1  0.76340941  0.58722751  0.24946923  1
  Te  Te121  1  0.76931808  0.56473411  0.60963527  1
  Te  Te122  1  0.73996389  0.56888426  0.88964001  1
  Te  Te123  1  0.71696722  0.92312716  0.21861555  1
  Te  Te124  1  0.76514241  0.90641574  0.61194854  1
  Te  Te125  1  0.72595536  0.93136520  0.93733085  1
  Te  Te126  1  0.25196671  0.26225598  0.07742536  1
  Te  Te127  1  0.24601084  0.25412152  0.40824184  1
  Te  Te128  1  0.22274008  0.27106591  0.77949795  1
  Te  Te129  1  0.24147801  0.56815941  0.06551501  1
  Te  Te130  1  0.24196791  0.56134499  0.39805085  1
  Te  Te131  1  0.27629988  0.59612629  0.72816722  1
  Te  Te132  1  0.24561557  0.91144727  0.08819917  1
  Te  Te133  1  0.23613630  0.93027717  0.43039186  1
  Te  Te134  1  0.24673580  0.90886861  0.76262658  1
  Te  Te135  1  0.58023979  0.25649935  0.07474734  1
  Te  Te136  1  0.58558319  0.24762152  0.41312050  1
  Te  Te137  1  0.61116486  0.24265533  0.74973226  1
  Te  Te138  1  0.59128633  0.58341815  0.10225906  1
  Te  Te139  1  0.58187535  0.59799456  0.42890822  1
  Te  Te140  1  0.57820489  0.56389355  0.73016510  1
  Te  Te141  1  0.59321248  0.96248560  0.10179502  1
  Te  Te142  1  0.59630922  0.91655889  0.40721307  1
  Te  Te143  1  0.57356361  0.89174418  0.73272492  1
  Te  Te144  1  0.91133599  0.25120059  0.05359532  1
  Te  Te145  1  0.93379504  0.27362156  0.41344423  1
  Te  Te146  1  0.91324952  0.23903885  0.75526503  1
  Te  Te147  1  0.91759415  0.58480315  0.07565022  1
  Te  Te148  1  0.93124706  0.60016978  0.42117999  1
  Te  Te149  1  0.90232370  0.56339655  0.75615686  1
  Te  Te150  1  0.89674719  0.90306357  0.08620425  1
  Te  Te151  1  0.90773310  0.92283716  0.43543041  1
  Te  Te152  1  0.91103116  0.90012083  0.76278238  1
  Te  Te153  1  0.24068183  0.08598096  0.24169289  1
  Te  Te154  1  0.27934806  0.06804111  0.60585968  1
  Te  Te155  1  0.25722373  0.09269639  0.92122761  1
  Te  Te156  1  0.26049089  0.40169693  0.23621218  1
  Te  Te157  1  0.27225197  0.42458972  0.56703217  1
  Te  Te158  1  0.20405594  0.45225960  0.92930679  1
  Te  Te159  1  0.22157402  0.72075870  0.22349913  1
  Te  Te160  1  0.23649241  0.74968653  0.59557047  1
  Te  Te161  1  0.23312491  0.72645274  0.88643772  1
  Te  Te162  1  0.56416188  0.05067602  0.22338042  1
  Te  Te163  1  0.58918466  0.08136115  0.56420199  1
  Te  Te164  1  0.63353673  0.05298671  0.87709250  1
  Te  Te165  1  0.57719904  0.44572143  0.26436833  1
  Te  Te166  1  0.57200556  0.42310748  0.59575144  1
  Te  Te167  1  0.60009004  0.42205077  0.91175197  1
  Te  Te168  1  0.59511167  0.75471676  0.22613102  1
  Te  Te169  1  0.56702823  0.74299194  0.58634537  1
  Te  Te170  1  0.57178619  0.74000791  0.92470866  1
  Te  Te171  1  0.91080335  0.07891006  0.25093455  1
  Te  Te172  1  0.88703357  0.09312609  0.59604298  1
  Te  Te173  1  0.92578232  0.08018172  0.92085846  1
  Te  Te174  1  0.93627149  0.41356489  0.25762371  1
  Te  Te175  1  0.90535743  0.39851875  0.58711295  1
  Te  Te176  1  0.91713336  0.40932792  0.90953013  1
  Te  Te177  1  0.92712754  0.75720317  0.27125763  1
  Te  Te178  1  0.90124868  0.75467582  0.60650270  1
  Te  Te179  1  0.96229283  0.74819862  0.92699126  1
