# generated using pymatgen
data_In2Te3
_symmetry_space_group_name_H-M   'P 1'
_cell_length_a   18.74460925
_cell_length_b   18.74676892
_cell_length_c   18.74646026
_cell_angle_alpha   90.03632402
_cell_angle_beta   89.97751202
_cell_angle_gamma   90.04496244
_symmetry_Int_Tables_number   1
_chemical_formula_structural   In2Te3
_chemical_formula_sum   'In72 Te108'
_cell_volume   6587.51836269
_cell_formula_units_Z   36
loop_
 _symmetry_equiv_pos_site_id
 _symmetry_equiv_pos_as_xyz
  1  'x, y, z'
loop_
 _atom_site_type_symbol
 _atom_site_label
 _atom_site_symmetry_multiplicity
 _atom_site_fract_x
 _atom_site_fract_y
 _atom_site_fract_z
 _atom_site_occupancy
  In  In0  1  -0.02144734  -0.01611845  0.33126549  1
  In  In1  1  0.84389969  0.50231299  0.33354815  1
  In  In2  1  -0.02548776  0.33829240  0.65073092  1
  In  In3  1  0.49521058  0.33246090  0.48543810  1
  In  In4  1  0.16729932  0.82894311  0.34301437  1
  In  In5  1  0.30977375  0.68433602  0.63611441  1
  In  In6  1  0.68795016  0.50341435  0.49032542  1
  In  In7  1  0.00207681  0.31873303  0.01970390  1
  In  In8  1  0.17838812  0.49915752  0.64364412  1
  In  In9  1  0.83064554  0.01543315  0.14762826  1
  In  In10  1  0.14075258  0.67854864  0.81795374  1
  In  In11  1  0.63619999  0.46825429  0.18897636  1
  In  In12  1  0.50882034  0.66520034  0.82897784  1
  In  In13  1  0.82182856  0.84343022  0.34914880  1
  In  In14  1  0.15348226  0.15937283  0.02409714  1
  In  In15  1  0.31511198  0.64047962  0.37495071  1
  In  In16  1  -0.01129589  0.50413922  0.81804595  1
  In  In17  1  0.67082743  0.00537943  0.33943487  1
  In  In18  1  0.81771584  0.31990130  0.83778811  1
  In  In19  1  0.50243633  0.66523985  0.17382620  1
  In  In20  1  0.16199990  0.37073996  0.51080259  1
  In  In21  1  0.67787892  0.84612079  0.82395638  1
  In  In22  1  0.82793140  0.02236030  0.85688544  1
  In  In23  1  -0.04975831  0.68758637  -0.00721001  1
  In  In24  1  0.34925365  -0.02006907  0.65777120  1
  In  In25  1  0.68237705  -0.01913088  0.67995387  1
  In  In26  1  0.83548044  0.15730236  0.66555941  1
  In  In27  1  -0.01059911  0.84534133  0.15556657  1
  In  In28  1  0.15630195  0.16893295  0.31636928  1
  In  In29  1  0.83284373  0.52273737  0.00417754  1
  In  In30  1  0.64972385  0.67602444  0.33021042  1
  In  In31  1  0.16978502  0.32016684  0.18524321  1
  In  In32  1  0.34981429  0.48952339  0.82746098  1
  In  In33  1  0.65909166  0.32544913  0.68140874  1
  In  In34  1  0.15211539  -0.02396644  0.48923020  1
  In  In35  1  -0.00469559  0.65524074  0.35763006  1
  In  In36  1  0.83726268  0.32767823  0.17573430  1
  In  In37  1  0.66840805  0.67353226  0.00411375  1
  In  In38  1  0.66390669  0.82399923  0.50744256  1
  In  In39  1  0.50392557  -0.01913030  0.50560779  1
  In  In40  1  0.33997485  0.65741505  0.00356263  1
  In  In41  1  0.50787859  0.16196967  0.68663547  1
  In  In42  1  0.82243966  0.67857456  0.15282999  1
  In  In43  1  0.83196259  0.50044429  0.65732777  1
  In  In44  1  0.68659988  0.18498079  0.15131147  1
  In  In45  1  0.69546869  0.17169493  0.49783301  1
  In  In46  1  0.15250775  -0.02063532  0.84413834  1
  In  In47  1  0.65799575  0.33486265  -0.01753311  1
  In  In48  1  0.34427657  0.85182948  0.82929156  1
  In  In49  1  0.15906371  0.03671090  0.14371945  1
  In  In50  1  -0.03347318  0.20326023  0.47665871  1
  In  In51  1  0.82364414  0.82091474  0.65346697  1
  In  In52  1  0.49527639  0.51489761  0.67678013  1
  In  In53  1  -0.00539529  -0.01236277  0.66615767  1
  In  In54  1  0.01216990  0.17236089  0.15504279  1
  In  In55  1  0.37475083  0.47672672  0.15136211  1
  In  In56  1  0.37030514  0.83217070  0.17759609  1
  In  In57  1  0.35941096  0.19826299  0.86776955  1
  In  In58  1  0.14263574  0.66447358  0.18987145  1
  In  In59  1  0.16429954  0.16635608  0.68466441  1
  In  In60  1  0.33766845  0.33941196  0.34117369  1
  In  In61  1  0.53366839  0.02071939  0.84626220  1
  In  In62  1  0.50512306  0.16469521  0.32793365  1
  In  In63  1  0.50708042  0.66763457  0.49346857  1
  In  In64  1  0.34303501  0.16758963  0.50867243  1
  In  In65  1  0.32157290  -0.04379496  0.32084337  1
  In  In66  1  0.16495261  0.85508206  -0.01508744  1
  In  In67  1  0.36622828  0.16743773  0.14693834  1
  In  In68  1  0.16880950  0.49527870  -0.00498995  1
  In  In69  1  -0.00520719  0.66190520  0.65229708  1
  In  In70  1  0.17637326  0.33118129  0.84497330  1
  In  In71  1  0.34693468  0.01488478  0.00482634  1
  Te  Te72  1  0.03847027  0.05289837  0.04486016  1
  Te  Te73  1  0.07327673  0.08591245  0.41482466  1
  Te  Te74  1  0.06680597  0.08092308  0.76471852  1
  Te  Te75  1  0.08571896  0.41879598  0.09749274  1
  Te  Te76  1  0.09568486  0.44788493  0.40433868  1
  Te  Te77  1  0.08934721  0.41309809  0.74654908  1
  Te  Te78  1  0.08476161  0.75138181  0.07672050  1
  Te  Te79  1  0.09886314  0.73453363  0.43755854  1
  Te  Te80  1  0.06936293  0.76971341  0.72787061  1
  Te  Te81  1  0.46285637  0.08907847  0.06360981  1
  Te  Te82  1  0.41320977  0.07212349  0.41199149  1
  Te  Te83  1  0.40360219  0.07779155  0.76416087  1
  Te  Te84  1  0.45970722  0.39785388  0.05323823  1
  Te  Te85  1  0.41270363  0.43771210  0.42282591  1
  Te  Te86  1  0.44434481  0.39903851  0.75737759  1
  Te  Te87  1  0.43840758  0.75871690  0.05906584  1
  Te  Te88  1  0.42346700  0.74024112  0.39318224  1
  Te  Te89  1  0.40656108  0.74204567  0.74260517  1
  Te  Te90  1  0.71202105  0.06221785  0.06129505  1
  Te  Te91  1  0.77489185  0.07420062  0.41959172  1
  Te  Te92  1  0.73103852  0.09971967  0.75969797  1
  Te  Te93  1  0.74799757  0.42018876  0.08273647  1
  Te  Te94  1  0.75824984  0.39984510  0.40623053  1
  Te  Te95  1  0.74290722  0.42736943  0.76190263  1
  Te  Te96  1  0.75671057  0.77821746  0.06581436  1
  Te  Te97  1  0.75453017  0.72909048  0.42509629  1
  Te  Te98  1  0.73387958  0.73865783  0.73863482  1
  Te  Te99  1  0.05297911  0.27013559  0.27011782  1
  Te  Te100  1  0.08361168  0.24553056  0.57964462  1
  Te  Te101  1  0.07757382  0.23912851  0.91321123  1
  Te  Te102  1  0.07437110  0.55937609  0.27149689  1
  Te  Te103  1  0.10116690  0.59784725  0.56216548  1
  Te  Te104  1  0.07165251  0.59051188  0.92475983  1
  Te  Te105  1  0.09777265  0.92584259  0.24432746  1
  Te  Te106  1  0.08184437  0.89288784  0.59139968  1
  Te  Te107  1  0.04322368  0.88771178  0.90093731  1
  Te  Te108  1  0.43699062  0.27657368  0.24059704  1
  Te  Te109  1  0.42348526  0.25713415  0.59985319  1
  Te  Te110  1  0.45517575  0.27533769  0.95370107  1
  Te  Te111  1  0.40755336  0.58148750  0.25762955  1
  Te  Te112  1  0.40430560  0.58268917  0.57332668  1
  Te  Te113  1  0.43649304  0.57017491  0.92642261  1
  Te  Te114  1  0.44776214  0.94767287  0.23717403  1
  Te  Te115  1  0.43021763  0.87980250  0.58506109  1
  Te  Te116  1  0.43948686  0.92300835  0.92347649  1
  Te  Te117  1  0.75923850  0.24162972  0.27091050  1
  Te  Te118  1  0.76857195  0.27182119  0.58778122  1
  Te  Te119  1  0.74135436  0.22562644  0.92283527  1
  Te  Te120  1  0.74011755  0.58299967  0.24100178  1
  Te  Te121  1  0.74023815  0.59704097  0.59159660  1
  Te  Te122  1  0.74514701  0.58950954  0.90750351  1
  Te  Te123  1  0.74995646  0.91782831  0.23883952  1
  Te  Te124  1  0.75699346  0.93363105  0.55919501  1
  Te  Te125  1  0.72991981  0.93570079  0.93170969  1
  Te  Te126  1  0.25979696  0.25541041  0.07969601  1
  Te  Te127  1  0.24215650  0.24523998  0.42147949  1
  Te  Te128  1  0.26877051  0.25534802  0.75019295  1
  Te  Te129  1  0.24948909  0.57967524  0.09631294  1
  Te  Te130  1  0.20694757  0.55273893  0.43660559  1
  Te  Te131  1  0.24932207  0.58622191  0.75749223  1
  Te  Te132  1  0.25944579  0.91859132  0.09323277  1
  Te  Te133  1  0.27562743  0.88902696  0.45107166  1
  Te  Te134  1  0.23681656  0.90730050  0.73639253  1
  Te  Te135  1  0.57590151  0.26783352  0.09146871  1
  Te  Te136  1  0.60140150  0.25456081  0.40729146  1
  Te  Te137  1  0.58226833  0.24763349  0.78143683  1
  Te  Te138  1  0.58539804  0.57145748  0.08691553  1
  Te  Te139  1  0.57773751  0.56427977  0.40229899  1
  Te  Te140  1  0.60421948  0.58023129  0.75327259  1
  Te  Te141  1  0.53881244  0.88163308  0.12875307  1
  Te  Te142  1  0.57978915  0.89821432  0.40185232  1
  Te  Te143  1  0.56210180  0.91394059  0.73933774  1
  Te  Te144  1  0.89201589  0.22662404  0.07121958  1
  Te  Te145  1  0.86809390  0.27848390  0.39699181  1
  Te  Te146  1  0.92445631  0.24325677  0.75846224  1
  Te  Te147  1  0.93238042  0.58268510  0.10266654  1
  Te  Te148  1  0.90792378  0.57394025  0.44933762  1
  Te  Te149  1  0.89736380  0.60534968  0.75862372  1
  Te  Te150  1  0.89275518  0.90715984  0.06287823  1
  Te  Te151  1  0.93309889  0.89087128  0.43627215  1
  Te  Te152  1  0.88712294  0.92236483  0.75154836  1
  Te  Te153  1  0.26903357  0.09115112  0.24824716  1
  Te  Te154  1  0.24328581  0.07657774  0.58410391  1
  Te  Te155  1  0.24369065  0.08594091  0.91403167  1
  Te  Te156  1  0.25883888  0.42831234  0.24521087  1
  Te  Te157  1  0.28126937  0.40675632  0.58911565  1
  Te  Te158  1  0.27538747  0.40558827  0.93405988  1
  Te  Te159  1  0.25991663  0.74276727  0.25278262  1
  Te  Te160  1  0.22613783  0.76066936  0.54194588  1
  Te  Te161  1  0.25677287  0.74626748  0.91134881  1
  Te  Te162  1  0.59550390  0.08695969  0.23432473  1
  Te  Te163  1  0.58849624  0.08678948  0.57920446  1
  Te  Te164  1  0.60440897  0.09967224  0.95008176  1
  Te  Te165  1  0.55102282  0.38569578  0.27421350  1
  Te  Te166  1  0.58793630  0.41825204  0.58077581  1
  Te  Te167  1  0.54537840  0.40653949  0.91162470  1
  Te  Te168  1  0.60104019  0.77136485  0.22378872  1
  Te  Te169  1  0.58798052  0.73518164  0.59825901  1
  Te  Te170  1  0.58240431  0.76601232  0.91637524  1
  Te  Te171  1  0.91531043  0.09388062  0.25022224  1
  Te  Te172  1  0.92450349  0.08496324  0.56636521  1
  Te  Te173  1  0.92509283  0.09283550  0.94254471  1
  Te  Te174  1  0.92834286  0.42643705  0.23726553  1
  Te  Te175  1  0.93260945  0.44567131  0.55839691  1
  Te  Te176  1  0.92058560  0.41311754  0.92179737  1
  Te  Te177  1  0.92000671  0.75218237  0.25693117  1
  Te  Te178  1  0.91242757  0.74732838  0.56046746  1
  Te  Te179  1  0.92288821  0.78750474  0.89108730  1
