# generated using pymatgen
data_In2Te3
_symmetry_space_group_name_H-M   'P 1'
_cell_length_a   18.90294297
_cell_length_b   18.91883281
_cell_length_c   18.92585069
_cell_angle_alpha   90.03311057
_cell_angle_beta   89.72905720
_cell_angle_gamma   90.15609462
_symmetry_Int_Tables_number   1
_chemical_formula_structural   In2Te3
_chemical_formula_sum   'In72 Te108'
_cell_volume   6768.19146426
_cell_formula_units_Z   36
loop_
 _symmetry_equiv_pos_site_id
 _symmetry_equiv_pos_as_xyz
  1  'x, y, z'
loop_
 _atom_site_type_symbol
 _atom_site_label
 _atom_site_symmetry_multiplicity
 _atom_site_fract_x
 _atom_site_fract_y
 _atom_site_fract_z
 _atom_site_occupancy
  In  In0  1  0.33097194  0.65710706  -0.01070588  1
  In  In1  1  0.53823974  0.51341966  0.66471721  1
  In  In2  1  0.85172353  0.17844804  0.34405199  1
  In  In3  1  0.50910790  0.85555614  -0.03191341  1
  In  In4  1  0.38392263  -0.02389355  -0.00408628  1
  In  In5  1  0.83444163  0.50452475  0.01094307  1
  In  In6  1  -0.01214745  0.36328498  0.03167449  1
  In  In7  1  0.50382055  -0.02622956  0.82287215  1
  In  In8  1  0.34448696  0.50024546  0.82245747  1
  In  In9  1  0.35405973  0.16396787  0.84681250  1
  In  In10  1  0.83203669  0.20913821  0.01644748  1
  In  In11  1  0.86229763  0.40945742  0.19800842  1
  In  In12  1  0.47778228  0.01135391  0.51269018  1
  In  In13  1  0.82036898  -0.02198898  0.16965743  1
  In  In14  1  0.63740477  0.00652290  -0.01139264  1
  In  In15  1  0.48686422  0.34221034  0.49762762  1
  In  In16  1  0.31774822  0.65921804  0.32547202  1
  In  In17  1  0.30204351  0.14292306  0.47634667  1
  In  In18  1  0.68757027  0.33228056  0.65824756  1
  In  In19  1  -0.01003100  0.16681518  0.46950637  1
  In  In20  1  0.50983146  0.65235693  0.50364182  1
  In  In21  1  -0.02421730  0.00014361  0.01684420  1
  In  In22  1  0.84547509  0.82367639  0.00333462  1
  In  In23  1  0.69638681  0.81914395  0.81202084  1
  In  In24  1  0.03111526  0.19680749  0.22481318  1
  In  In25  1  0.66781525  0.81227256  0.51125426  1
  In  In26  1  0.67573463  0.17246325  0.17527509  1
  In  In27  1  0.14204202  0.50829428  0.66829002  1
  In  In28  1  -0.01904567  0.82736659  0.81775721  1
  In  In29  1  0.34607247  0.68934753  0.66387267  1
  In  In30  1  0.15984409  0.81631053  0.02262871  1
  In  In31  1  0.65218218  0.18077498  0.49936202  1
  In  In32  1  -0.02896252  0.55136480  0.50728559  1
  In  In33  1  0.14453802  0.32095720  0.46109902  1
  In  In34  1  0.31716843  -0.05152117  0.67469729  1
  In  In35  1  0.83049930  0.15554064  0.64771955  1
  In  In36  1  0.83707642  0.00687867  0.82290574  1
  In  In37  1  -0.00084388  0.50005429  0.86376183  1
  In  In38  1  0.48484196  0.65468792  0.15514160  1
  In  In39  1  0.18029105  0.15397193  0.69022613  1
  In  In40  1  0.18625761  0.02598543  0.19594572  1
  In  In41  1  0.13960918  0.52661613  0.05829279  1
  In  In42  1  0.84650491  0.66324652  0.81973643  1
  In  In43  1  0.67317191  0.36647904  0.35101830  1
  In  In44  1  0.17816062  0.34104669  0.87235077  1
  In  In45  1  0.50703201  0.17136856  -0.00348538  1
  In  In46  1  0.67842658  0.80755667  0.16861929  1
  In  In47  1  0.47699422  0.01189246  0.15132009  1
  In  In48  1  0.51078098  0.16958752  0.67111690  1
  In  In49  1  0.66392158  0.35188385  -0.02542362  1
  In  In50  1  0.00057010  0.33656290  0.64316747  1
  In  In51  1  -0.00601161  0.70055549  0.64533498  1
  In  In52  1  0.82700822  -0.01474831  0.49412081  1
  In  In53  1  0.49220575  0.33245710  0.20600509  1
  In  In54  1  0.31124062  0.47845575  0.19699504  1
  In  In55  1  0.16962625  -0.03196922  0.82490645  1
  In  In56  1  0.01103731  -0.01538140  0.33296814  1
  In  In57  1  0.66310496  -0.01363881  0.31429578  1
  In  In58  1  0.17112382  0.16452786  0.01745222  1
  In  In59  1  0.01250918  0.17151743  0.81740302  1
  In  In60  1  0.33732145  0.33146477  0.01665577  1
  In  In61  1  0.68411582  0.68196045  0.00763848  1
  In  In62  1  0.72999006  0.57779048  0.34140653  1
  In  In63  1  0.12544247  -0.04047855  0.50627183  1
  In  In64  1  0.31200321  0.82486578  0.16310651  1
  In  In65  1  0.50874789  0.50875415  -0.01316191  1
  In  In66  1  0.80147997  0.54474318  0.64110280  1
  In  In67  1  0.31244304  0.50705874  0.47763152  1
  In  In68  1  0.32440076  0.84934727  0.49542701  1
  In  In69  1  0.09287924  0.67952727  0.23462244  1
  In  In70  1  0.49410391  0.83492700  0.32005767  1
  In  In71  1  0.34578897  0.34789674  0.65191079  1
  Te  Te72  1  0.06956684  0.08715392  0.10118504  1
  Te  Te73  1  0.09918614  0.08184719  0.41111814  1
  Te  Te74  1  0.07264150  0.05652668  0.74062300  1
  Te  Te75  1  0.11136963  0.38997245  0.11341275  1
  Te  Te76  1  0.05856221  0.44261125  0.44299483  1
  Te  Te77  1  0.08586549  0.39606757  0.76297864  1
  Te  Te78  1  0.07335236  0.72034668  0.09279532  1
  Te  Te79  1  0.03609010  0.75637362  0.41227226  1
  Te  Te80  1  0.08617260  0.74342608  0.75512739  1
  Te  Te81  1  0.39075261  0.10886351  0.07075246  1
  Te  Te82  1  0.41460411  0.08239345  0.40344715  1
  Te  Te83  1  0.40405869  0.06692010  0.74089790  1
  Te  Te84  1  0.42298563  0.43392012  0.09024277  1
  Te  Te85  1  0.39694875  0.40959973  0.40143137  1
  Te  Te86  1  0.44380627  0.41636552  0.74355277  1
  Te  Te87  1  0.42177963  0.76509044  0.07149173  1
  Te  Te88  1  0.41650574  0.74113939  0.41338839  1
  Te  Te89  1  0.40924505  0.76941621  0.76620166  1
  Te  Te90  1  0.74765733  0.08012009  0.07500812  1
  Te  Te91  1  0.73887504  0.08483425  0.40399173  1
  Te  Te92  1  0.74427920  0.08733622  0.74508604  1
  Te  Te93  1  0.75221211  0.40188576  0.08665165  1
  Te  Te94  1  0.77076651  0.45674922  0.41933415  1
  Te  Te95  1  0.75296313  0.44192756  0.73354438  1
  Te  Te96  1  0.79050378  0.72563753  0.10782291  1
  Te  Te97  1  0.72924063  0.71566342  0.41452717  1
  Te  Te98  1  0.76275895  0.72609590  0.71344093  1
  Te  Te99  1  0.12180175  0.28243526  0.31030089  1
  Te  Te100  1  0.09758255  0.23137932  0.58743283  1
  Te  Te101  1  0.06791674  0.25645871  0.93733079  1
  Te  Te102  1  0.02800597  0.54075096  0.23836477  1
  Te  Te103  1  0.09628493  0.61273260  0.57033174  1
  Te  Te104  1  0.10241792  0.58099282  0.92738812  1
  Te  Te105  1  0.09741222  0.91673216  0.23439147  1
  Te  Te106  1  0.04833098  0.85509178  0.58040897  1
  Te  Te107  1  0.06300773  0.91550685  0.92536591  1
  Te  Te108  1  0.38748449  0.23596518  0.22779514  1
  Te  Te109  1  0.40630977  0.22868083  0.57841013  1
  Te  Te110  1  0.43343630  0.27623478  0.91169302  1
  Te  Te111  1  0.41982720  0.56735816  0.26107115  1
  Te  Te112  1  0.41280376  0.56078579  0.58351508  1
  Te  Te113  1  0.43464276  0.60261542  0.89128533  1
  Te  Te114  1  0.39531615  0.92213210  0.24655481  1
  Te  Te115  1  0.43297792  0.89214195  0.59362422  1
  Te  Te116  1  0.38260639  0.88106440  0.87323868  1
  Te  Te117  1  0.75536420  0.26526356  0.26335986  1
  Te  Te118  1  0.77067460  0.25726636  0.55201349  1
  Te  Te119  1  0.74050941  0.24374792  0.90975169  1
  Te  Te120  1  0.80855165  0.55138330  0.21536370  1
  Te  Te121  1  0.73267723  0.59062536  0.51520027  1
  Te  Te122  1  0.75296377  0.58567368  0.91184705  1
  Te  Te123  1  0.76328380  0.87996827  0.27223244  1
  Te  Te124  1  0.74017323  0.91417590  0.58957150  1
  Te  Te125  1  0.74977842  0.91439824  0.93080962  1
  Te  Te126  1  0.23185638  0.26984124  0.10277760  1
  Te  Te127  1  0.28099168  0.27741535  0.41693953  1
  Te  Te128  1  0.26502032  0.26636264  0.76292138  1
  Te  Te129  1  0.26178789  0.59696636  0.11187160  1
  Te  Te130  1  0.21620503  0.57035999  0.38638209  1
  Te  Te131  1  0.25094542  0.58513166  0.74112440  1
  Te  Te132  1  0.25397666  0.93434789  0.06782623  1
  Te  Te133  1  0.23386269  0.92784971  0.41155631  1
  Te  Te134  1  0.20532356  0.86418032  0.72486454  1
  Te  Te135  1  0.58514448  0.26022736  0.09016914  1
  Te  Te136  1  0.57006767  0.25692263  0.40091676  1
  Te  Te137  1  0.59064315  0.26376838  0.74758855  1
  Te  Te138  1  0.59999019  0.58221202  0.08628070  1
  Te  Te139  1  0.59293992  0.56862316  0.41468722  1
  Te  Te140  1  0.63271837  0.62171866  0.70199010  1
  Te  Te141  1  0.58994027  0.91173692  0.10288424  1
  Te  Te142  1  0.57992060  0.91208111  0.41957603  1
  Te  Te143  1  0.60411040  0.90752856  0.73945852  1
  Te  Te144  1  0.92528039  0.25739175  0.12550980  1
  Te  Te145  1  0.92326661  0.28714798  0.41550364  1
  Te  Te146  1  0.91346916  0.25191771  0.73654922  1
  Te  Te147  1  0.93709962  0.55053293  0.11182589  1
  Te  Te148  1  0.92570418  0.65287938  0.40579178  1
  Te  Te149  1  0.94240287  0.57386576  0.74449469  1
  Te  Te150  1  0.93047164  0.89016524  0.11139354  1
  Te  Te151  1  0.91459264  0.89908311  0.40932919  1
  Te  Te152  1  0.89407219  0.90776675  0.73240589  1
  Te  Te153  1  0.28400932  0.11965346  0.24591493  1
  Te  Te154  1  0.24342972  0.05583846  0.59058543  1
  Te  Te155  1  0.23197805  0.08890794  0.90025002  1
  Te  Te156  1  0.19519517  0.41374621  0.26237202  1
  Te  Te157  1  0.23140930  0.41692426  0.58260318  1
  Te  Te158  1  0.26244403  0.44602468  0.94046294  1
  Te  Te159  1  0.22381804  0.76358515  0.26854181  1
  Te  Te160  1  0.25593274  0.73568970  0.55857144  1
  Te  Te161  1  0.23539539  0.74310795  0.92013239  1
  Te  Te162  1  0.57179537  0.08728780  0.24671413  1
  Te  Te163  1  0.59427320  0.07260531  0.58861488  1
  Te  Te164  1  0.57674961  0.09591410  0.88503260  1
  Te  Te165  1  0.59389527  0.42892595  0.24460682  1
  Te  Te166  1  0.59907516  0.41626462  0.56529134  1
  Te  Te167  1  0.60204165  0.45224868  0.88789029  1
  Te  Te168  1  0.57869020  0.72872128  0.25202165  1
  Te  Te169  1  0.57824373  0.73484926  0.60836242  1
  Te  Te170  1  0.59608831  0.74773306  0.90350705  1
  Te  Te171  1  0.90996955  0.07535229  0.24805453  1
  Te  Te172  1  0.92966112  0.07034855  0.56969606  1
  Te  Te173  1  0.91635370  0.10428657  0.92339652  1
  Te  Te174  1  0.96159114  0.41884654  0.31038952  1
  Te  Te175  1  0.90468492  0.43852261  0.58899486  1
  Te  Te176  1  0.89772561  0.40088669  0.91489443  1
  Te  Te177  1  0.96294922  0.74405958  0.27900631  1
  Te  Te178  1  0.91734717  0.78042715  0.54639646  1
  Te  Te179  1  0.93267536  0.72759264  0.92692852  1
