# generated using pymatgen
data_In2Te3
_symmetry_space_group_name_H-M   'P 1'
_cell_length_a   18.96346669
_cell_length_b   18.97529782
_cell_length_c   18.98298336
_cell_angle_alpha   90.34408019
_cell_angle_beta   89.95961710
_cell_angle_gamma   90.16429968
_symmetry_Int_Tables_number   1
_chemical_formula_structural   In2Te3
_chemical_formula_sum   'In72 Te108'
_cell_volume   6830.63503990
_cell_formula_units_Z   36
loop_
 _symmetry_equiv_pos_site_id
 _symmetry_equiv_pos_as_xyz
  1  'x, y, z'
loop_
 _atom_site_type_symbol
 _atom_site_label
 _atom_site_symmetry_multiplicity
 _atom_site_fract_x
 _atom_site_fract_y
 _atom_site_fract_z
 _atom_site_occupancy
  In  In0  1  0.84505929  0.81939858  0.65348622  1
  In  In1  1  0.31580139  0.84221915  0.17656918  1
  In  In2  1  0.68063424  0.50397290  0.16545870  1
  In  In3  1  0.65921316  0.83692360  0.50465323  1
  In  In4  1  0.82982145  0.35216467  0.49489752  1
  In  In5  1  0.47942855  0.16679020  0.63933925  1
  In  In6  1  0.30935289  0.48578576  0.17942612  1
  In  In7  1  0.48542235  0.32503711  0.18570091  1
  In  In8  1  0.01336666  0.14703392  0.85276941  1
  In  In9  1  0.85846145  0.49666806  0.02515131  1
  In  In10  1  0.66490508  0.46781793  0.83197597  1
  In  In11  1  0.17471410  0.49735443  0.67683712  1
  In  In12  1  0.66267469  0.31570003  0.64115302  1
  In  In13  1  0.66561570  0.67859634  -0.02588701  1
  In  In14  1  0.49003570  0.00624923  0.16717230  1
  In  In15  1  0.50201517  0.65868097  0.51877962  1
  In  In16  1  0.01010684  0.33491299  0.02679498  1
  In  In17  1  0.83966418  0.52176826  0.67163293  1
  In  In18  1  0.65739787  0.33895687  0.03518087  1
  In  In19  1  0.87199842  0.31442967  0.87580829  1
  In  In20  1  -0.01924266  0.33013499  0.28752912  1
  In  In21  1  0.02224715  0.64561139  0.32874597  1
  In  In22  1  0.34510485  0.64682536  0.34916573  1
  In  In23  1  0.66181166  0.85704159  0.16623131  1
  In  In24  1  0.83809134  0.16049312  0.33493658  1
  In  In25  1  0.15065811  0.80374702  0.71400384  1
  In  In26  1  0.64904424  0.83756216  0.82280557  1
  In  In27  1  0.46304725  0.69867511  0.80199273  1
  In  In28  1  0.83621680  -0.01894285  0.82782823  1
  In  In29  1  0.67259600  0.67460702  0.34510892  1
  In  In30  1  0.45774292  0.54405819  -0.01549124  1
  In  In31  1  0.65794745  0.64352259  0.66188085  1
  In  In32  1  0.84281297  0.67697748  0.85711906  1
  In  In33  1  0.50449541  -0.00607784  0.48545214  1
  In  In34  1  0.14252539  0.00382758  0.47784801  1
  In  In35  1  0.17212265  0.86648938  0.02542544  1
  In  In36  1  0.02429519  0.67101621  -0.02884137  1
  In  In37  1  0.32840054  0.01998782  0.32488897  1
  In  In38  1  0.86750899  -0.01297032  0.48496906  1
  In  In39  1  0.68103988  0.49703830  0.48357186  1
  In  In40  1  0.68345716  0.16671496  0.47830179  1
  In  In41  1  0.16392570  0.34440815  0.83192120  1
  In  In42  1  0.15396176  0.34342229  0.50303065  1
  In  In43  1  0.48950237  0.33157382  0.84241607  1
  In  In44  1  0.14085280  0.85958318  0.30558629  1
  In  In45  1  0.00516299  -0.00351622  0.65575121  1
  In  In46  1  0.30965280  -0.00885376  0.67019009  1
  In  In47  1  0.31927656  0.20331720  0.48843094  1
  In  In48  1  0.86710012  0.68584548  0.16830157  1
  In  In49  1  0.64781418  0.15127341  0.17546195  1
  In  In50  1  0.33538805  0.72777150  -0.02971181  1
  In  In51  1  0.45556036  -0.01832007  0.85775905  1
  In  In52  1  0.00754310  0.50026998  0.48922998  1
  In  In53  1  0.81388692  0.17092927  -0.00973693  1
  In  In54  1  0.48586298  0.51412520  0.67778934  1
  In  In55  1  0.49273886  0.67515426  0.16247282  1
  In  In56  1  0.66977757  0.00417606  0.69567343  1
  In  In57  1  0.02662156  0.13942438  0.15008879  1
  In  In58  1  0.47853533  0.36688306  0.47030996  1
  In  In59  1  0.18622116  0.64786052  0.49989822  1
  In  In60  1  0.17005722  0.65189730  0.16800342  1
  In  In61  1  0.16178436  0.17996066  0.66035441  1
  In  In62  1  0.00477428  0.82786425  0.50294695  1
  In  In63  1  0.84493935  0.01693447  0.17444667  1
  In  In64  1  0.32498111  0.82456516  0.51268448  1
  In  In65  1  0.84026635  0.86745503  0.03566078  1
  In  In66  1  0.29772761  0.15581408  0.17231760  1
  In  In67  1  0.33697629  0.30663202  0.01718423  1
  In  In68  1  0.64611603  0.13577648  0.84050814  1
  In  In69  1  0.29982654  0.15328487  0.85338237  1
  In  In70  1  0.18458892  0.49834082  -0.00283682  1
  In  In71  1  0.67255713  0.33348456  0.33899002  1
  Te  Te72  1  0.10812892  0.07958000  0.03892865  1
  Te  Te73  1  0.08946914  0.08514731  0.36994131  1
  Te  Te74  1  0.09781096  0.07463950  0.74754519  1
  Te  Te75  1  0.09842126  0.43228037  0.09576187  1
  Te  Te76  1  0.07008750  0.40661380  0.38934415  1
  Te  Te77  1  0.07341428  0.41207356  0.74163570  1
  Te  Te78  1  0.09297824  0.74867133  0.08297098  1
  Te  Te79  1  0.11119973  0.75098782  0.41853814  1
  Te  Te80  1  0.06693990  0.70442763  0.78258953  1
  Te  Te81  1  0.38717451  0.07509827  0.08257914  1
  Te  Te82  1  0.41387543  0.09679662  0.42503651  1
  Te  Te83  1  0.40633712  0.08995267  0.74658689  1
  Te  Te84  1  0.41638217  0.42326482  0.08607218  1
  Te  Te85  1  0.36652915  0.42867442  0.39926233  1
  Te  Te86  1  0.41052766  0.41722486  0.75649203  1
  Te  Te87  1  0.42228191  0.78067485  0.08493549  1
  Te  Te88  1  0.42549522  0.75138173  0.42516219  1
  Te  Te89  1  0.38085010  0.76342948  0.70263911  1
  Te  Te90  1  0.73961086  0.07562732  0.08113758  1
  Te  Te91  1  0.75365388  0.05672952  0.40481893  1
  Te  Te92  1  0.76902379  0.10014788  0.75967898  1
  Te  Te93  1  0.78251282  0.39337779  0.10955041  1
  Te  Te94  1  0.77547095  0.43636664  0.38183435  1
  Te  Te95  1  0.75419262  0.40717856  0.72778614  1
  Te  Te96  1  0.75290469  0.74356009  0.07874811  1
  Te  Te97  1  0.75691374  0.75666378  0.43196439  1
  Te  Te98  1  0.74532559  0.74127539  0.75212448  1
  Te  Te99  1  0.08991525  0.26044380  0.21115237  1
  Te  Te100  1  0.06754336  0.24471278  0.57199936  1
  Te  Te101  1  0.09390944  0.25239673  0.92959391  1
  Te  Te102  1  0.10975734  0.55116180  0.25547094  1
  Te  Te103  1  0.08175443  0.58821475  0.58819868  1
  Te  Te104  1  0.12243683  0.58665522  0.88529403  1
  Te  Te105  1  0.09184330  0.93061813  0.18904173  1
  Te  Te106  1  0.10877065  0.90093852  0.59202118  1
  Te  Te107  1  0.08887102  0.95889695  0.94148247  1
  Te  Te108  1  0.39762711  0.23160465  0.25871630  1
  Te  Te109  1  0.41034018  0.28569905  0.58215325  1
  Te  Te110  1  0.41972971  0.22265018  0.92062055  1
  Te  Te111  1  0.42275409  0.57016332  0.24378493  1
  Te  Te112  1  0.39817371  0.57563896  0.57993777  1
  Te  Te113  1  0.37138377  0.60061486  0.87449565  1
  Te  Te114  1  0.41598348  0.91118526  0.26666837  1
  Te  Te115  1  0.41764608  0.92108250  0.58579847  1
  Te  Te116  1  0.38600225  0.86527496  0.91685861  1
  Te  Te117  1  0.74814944  0.24188785  0.24570410  1
  Te  Te118  1  0.77375710  0.23511736  0.57889841  1
  Te  Te119  1  0.72961834  0.27355412  0.91268392  1
  Te  Te120  1  0.76337356  0.60100983  0.24483266  1
  Te  Te121  1  0.76275993  0.59682115  0.56408308  1
  Te  Te122  1  0.75664083  0.55853200  0.92379183  1
  Te  Te123  1  0.76770298  0.91594107  0.24801388  1
  Te  Te124  1  0.75996959  0.93168443  0.59654699  1
  Te  Te125  1  0.74320850  0.90563315  0.91987498  1
  Te  Te126  1  0.22221872  0.25822722  0.09612032  1
  Te  Te127  1  0.21312350  0.25020250  0.40247564  1
  Te  Te128  1  0.25992895  0.25378154  0.74908514  1
  Te  Te129  1  0.27487552  0.60189544  0.07169071  1
  Te  Te130  1  0.24845584  0.54937921  0.40707990  1
  Te  Te131  1  0.23131526  0.59064566  0.77848634  1
  Te  Te132  1  0.28148537  0.95281735  0.08298607  1
  Te  Te133  1  0.25255100  0.91298302  0.41255716  1
  Te  Te134  1  0.24116409  0.90842086  0.77183594  1
  Te  Te135  1  0.55983253  0.23549684  0.08417725  1
  Te  Te136  1  0.57331587  0.25626970  0.42303112  1
  Te  Te137  1  0.57997668  0.24218057  0.74544740  1
  Te  Te138  1  0.58863086  0.58910347  0.07773389  1
  Te  Te139  1  0.57581475  0.57753410  0.41184344  1
  Te  Te140  1  0.58399781  0.58639891  0.78242145  1
  Te  Te141  1  0.57307888  0.92530487  0.07435572  1
  Te  Te142  1  0.58959247  0.91183971  0.40129083  1
  Te  Te143  1  0.55318741  0.92534898  0.74773392  1
  Te  Te144  1  0.91877192  0.22643490  0.08426621  1
  Te  Te145  1  0.91906506  0.26076801  0.41312246  1
  Te  Te146  1  0.93610765  0.24045747  0.76805785  1
  Te  Te147  1  0.95527090  0.59415162  0.08553573  1
  Te  Te148  1  0.91795576  0.58411778  0.41029970  1
  Te  Te149  1  0.92801087  0.60300729  0.76130881  1
  Te  Te150  1  0.95213602  0.92361355  0.11811410  1
  Te  Te151  1  0.94083034  0.90038483  0.39238474  1
  Te  Te152  1  0.93508286  0.89810192  0.74824777  1
  Te  Te153  1  0.20384440  0.07674571  0.26399107  1
  Te  Te154  1  0.24871577  0.08315284  0.56515974  1
  Te  Te155  1  0.21651680  0.05648544  0.92655284  1
  Te  Te156  1  0.30393151  0.36891444  0.27177421  1
  Te  Te157  1  0.25345624  0.42476656  0.57572799  1
  Te  Te158  1  0.27404265  0.40463189  0.91914086  1
  Te  Te159  1  0.25025864  0.73921316  0.26709375  1
  Te  Te160  1  0.25626295  0.73345817  0.61449161  1
  Te  Te161  1  0.22253230  0.79331661  0.90092536  1
  Te  Te162  1  0.57002654  0.07453709  0.27060190  1
  Te  Te163  1  0.59703825  0.08733286  0.58489107  1
  Te  Te164  1  0.56744833  0.05091801  0.92876268  1
  Te  Te165  1  0.58558930  0.42075742  0.25140521  1
  Te  Te166  1  0.58607414  0.43213912  0.58363776  1
  Te  Te167  1  0.56515195  0.42364211  0.94094675  1
  Te  Te168  1  0.58378937  0.75583869  0.25128787  1
  Te  Te169  1  0.57815466  0.75830756  0.60579611  1
  Te  Te170  1  0.55643078  0.75879371  0.91234262  1
  Te  Te171  1  0.95123164  0.08072370  0.27422698  1
  Te  Te172  1  0.93465978  0.08762866  0.56720795  1
  Te  Te173  1  0.90839487  0.06660451  0.93032342  1
  Te  Te174  1  0.90165046  0.42174905  0.20679657  1
  Te  Te175  1  0.92270048  0.42275825  0.59116395  1
  Te  Te176  1  0.94979901  0.43396461  0.92103348  1
  Te  Te177  1  0.95186205  0.75813177  0.26301233  1
  Te  Te178  1  0.93511199  0.72833801  0.58465492  1
  Te  Te179  1  0.92082109  0.77749938  0.93843395  1
