# generated using pymatgen
data_In2Te3
_symmetry_space_group_name_H-M   'P 1'
_cell_length_a   18.90894039
_cell_length_b   18.90198609
_cell_length_c   18.89603537
_cell_angle_alpha   89.98457376
_cell_angle_beta   90.20639903
_cell_angle_gamma   90.05992574
_symmetry_Int_Tables_number   1
_chemical_formula_structural   In2Te3
_chemical_formula_sum   'In72 Te108'
_cell_volume   6753.70760456
_cell_formula_units_Z   36
loop_
 _symmetry_equiv_pos_site_id
 _symmetry_equiv_pos_as_xyz
  1  'x, y, z'
loop_
 _atom_site_type_symbol
 _atom_site_label
 _atom_site_symmetry_multiplicity
 _atom_site_fract_x
 _atom_site_fract_y
 _atom_site_fract_z
 _atom_site_occupancy
  In  In0  1  0.81576720  0.64986368  0.81571352  1
  In  In1  1  0.67940192  0.35787083  0.02760317  1
  In  In2  1  0.83994976  0.50315950  0.65911987  1
  In  In3  1  0.14425042  0.84435035  0.65868008  1
  In  In4  1  0.32866751  0.65016533  0.35908973  1
  In  In5  1  0.69308804  0.80278506  0.43173293  1
  In  In6  1  0.49947639  0.82615462  0.65450240  1
  In  In7  1  -0.01320262  0.16448259  0.52116061  1
  In  In8  1  0.00022435  0.83528730  0.83486992  1
  In  In9  1  0.66707089  0.14086456  0.83251753  1
  In  In10  1  0.82079909  0.82495037  0.01864828  1
  In  In11  1  0.49162118  0.50691084  0.33022516  1
  In  In12  1  0.84596320  0.16360553  -0.01644282  1
  In  In13  1  0.83423860  0.15494677  0.33786075  1
  In  In14  1  0.17255614  -0.00321475  0.19257637  1
  In  In15  1  0.15451831  0.84882414  0.33446515  1
  In  In16  1  0.84012643  0.32206370  0.81840109  1
  In  In17  1  0.49401951  -0.01588131  0.83924918  1
  In  In18  1  0.35009351  0.82429020  0.49851611  1
  In  In19  1  0.49845778  0.67779145  0.50137226  1
  In  In20  1  0.35698262  0.16593845  0.14589393  1
  In  In21  1  0.14774260  0.37661473  0.17411764  1
  In  In22  1  0.32844897  0.17989249  0.49160861  1
  In  In23  1  0.83558859  0.50267796  0.00739043  1
  In  In24  1  0.36923308  -0.01691693  0.32132906  1
  In  In25  1  0.65048534  0.50246769  0.84584137  1
  In  In26  1  0.33430383  0.18075700  0.83325466  1
  In  In27  1  -0.00134278  0.17655194  0.13801027  1
  In  In28  1  0.66498362  0.70857598  0.07610490  1
  In  In29  1  0.14013813  -0.00344834  0.81352217  1
  In  In30  1  0.68032998  0.32199172  0.33747454  1
  In  In31  1  0.15791434  0.19223697  0.30886916  1
  In  In32  1  0.15550698  0.66817307  0.84230645  1
  In  In33  1  0.33119091  0.34980060  -0.00520156  1
  In  In34  1  0.16658948  0.34240382  0.82708537  1
  In  In35  1  0.76164343  0.12872536  0.50694240  1
  In  In36  1  0.84773229  -0.01076540  0.84246453  1
  In  In37  1  0.16488706  0.45663206  0.52467429  1
  In  In38  1  0.00033355  0.66245964  0.00821185  1
  In  In39  1  0.01243314  0.34434646  -0.01799068  1
  In  In40  1  0.16380617  0.66916078  0.14426403  1
  In  In41  1  0.70534200  -0.02655268  0.65204808  1
  In  In42  1  0.43737292  0.36741349  0.84287868  1
  In  In43  1  0.68476223  0.65418810  0.67769801  1
  In  In44  1  0.49482172  0.82964413  0.00640396  1
  In  In45  1  0.30676746  0.36406508  0.31492060  1
  In  In46  1  0.48129264  0.64463227  0.85320151  1
  In  In47  1  0.49598463  0.33207821  0.16436627  1
  In  In48  1  0.67348745  0.48174251  0.49297908  1
  In  In49  1  0.16936760  0.19383734  -0.00165592  1
  In  In50  1  0.33436769  0.02042163  0.03522708  1
  In  In51  1  0.65525782  0.31783183  0.65714167  1
  In  In52  1  0.50045383  0.33936521  0.48507449  1
  In  In53  1  0.09215699  0.62500965  0.49114135  1
  In  In54  1  0.49247052  0.52192690  0.02733761  1
  In  In55  1  0.34189957  0.81644817  0.16199562  1
  In  In56  1  0.66347051  -0.02301663  0.02035112  1
  In  In57  1  0.84145816  0.35141594  0.46219959  1
  In  In58  1  -0.00900501  -0.01594926  0.34468590  1
  In  In59  1  0.29434853  0.81462014  0.83525439  1
  In  In60  1  0.82810490  -0.03728730  0.17933312  1
  In  In61  1  0.68302101  0.17400754  0.18415162  1
  In  In62  1  -0.04283545  0.61505081  0.27628618  1
  In  In63  1  0.50105398  0.16677979  0.66547203  1
  In  In64  1  0.14746561  0.16392571  0.68223219  1
  In  In65  1  0.53403056  -0.01968785  0.51184181  1
  In  In66  1  0.15679352  0.00395689  0.51370150  1
  In  In67  1  0.51882174  0.15488403  0.32490518  1
  In  In68  1  0.31358806  0.66540218  0.65883057  1
  In  In69  1  0.68184244  0.78788354  0.80784597  1
  In  In70  1  0.00059235  0.33087401  0.66984501  1
  In  In71  1  -0.05511203  0.80617333  0.49435803  1
  Te  Te72  1  0.10444211  0.08385480  0.08352100  1
  Te  Te73  1  0.09151361  0.08914450  0.40153556  1
  Te  Te74  1  0.04830750  0.06191311  0.71984655  1
  Te  Te75  1  0.08445739  0.44893799  0.06083840  1
  Te  Te76  1  0.07265122  0.43735204  0.40575610  1
  Te  Te77  1  0.08332336  0.43199126  0.74155890  1
  Te  Te78  1  0.06541892  0.76413629  0.09162664  1
  Te  Te79  1  0.06547350  0.75662611  0.41192855  1
  Te  Te80  1  0.06929057  0.74024899  0.73681320  1
  Te  Te81  1  0.45591514  0.06443300  0.10609761  1
  Te  Te82  1  0.42951147  0.08031162  0.43192293  1
  Te  Te83  1  0.41208871  0.07803712  0.75125204  1
  Te  Te84  1  0.39664775  0.42971730  0.10698590  1
  Te  Te85  1  0.39689230  0.42935206  0.42053389  1
  Te  Te86  1  0.36102054  0.45182242  0.75106674  1
  Te  Te87  1  0.41899083  0.72255988  0.07617288  1
  Te  Te88  1  0.43479313  0.76243778  0.39184782  1
  Te  Te89  1  0.41767799  0.75564907  0.76088569  1
  Te  Te90  1  0.75895332  0.08072318  0.08123493  1
  Te  Te91  1  0.72513684  0.06342667  0.37890704  1
  Te  Te92  1  0.76927974  0.08224182  0.74209070  1
  Te  Te93  1  0.75362343  0.44522293  0.11761511  1
  Te  Te94  1  0.76422034  0.44841366  0.37509174  1
  Te  Te95  1  0.73593465  0.42277422  0.74837322  1
  Te  Te96  1  0.81223914  0.71589982  0.12687251  1
  Te  Te97  1  0.80523280  0.70471119  0.38652765  1
  Te  Te98  1  0.79834733  0.76450777  0.70473073  1
  Te  Te99  1  0.05318891  0.27735055  0.23978158  1
  Te  Te100  1  0.09444652  0.25656334  0.57295396  1
  Te  Te101  1  0.07177378  0.23797107  0.89142430  1
  Te  Te102  1  0.10514081  0.58615655  0.25337978  1
  Te  Te103  1  0.09534705  0.54990027  0.62027694  1
  Te  Te104  1  0.07828049  0.57043509  0.92288752  1
  Te  Te105  1  0.05716482  0.90485241  0.23207209  1
  Te  Te106  1  0.05042779  0.90830741  0.55831908  1
  Te  Te107  1  0.10249297  0.90204252  0.91746377  1
  Te  Te108  1  0.41707903  0.25626607  0.27299194  1
  Te  Te109  1  0.41427469  0.26398961  0.58714465  1
  Te  Te110  1  0.42274463  0.24324964  0.93854087  1
  Te  Te111  1  0.41311445  0.60130436  0.24983797  1
  Te  Te112  1  0.41175431  0.58907938  0.58072566  1
  Te  Te113  1  0.38352597  0.57002941  0.93569680  1
  Te  Te114  1  0.44286181  0.91077884  0.21858287  1
  Te  Te115  1  0.41084369  0.93020728  0.58926246  1
  Te  Te116  1  0.39171647  0.90947453  0.92500146  1
  Te  Te117  1  0.78642896  0.26739410  0.24308524  1
  Te  Te118  1  0.76688828  0.26811975  0.57106433  1
  Te  Te119  1  0.73840081  0.25865561  0.91489218  1
  Te  Te120  1  0.75075330  0.63812213  0.26359053  1
  Te  Te121  1  0.76177275  0.58857448  0.56013321  1
  Te  Te122  1  0.73498158  0.59208422  0.93345836  1
  Te  Te123  1  0.72397865  0.87350621  0.23095461  1
  Te  Te124  1  0.75723434  0.89864614  0.53569868  1
  Te  Te125  1  0.73399869  0.90453529  0.90556432  1
  Te  Te126  1  0.24489196  0.26470719  0.11061192  1
  Te  Te127  1  0.23419273  0.27241784  0.41424847  1
  Te  Te128  1  0.25469520  0.26105490  0.73396031  1
  Te  Te129  1  0.27077579  0.62268569  0.05310889  1
  Te  Te130  1  0.23315671  0.57615368  0.44539507  1
  Te  Te131  1  0.25654927  0.58313663  0.76916414  1
  Te  Te132  1  0.24483950  0.91104761  0.09054154  1
  Te  Te133  1  0.25643487  0.92934225  0.41807080  1
  Te  Te134  1  0.24925627  0.92204385  0.73712500  1
  Te  Te135  1  0.59221693  0.24604851  0.08540015  1
  Te  Te136  1  0.59638229  0.23611024  0.42982792  1
  Te  Te137  1  0.57581488  0.25159972  0.76871734  1
  Te  Te138  1  0.59432991  0.58541004  0.11327354  1
  Te  Te139  1  0.58733483  0.58436020  0.41948636  1
  Te  Te140  1  0.56702513  0.57969101  0.74503505  1
  Te  Te141  1  0.61412087  0.85771005  0.10130759  1
  Te  Te142  1  0.57341925  0.89158544  0.40326524  1
  Te  Te143  1  0.59192089  0.91454289  0.74484532  1
  Te  Te144  1  0.90678731  0.27562901  0.06770578  1
  Te  Te145  1  0.93675318  0.24835642  0.40543060  1
  Te  Te146  1  0.91630192  0.22958728  0.73592607  1
  Te  Te147  1  0.92456492  0.57513421  0.10511820  1
  Te  Te148  1  0.96656175  0.56088712  0.42883499  1
  Te  Te149  1  0.92563740  0.57762164  0.75216963  1
  Te  Te150  1  0.91301159  0.92977523  0.06468354  1
  Te  Te151  1  0.87977808  0.91131652  0.40838293  1
  Te  Te152  1  0.92224383  0.91639637  0.73811468  1
  Te  Te153  1  0.27127222  0.09212024  0.26199568  1
  Te  Te154  1  0.25165639  0.09325860  0.59055871  1
  Te  Te155  1  0.25070593  0.08853287  0.92052390  1
  Te  Te156  1  0.23230064  0.47451941  0.24858751  1
  Te  Te157  1  0.27934576  0.44300269  0.61780160  1
  Te  Te158  1  0.21890154  0.42590636  0.93878831  1
  Te  Te159  1  0.24770048  0.75165172  0.26625496  1
  Te  Te160  1  0.23318681  0.75819457  0.56796960  1
  Te  Te161  1  0.23809270  0.73770178  0.95006212  1
  Te  Te162  1  0.60988150  0.06364463  0.25194787  1
  Te  Te163  1  0.60774405  0.08503411  0.59513662  1
  Te  Te164  1  0.57669081  0.07132556  0.93280351  1
  Te  Te165  1  0.58608850  0.41162071  0.25649656  1
  Te  Te166  1  0.57030403  0.42539802  0.59133286  1
  Te  Te167  1  0.56307708  0.41429913  0.93291138  1
  Te  Te168  1  0.64872139  0.74908290  0.29217638  1
  Te  Te169  1  0.60825758  0.75157509  0.58225297  1
  Te  Te170  1  0.58492555  0.73930379  0.91595935  1
  Te  Te171  1  0.92620701  0.08168434  0.23460891  1
  Te  Te172  1  0.88621472  0.06524386  0.55463961  1
  Te  Te173  1  0.94106456  0.07120811  0.92323668  1
  Te  Te174  1  0.96434509  0.46489295  0.29858580  1
  Te  Te175  1  0.92631732  0.41896884  0.56796409  1
  Te  Te176  1  0.91379633  0.42660049  0.89856179  1
  Te  Te177  1  0.89124329  0.75168978  0.26018041  1
  Te  Te178  1  0.89498733  0.71157884  0.59493529  1
  Te  Te179  1  0.89651213  0.74493469  0.91280359  1
