# generated using pymatgen
data_In2Te3
_symmetry_space_group_name_H-M   'P 1'
_cell_length_a   18.91530867
_cell_length_b   18.93017294
_cell_length_c   18.93622825
_cell_angle_alpha   89.95761567
_cell_angle_beta   89.98603490
_cell_angle_gamma   89.98129768
_symmetry_Int_Tables_number   1
_chemical_formula_structural   In2Te3
_chemical_formula_sum   'In72 Te108'
_cell_volume   6780.49405106
_cell_formula_units_Z   36
loop_
 _symmetry_equiv_pos_site_id
 _symmetry_equiv_pos_as_xyz
  1  'x, y, z'
loop_
 _atom_site_type_symbol
 _atom_site_label
 _atom_site_symmetry_multiplicity
 _atom_site_fract_x
 _atom_site_fract_y
 _atom_site_fract_z
 _atom_site_occupancy
  In  In0  1  0.66647571  0.80612280  0.18273674  1
  In  In1  1  0.01299302  0.67567980  0.02156469  1
  In  In2  1  0.49498529  -0.00819366  0.48719112  1
  In  In3  1  0.82819095  0.01358494  0.82560957  1
  In  In4  1  0.30743208  0.83209897  0.49952126  1
  In  In5  1  0.02811561  0.51543553  0.18683648  1
  In  In6  1  0.85358323  0.63944079  0.20338199  1
  In  In7  1  0.85915273  0.82336164  0.32305536  1
  In  In8  1  0.00037791  0.03150803  0.64058473  1
  In  In9  1  0.16528434  -0.00706378  0.48867819  1
  In  In10  1  0.48685119  0.67769478  0.16131439  1
  In  In11  1  -0.00415396  0.17177383  0.82128828  1
  In  In12  1  0.00914820  -0.02217712  0.32100186  1
  In  In13  1  0.11327109  0.48613426  -0.03480401  1
  In  In14  1  0.17888459  0.19999132  0.69129606  1
  In  In15  1  0.65955080  0.14410789  0.16066298  1
  In  In16  1  0.51387013  0.83762055  -0.01293304  1
  In  In17  1  0.51217882  0.51481336  0.01243851  1
  In  In18  1  0.29999604  0.50040612  0.16854365  1
  In  In19  1  0.67645344  0.50975596  0.83764874  1
  In  In20  1  0.69207990  0.17669492  0.49169650  1
  In  In21  1  0.16244741  0.16277339  -0.03437390  1
  In  In22  1  0.18639508  0.34139287  0.18264404  1
  In  In23  1  0.83895695  0.19223341  0.33835291  1
  In  In24  1  0.34741630  0.48362038  0.84440942  1
  In  In25  1  0.87367282  0.65359154  0.46097982  1
  In  In26  1  0.68485793  0.82166905  0.49116407  1
  In  In27  1  0.68020471  0.18121429  0.83785343  1
  In  In28  1  0.83875248  0.36152141  0.16861519  1
  In  In29  1  0.29478709  -0.03116656  0.67928343  1
  In  In30  1  0.03571384  -0.00774504  -0.01257371  1
  In  In31  1  0.83004280  0.85196852  0.01205727  1
  In  In32  1  0.69152980  0.31941468  -0.00410180  1
  In  In33  1  0.67233748  0.36656206  0.33761309  1
  In  In34  1  0.18711618  0.70936084  0.84107570  1
  In  In35  1  0.62228404  -0.03089728  0.68793187  1
  In  In36  1  0.50469568  0.68416935  0.85264164  1
  In  In37  1  0.01660548  0.83663110  0.83753552  1
  In  In38  1  0.84468235  0.33677326  0.49619416  1
  In  In39  1  0.82259683  0.66258480  0.82855243  1
  In  In40  1  0.34890257  0.15626303  0.49577524  1
  In  In41  1  0.51453459  0.34647899  0.20498467  1
  In  In42  1  0.19321834  0.68593075  0.14888061  1
  In  In43  1  0.31048065  0.50203066  0.49293290  1
  In  In44  1  0.48197598  0.17896039  -0.01136269  1
  In  In45  1  0.29458056  -0.06939121  -0.01142165  1
  In  In46  1  0.32325954  0.65902990  0.35262620  1
  In  In47  1  -0.00293588  0.18763145  0.16166278  1
  In  In48  1  0.41950387  -0.08608618  0.12134922  1
  In  In49  1  0.67641940  0.49966878  0.49479350  1
  In  In50  1  0.36014963  0.32890406  -0.00944835  1
  In  In51  1  0.47697378  0.16282751  0.34916304  1
  In  In52  1  0.82532936  0.00284447  0.14847542  1
  In  In53  1  0.51509351  0.49043231  0.34416800  1
  In  In54  1  0.12053048  0.36569003  0.48843267  1
  In  In55  1  0.49152426  0.13713282  0.68016896  1
  In  In56  1  0.15449621  0.50723431  0.67372076  1
  In  In57  1  0.68473425  0.02385807  0.35884444  1
  In  In58  1  -0.00748704  0.33067736  0.66514989  1
  In  In59  1  0.49227916  0.32946645  0.82594836  1
  In  In60  1  0.51089500  0.33289570  0.53008128  1
  In  In61  1  0.65148771  0.65591061  0.66808685  1
  In  In62  1  0.34769867  0.67774808  0.67822669  1
  In  In63  1  0.80644598  0.48568710  0.66576740  1
  In  In64  1  -0.00446735  0.66407527  0.67444634  1
  In  In65  1  0.48632484  0.66438979  0.52189400  1
  In  In66  1  0.81876436  0.82677998  0.67649057  1
  In  In67  1  0.03473711  0.81187042  0.48417543  1
  In  In68  1  0.31184879  0.12257750  0.13986070  1
  In  In69  1  0.31741785  0.34440590  0.31579332  1
  In  In70  1  0.17202899  0.14857663  0.34013729  1
  In  In71  1  0.64801940  -0.00936891  -0.00649198  1
  Te  Te72  1  0.09140615  0.09667688  0.08435193  1
  Te  Te73  1  0.06194924  0.08110879  0.42120684  1
  Te  Te74  1  0.09573483  0.08454471  0.74613658  1
  Te  Te75  1  0.08226495  0.40612317  0.09472158  1
  Te  Te76  1  0.03749894  0.44410976  0.39526280  1
  Te  Te77  1  0.08012903  0.40767853  0.76100886  1
  Te  Te78  1  0.11396349  0.77972680  0.05908341  1
  Te  Te79  1  0.10062057  0.75489089  0.36551003  1
  Te  Te80  1  0.09517827  0.76303794  0.72973192  1
  Te  Te81  1  0.43964166  0.06857608  0.08635073  1
  Te  Te82  1  0.38710084  0.04762718  0.39560427  1
  Te  Te83  1  0.38142288  0.06726744  0.74712277  1
  Te  Te84  1  0.41805818  0.41858728  0.10148309  1
  Te  Te85  1  0.41642637  0.40140654  0.42490194  1
  Te  Te86  1  0.40510802  0.40522323  0.73536980  1
  Te  Te87  1  0.40737869  0.76427766  0.06873800  1
  Te  Te88  1  0.41730556  0.75641635  0.42407647  1
  Te  Te89  1  0.44391245  0.76975586  0.74558742  1
  Te  Te90  1  0.74960933  0.09079593  0.05097225  1
  Te  Te91  1  0.79883917  0.07905111  0.44255851  1
  Te  Te92  1  0.72212983  0.07373507  0.73514263  1
  Te  Te93  1  0.74042656  0.42710839  0.08144090  1
  Te  Te94  1  0.78390063  0.45192948  0.39622356  1
  Te  Te95  1  0.76528858  0.40555800  0.78167622  1
  Te  Te96  1  0.77969878  0.74459494  0.10668650  1
  Te  Te97  1  0.76092094  0.73189209  0.39431791  1
  Te  Te98  1  0.71895485  0.75382860  0.76367111  1
  Te  Te99  1  0.09128606  0.25150791  0.26214864  1
  Te  Te100  1  0.08664795  0.24747475  0.57803459  1
  Te  Te101  1  0.06026993  0.26365509  0.92202557  1
  Te  Te102  1  0.09466338  0.63595847  0.25341822  1
  Te  Te103  1  0.07625022  0.58708977  0.57816195  1
  Te  Te104  1  0.07644546  0.61797900  0.89635825  1
  Te  Te105  1  0.11709035  0.92422447  0.23578487  1
  Te  Te106  1  0.08326889  0.91491597  0.59029458  1
  Te  Te107  1  0.11933982  0.93827778  0.87588077  1
  Te  Te108  1  0.40176658  0.24064449  0.24132727  1
  Te  Te109  1  0.40984519  0.24569075  0.60189619  1
  Te  Te110  1  0.38158579  0.22718629  0.87526616  1
  Te  Te111  1  0.41007565  0.56448847  0.26095437  1
  Te  Te112  1  0.40756250  0.55922430  0.59481454  1
  Te  Te113  1  0.40940952  0.59131514  0.93183473  1
  Te  Te114  1  0.38858453  0.87546691  0.25743799  1
  Te  Te115  1  0.40402605  0.91681672  0.58208276  1
  Te  Te116  1  0.43223297  0.93316618  0.90518544  1
  Te  Te117  1  0.72743449  0.24827963  0.25140296  1
  Te  Te118  1  0.73375592  0.28638253  0.57949425  1
  Te  Te119  1  0.78797058  0.25852359  0.90239322  1
  Te  Te120  1  0.75552828  0.55705401  0.27229080  1
  Te  Te121  1  0.76151395  0.60616113  0.57530214  1
  Te  Te122  1  0.76148783  0.58023591  0.93316413  1
  Te  Te123  1  0.75603836  0.92619429  0.26018550  1
  Te  Te124  1  0.73645403  0.92291617  0.59226122  1
  Te  Te125  1  0.74274007  0.91297724  0.90335573  1
  Te  Te126  1  0.25523057  0.24852002  0.07629150  1
  Te  Te127  1  0.25362497  0.25136755  0.41950126  1
  Te  Te128  1  0.25035203  0.26671990  0.79796189  1
  Te  Te129  1  0.22513827  0.56917818  0.05996865  1
  Te  Te130  1  0.22103986  0.61325886  0.45195055  1
  Te  Te131  1  0.25327612  0.58775417  0.76676170  1
  Te  Te132  1  0.19968738  0.90677872  0.10440508  1
  Te  Te133  1  0.20032803  0.87461428  0.40044682  1
  Te  Te134  1  0.25094604  0.87194194  0.78393848  1
  Te  Te135  1  0.57359520  0.25121812  0.09096729  1
  Te  Te136  1  0.58030371  0.26000407  0.40938038  1
  Te  Te137  1  0.58352362  0.24530094  0.73936172  1
  Te  Te138  1  0.59497867  0.62009919  0.07515032  1
  Te  Te139  1  0.58421982  0.59785933  0.42512113  1
  Te  Te140  1  0.56323644  0.57537157  0.76072025  1
  Te  Te141  1  0.58773041  0.91497288  0.11219209  1
  Te  Te142  1  0.59299349  0.90979443  0.40547635  1
  Te  Te143  1  0.53186984  0.90832481  0.78663111  1
  Te  Te144  1  0.89739539  0.25796128  0.08179750  1
  Te  Te145  1  0.94082548  0.25456430  0.42205068  1
  Te  Te146  1  0.90292676  0.21683753  0.71037392  1
  Te  Te147  1  0.92873948  0.56834571  0.08383743  1
  Te  Te148  1  0.97983105  0.58896645  0.38312007  1
  Te  Te149  1  0.90922594  0.56678005  0.75045415  1
  Te  Te150  1  0.94017486  0.92377887  0.08776684  1
  Te  Te151  1  0.92740210  0.90608477  0.42982427  1
  Te  Te152  1  0.91886756  0.91998244  0.74491130  1
  Te  Te153  1  0.24103384  0.05345578  0.24921182  1
  Te  Te154  1  0.24419158  0.08583377  0.58151895  1
  Te  Te155  1  0.25987515  0.06065131  0.92461137  1
  Te  Te156  1  0.21640962  0.45341122  0.28690615  1
  Te  Te157  1  0.23055256  0.40804339  0.58270259  1
  Te  Te158  1  0.24652756  0.41013112  0.92987811  1
  Te  Te159  1  0.29181393  0.75793981  0.24167108  1
  Te  Te160  1  0.24509931  0.72510435  0.58143335  1
  Te  Te161  1  0.28726592  0.79233604  0.91499469  1
  Te  Te162  1  0.57434118  0.07665690  0.26675560  1
  Te  Te163  1  0.58158184  0.09105221  0.56168348  1
  Te  Te164  1  0.57657568  0.09243137  0.90581382  1
  Te  Te165  1  0.61522491  0.46459262  0.23004423  1
  Te  Te166  1  0.60377883  0.42391836  0.59847647  1
  Te  Te167  1  0.57713511  0.40570982  0.92651081  1
  Te  Te168  1  0.57427337  0.73085430  0.26688256  1
  Te  Te169  1  0.58087121  0.76456488  0.58777088  1
  Te  Te170  1  0.61030940  0.73357413  0.94524868  1
  Te  Te171  1  0.90919743  0.08354025  0.24868265  1
  Te  Te172  1  0.88963497  0.11291561  0.59482151  1
  Te  Te173  1  0.92671045  0.07732152  0.92099123  1
  Te  Te174  1  0.94347038  0.41341818  0.26017952  1
  Te  Te175  1  0.92224996  0.43693532  0.58085125  1
  Te  Te176  1  1.00187408  0.40984030  0.89601359  1
  Te  Te177  1  0.94162420  0.75662829  0.22254696  1
  Te  Te178  1  0.90969999  0.75415124  0.57772363  1
  Te  Te179  1  0.91182366  0.75967686  0.91753685  1
