# generated using pymatgen
data_In2Te3
_symmetry_space_group_name_H-M   'P 1'
_cell_length_a   18.91553732
_cell_length_b   18.92329520
_cell_length_c   18.91090191
_cell_angle_alpha   90.25070730
_cell_angle_beta   90.17494564
_cell_angle_gamma   90.03657666
_symmetry_Int_Tables_number   1
_chemical_formula_structural   In2Te3
_chemical_formula_sum   'In72 Te108'
_cell_volume   6768.95168709
_cell_formula_units_Z   36
loop_
 _symmetry_equiv_pos_site_id
 _symmetry_equiv_pos_as_xyz
  1  'x, y, z'
loop_
 _atom_site_type_symbol
 _atom_site_label
 _atom_site_symmetry_multiplicity
 _atom_site_fract_x
 _atom_site_fract_y
 _atom_site_fract_z
 _atom_site_occupancy
  In  In0  1  0.33633735  0.45846562  0.14013243  1
  In  In1  1  0.19338651  0.32263744  0.81824574  1
  In  In2  1  0.17882952  0.17047646  -0.00411190  1
  In  In3  1  0.51321912  0.13652689  0.67418492  1
  In  In4  1  0.80247147  0.67561043  0.85768334  1
  In  In5  1  -0.00849511  0.30905897  0.01019634  1
  In  In6  1  0.80350703  0.27963168  0.85856347  1
  In  In7  1  -0.01804609  0.88069557  0.81411550  1
  In  In8  1  0.34321180  0.65122732  0.35202404  1
  In  In9  1  0.53156807  0.46520918  0.30085548  1
  In  In10  1  0.02063022  0.85907357  0.49861632  1
  In  In11  1  0.53064063  0.73403360  0.47049401  1
  In  In12  1  -0.00664765  0.34336297  0.33553746  1
  In  In13  1  0.49106687  0.67393197  0.18830660  1
  In  In14  1  0.49414484  0.68884449  0.82037692  1
  In  In15  1  0.36408760  0.14517411  0.50739804  1
  In  In16  1  0.18231152  0.84257147  -0.01904297  1
  In  In17  1  0.49305142  0.34286572  0.50115941  1
  In  In18  1  0.34634041  0.65914354  -0.00564732  1
  In  In19  1  0.85210836  0.48768211  0.66968881  1
  In  In20  1  0.50639734  0.02582103  0.86629145  1
  In  In21  1  0.51427654  0.17209365  0.31895034  1
  In  In22  1  -0.02249324  0.83033957  0.16817004  1
  In  In23  1  0.64614446  0.85627710  0.13574243  1
  In  In24  1  0.66107605  0.69662878  0.63166315  1
  In  In25  1  0.00457531  0.50707046  0.49384629  1
  In  In26  1  -0.01304428  0.47284131  0.86646634  1
  In  In27  1  0.81594956  0.85864823  -0.01615964  1
  In  In28  1  -0.00760685  0.15418638  0.17962354  1
  In  In29  1  0.18047703  0.17454560  0.36151821  1
  In  In30  1  0.33437281  0.00647221  0.68194265  1
  In  In31  1  0.34636302  0.50409644  0.51111996  1
  In  In32  1  0.65697744  0.14702620  0.52251738  1
  In  In33  1  0.47152432  0.50640827  0.68770143  1
  In  In34  1  0.34128107  0.83372417  0.51517462  1
  In  In35  1  0.00552540  0.19353119  0.48977857  1
  In  In36  1  0.19046833  0.00418614  0.52654733  1
  In  In37  1  0.82527846  0.82257862  0.32380611  1
  In  In38  1  0.33447377  0.86006553  0.15426645  1
  In  In39  1  0.33526599  0.17870432  0.16134004  1
  In  In40  1  0.50993603  0.27944052  0.86328003  1
  In  In41  1  0.76658345  0.27681670  0.11881154  1
  In  In42  1  0.65736280  0.66755984  0.00833228  1
  In  In43  1  0.81313775  -0.00541667  0.16037302  1
  In  In44  1  0.16838022  -0.00995233  0.14027278  1
  In  In45  1  0.32962544  0.68549083  0.67028969  1
  In  In46  1  -0.01596964  0.68160855  0.68715208  1
  In  In47  1  0.68623213  0.68062154  0.33756024  1
  In  In48  1  0.16062296  0.65503756  0.82341995  1
  In  In49  1  0.63537493  0.48208957  0.82645011  1
  In  In50  1  0.16919480  0.64460843  0.17698069  1
  In  In51  1  0.67747217  0.51140215  0.47289728  1
  In  In52  1  0.82046782  0.00756988  0.51302772  1
  In  In53  1  0.19720306  0.49025751  0.33514401  1
  In  In54  1  0.51007927  0.47357757  0.00746652  1
  In  In55  1  -0.00272647  0.50233287  0.16610115  1
  In  In56  1  0.86756459  0.67126250  0.49632085  1
  In  In57  1  0.35933084  0.02490767  0.32519980  1
  In  In58  1  0.83602828  0.65242863  0.18135743  1
  In  In59  1  0.17577658  0.81682475  0.35347625  1
  In  In60  1  -0.02143374  0.13814713  0.83963606  1
  In  In61  1  0.82932350  0.15633014  0.66978109  1
  In  In62  1  0.19062374  0.50093022  0.65922610  1
  In  In63  1  0.49984374  0.06025168  0.12173528  1
  In  In64  1  0.65355296  0.33151540  0.65512663  1
  In  In65  1  -0.01480615  0.68627494  0.02995874  1
  In  In66  1  0.16399636  0.46777134  -0.03509080  1
  In  In67  1  0.16059971  0.00801937  0.81498607  1
  In  In68  1  0.01101962  0.33697664  0.65591060  1
  In  In69  1  0.67766316  0.86027064  0.81710620  1
  In  In70  1  -0.00625422  0.01709005  0.30870650  1
  In  In71  1  0.81524304  0.46124970  0.30444268  1
  Te  Te72  1  0.07471378  0.08440795  0.06965523  1
  Te  Te73  1  0.08729983  0.06718018  0.41921222  1
  Te  Te74  1  0.06072317  0.08091690  0.73313790  1
  Te  Te75  1  0.08360495  0.40968926  0.07907810  1
  Te  Te76  1  0.09989379  0.41163846  0.42297948  1
  Te  Te77  1  0.08352920  0.43221122  0.75633439  1
  Te  Te78  1  0.10726266  0.76053368  0.08832467  1
  Te  Te79  1  0.07924884  0.74103423  0.43156993  1
  Te  Te80  1  0.08014551  0.77008223  0.76439045  1
  Te  Te81  1  0.39243263  0.12907015  0.02947647  1
  Te  Te82  1  0.46628188  0.06684960  0.42390342  1
  Te  Te83  1  0.40747226  0.10251039  0.77788284  1
  Te  Te84  1  0.44224580  0.36480503  0.08844612  1
  Te  Te85  1  0.41799525  0.42791375  0.40093847  1
  Te  Te86  1  0.45136751  0.38804297  0.76866966  1
  Te  Te87  1  0.42297210  0.75722765  0.08117341  1
  Te  Te88  1  0.41267403  0.78025634  0.38778482  1
  Te  Te89  1  0.41359838  0.78379886  0.74362061  1
  Te  Te90  1  0.70199006  0.08362780  0.10908987  1
  Te  Te91  1  0.72040933  0.06111375  0.42080342  1
  Te  Te92  1  0.77549066  0.06955929  0.78062782  1
  Te  Te93  1  0.70837535  0.40858947  0.08852631  1
  Te  Te94  1  0.73240097  0.39191726  0.40649155  1
  Te  Te95  1  0.75087929  0.40914685  0.75142010  1
  Te  Te96  1  0.76191835  0.75437750  0.09074300  1
  Te  Te97  1  0.75436247  0.76640088  0.44821130  1
  Te  Te98  1  0.75851067  0.75304089  0.73722167  1
  Te  Te99  1  0.08367222  0.24213850  0.26322060  1
  Te  Te100  1  0.10534127  0.26637922  0.56928385  1
  Te  Te101  1  0.07693239  0.24898564  0.89998597  1
  Te  Te102  1  0.08036508  0.57178976  0.27287806  1
  Te  Te103  1  0.07081882  0.58430910  0.60775442  1
  Te  Te104  1  0.07236159  0.59563838  0.93343203  1
  Te  Te105  1  0.08849418  0.90706440  0.24853043  1
  Te  Te106  1  0.09264335  0.92999245  0.60628870  1
  Te  Te107  1  0.07482883  0.93173805  0.92327070  1
  Te  Te108  1  0.43450932  0.26352853  0.23436761  1
  Te  Te109  1  0.43434554  0.24578761  0.59998802  1
  Te  Te110  1  0.39570722  0.26655247  0.96291006  1
  Te  Te111  1  0.39747049  0.56466722  0.23883320  1
  Te  Te112  1  0.43095293  0.60762439  0.58417233  1
  Te  Te113  1  0.44431654  0.57738592  0.91289692  1
  Te  Te114  1  0.43639520  0.94772857  0.22206716  1
  Te  Te115  1  0.41191559  0.95207736  0.56825190  1
  Te  Te116  1  0.44256185  0.91625018  0.94002996  1
  Te  Te117  1  0.72599230  0.28083878  0.26193953  1
  Te  Te118  1  0.75609611  0.25182067  0.57647749  1
  Te  Te119  1  0.72581823  0.20654834  0.95924276  1
  Te  Te120  1  0.72712175  0.56871010  0.24093100  1
  Te  Te121  1  0.76570596  0.58450455  0.58325817  1
  Te  Te122  1  0.72968173  0.56341505  0.92459461  1
  Te  Te123  1  0.72714761  0.91284933  0.25580879  1
  Te  Te124  1  0.75691204  0.94312194  0.63028057  1
  Te  Te125  1  0.72133257  0.95442199  0.92660793  1
  Te  Te126  1  0.22369638  0.25904739  0.10514711  1
  Te  Te127  1  0.30083081  0.23942124  0.41320212  1
  Te  Te128  1  0.24927670  0.21201644  0.74177621  1
  Te  Te129  1  0.24440332  0.57018879  0.06663363  1
  Te  Te130  1  0.24023767  0.59144145  0.44332616  1
  Te  Te131  1  0.27401913  0.57387957  0.76314808  1
  Te  Te132  1  0.27718744  0.94756782  0.04253140  1
  Te  Te133  1  0.25870800  0.93436989  0.40515877  1
  Te  Te134  1  0.25669857  0.91051356  0.76004533  1
  Te  Te135  1  0.58107487  0.18184349  0.07567397  1
  Te  Te136  1  0.58681145  0.25000295  0.42925259  1
  Te  Te137  1  0.60900580  0.22653720  0.75155269  1
  Te  Te138  1  0.57235921  0.58086107  0.09856252  1
  Te  Te139  1  0.57343553  0.59417806  0.40189874  1
  Te  Te140  1  0.59801398  0.60102532  0.73781941  1
  Te  Te141  1  0.54737950  0.93246980  0.04655650  1
  Te  Te142  1  0.60425651  0.86086720  0.47250812  1
  Te  Te143  1  0.57269003  0.94799016  0.75603904  1
  Te  Te144  1  0.89861315  0.20819387  0.07186331  1
  Te  Te145  1  0.90495844  0.24387032  0.39707619  1
  Te  Te146  1  0.91618842  0.26138038  0.75012025  1
  Te  Te147  1  0.89814050  0.56812161  0.07037758  1
  Te  Te148  1  0.89636728  0.55812074  0.39955765  1
  Te  Te149  1  0.90791706  0.58063600  0.77963516  1
  Te  Te150  1  0.92121117  0.93164977  0.07376274  1
  Te  Te151  1  0.91424040  0.92205615  0.40028895  1
  Te  Te152  1  0.86619333  0.94287109  0.74306328  1
  Te  Te153  1  0.23701417  0.07887487  0.24323752  1
  Te  Te154  1  0.24524122  0.11954650  0.60950339  1
  Te  Te155  1  0.25008353  0.11203307  0.87826867  1
  Te  Te156  1  0.24486529  0.39324818  0.23503088  1
  Te  Te157  1  0.27860865  0.40434478  0.59430068  1
  Te  Te158  1  0.28093426  0.39568557  0.91432853  1
  Te  Te159  1  0.26324329  0.74630150  0.24143043  1
  Te  Te160  1  0.23686711  0.75592950  0.57964645  1
  Te  Te161  1  0.26334044  0.74348321  0.90004096  1
  Te  Te162  1  0.60864303  0.08908998  0.23542291  1
  Te  Te163  1  0.61773166  0.03975924  0.62247826  1
  Te  Te164  1  0.58586057  0.14454467  0.92122789  1
  Te  Te165  1  0.62099982  0.37785787  0.20904437  1
  Te  Te166  1  0.58173788  0.44429299  0.58034436  1
  Te  Te167  1  0.60742134  0.38094266  0.93502317  1
  Te  Te168  1  0.59318860  0.76655561  0.24918095  1
  Te  Te169  1  0.55581303  0.80067688  0.60725654  1
  Te  Te170  1  0.59721849  0.76142659  0.90744063  1
  Te  Te171  1  0.87449567  0.09572190  0.25909118  1
  Te  Te172  1  0.93167655  0.09131720  0.57682833  1
  Te  Te173  1  0.87297831  0.05543353  0.89835205  1
  Te  Te174  1  0.91078940  0.38693285  0.21286129  1
  Te  Te175  1  0.91223583  0.40430804  0.55974555  1
  Te  Te176  1  0.88405932  0.38956196  0.93685627  1
  Te  Te177  1  0.93336037  0.72847514  0.27026271  1
  Te  Te178  1  0.92130254  0.77831365  0.59067477  1
  Te  Te179  1  0.92041376  0.76431275  0.91400589  1
