# generated using pymatgen
data_In2Te3
_symmetry_space_group_name_H-M   'P 1'
_cell_length_a   18.91058353
_cell_length_b   18.88974314
_cell_length_c   18.89906278
_cell_angle_alpha   90.02066689
_cell_angle_beta   89.74579373
_cell_angle_gamma   90.06208404
_symmetry_Int_Tables_number   1
_chemical_formula_structural   In2Te3
_chemical_formula_sum   'In72 Te108'
_cell_volume   6750.97801369
_cell_formula_units_Z   36
loop_
 _symmetry_equiv_pos_site_id
 _symmetry_equiv_pos_as_xyz
  1  'x, y, z'
loop_
 _atom_site_type_symbol
 _atom_site_label
 _atom_site_symmetry_multiplicity
 _atom_site_fract_x
 _atom_site_fract_y
 _atom_site_fract_z
 _atom_site_occupancy
  In  In0  1  0.83023867  0.01611486  0.16954879  1
  In  In1  1  0.19679594  0.68227041  0.51684720  1
  In  In2  1  0.16015103  -0.00040824  0.14309636  1
  In  In3  1  0.83527037  0.68497282  0.50686158  1
  In  In4  1  0.86166369  0.34496076  0.83337459  1
  In  In5  1  0.50721983  0.33099506  0.14703741  1
  In  In6  1  0.33089936  0.14892327  0.17133786  1
  In  In7  1  0.32988399  0.68564501  0.67928528  1
  In  In8  1  0.85083103  0.51259687  0.69333827  1
  In  In9  1  0.49547265  0.33977738  0.81371991  1
  In  In10  1  0.33174617  0.82816035  0.15135179  1
  In  In11  1  0.50026397  0.52986124  0.33910267  1
  In  In12  1  0.11681205  0.30367085  0.54481718  1
  In  In13  1  0.31503794  0.52853520  0.52577198  1
  In  In14  1  0.67019256  0.84199126  0.84640825  1
  In  In15  1  0.18066539  -0.01646155  0.81513473  1
  In  In16  1  0.36314956  0.69534280  0.33443372  1
  In  In17  1  0.49660789  0.68973670  0.50027538  1
  In  In18  1  0.16165898  0.49417778  -0.02007361  1
  In  In19  1  0.50269441  0.52226514  -0.00431237  1
  In  In20  1  0.84394011  0.18188002  0.67102425  1
  In  In21  1  0.14495978  -0.00785089  0.51647450  1
  In  In22  1  0.31841387  0.66964074  -0.02388356  1
  In  In23  1  0.00552835  0.00583468  -0.02350602  1
  In  In24  1  0.51829401  -0.02423023  0.49118008  1
  In  In25  1  0.65340782  0.31286542  0.65099342  1
  In  In26  1  0.85362232  0.83710446  -0.01775725  1
  In  In27  1  0.32727768  -0.00161469  0.32286582  1
  In  In28  1  0.51682804  0.00936830  0.16565027  1
  In  In29  1  0.83437410  0.16350214  0.34160198  1
  In  In30  1  -0.00401037  0.51479631  0.50528877  1
  In  In31  1  -0.00038705  0.48438428  0.15496634  1
  In  In32  1  -0.01358706  0.30474017  0.00734233  1
  In  In33  1  0.30469227  0.15839796  0.51533368  1
  In  In34  1  0.65195611  0.47202472  0.49932548  1
  In  In35  1  0.00299523  0.66654353  0.32901838  1
  In  In36  1  0.14006607  0.47233528  0.68645519  1
  In  In37  1  0.83213362  0.00383100  0.48187936  1
  In  In38  1  0.51061770  0.16506961  0.32444608  1
  In  In39  1  0.48521268  0.83151768  0.67210403  1
  In  In40  1  0.65713211  0.81912544  0.20194800  1
  In  In41  1  0.68571516  0.49555056  0.15668415  1
  In  In42  1  0.15456393  0.16114275  -0.02888176  1
  In  In43  1  0.16451204  0.47724530  0.32481450  1
  In  In44  1  0.66479710  0.65234652  0.67417559  1
  In  In45  1  0.45485552  0.01945324  0.79963297  1
  In  In46  1  0.84568442  0.33334197  0.50331168  1
  In  In47  1  0.00549061  -0.01273442  0.68108189  1
  In  In48  1  0.68598714  0.02628089  0.02240152  1
  In  In49  1  0.14721226  0.69143946  0.80546493  1
  In  In50  1  0.84351747  0.83108714  0.32283931  1
  In  In51  1  0.69633619  0.33428705  0.01167079  1
  In  In52  1  0.31771872  0.49799811  0.20504459  1
  In  In53  1  0.67335079  0.50263264  0.83614975  1
  In  In54  1  0.85890734  0.66819601  0.84075903  1
  In  In55  1  0.48917037  0.34832061  0.50519682  1
  In  In56  1  0.67830084  0.32043984  0.31049415  1
  In  In57  1  0.31034827  0.32440657  0.35970799  1
  In  In58  1  0.17296434  0.83098781  0.34296454  1
  In  In59  1  0.85384342  0.85054489  0.66813981  1
  In  In60  1  0.87281115  0.01318729  0.81245268  1
  In  In61  1  0.84515572  0.65296191  0.16960803  1
  In  In62  1  0.29183096  0.31333498  0.68888900  1
  In  In63  1  0.65650281  0.00546883  0.64028999  1
  In  In64  1  0.48927084  0.85229369  -0.01743437  1
  In  In65  1  0.14333345  0.68629687  0.11108458  1
  In  In66  1  0.32432790  0.34129868  -0.01105592  1
  In  In67  1  0.64927003  0.15969119  0.84070770  1
  In  In68  1  0.49938406  0.16619879  0.01870400  1
  In  In69  1  0.68801871  0.67705219  -0.00179838  1
  In  In70  1  0.01890857  -0.01910517  0.34761541  1
  In  In71  1  -0.00180431  0.31563813  0.30452177  1
  Te  Te72  1  0.06643682  0.10166979  0.08146261  1
  Te  Te73  1  0.07855635  0.08855899  0.42862386  1
  Te  Te74  1  0.08543188  0.08977928  0.75722659  1
  Te  Te75  1  0.09396777  0.39777130  0.07516217  1
  Te  Te76  1  0.07308062  0.41009467  0.42543887  1
  Te  Te77  1  0.07526855  0.37002182  0.77198885  1
  Te  Te78  1  0.08253505  0.79063663  0.02860554  1
  Te  Te79  1  0.08380377  0.74423579  0.43094985  1
  Te  Te80  1  0.06456966  0.78702957  0.72465622  1
  Te  Te81  1  0.40635630  0.05863750  0.07410128  1
  Te  Te82  1  0.40331920  0.09847501  0.40975918  1
  Te  Te83  1  0.35128668  0.11345790  0.73802688  1
  Te  Te84  1  0.41031743  0.43105295  0.08760672  1
  Te  Te85  1  0.40303577  0.43979225  0.41753850  1
  Te  Te86  1  0.39069665  0.41055688  0.73949913  1
  Te  Te87  1  0.42491875  0.74360752  0.06644303  1
  Te  Te88  1  0.37056797  0.75966612  0.46574907  1
  Te  Te89  1  0.41042690  0.76016941  0.77969026  1
  Te  Te90  1  0.79849564  0.11436386  0.06192263  1
  Te  Te91  1  0.73166776  0.08228791  0.41010069  1
  Te  Te92  1  0.74446553  0.08183582  0.74441238  1
  Te  Te93  1  0.79012278  0.41737593  0.08889400  1
  Te  Te94  1  0.75602657  0.41034654  0.40718857  1
  Te  Te95  1  0.74432664  0.39958445  0.73858079  1
  Te  Te96  1  0.76109779  0.77367135  0.09014466  1
  Te  Te97  1  0.75271724  0.75163221  0.40782202  1
  Te  Te98  1  0.75687578  0.75061365  0.75972583  1
  Te  Te99  1  0.11686940  0.26147143  0.24209179  1
  Te  Te100  1  0.08772254  0.20322694  0.64900294  1
  Te  Te101  1  0.09118225  0.27785765  0.89776440  1
  Te  Te102  1  0.09306712  0.58225376  0.23951333  1
  Te  Te103  1  0.09761734  0.58724287  0.58891940  1
  Te  Te104  1  0.08274620  0.58306054  0.89043033  1
  Te  Te105  1  0.08864751  0.90114155  0.23850024  1
  Te  Te106  1  0.06851970  0.88576120  0.59025018  1
  Te  Te107  1  0.09615901  0.90143727  0.91680249  1
  Te  Te108  1  0.41335217  0.25708133  0.24624594  1
  Te  Te109  1  0.39581157  0.25928510  0.58355658  1
  Te  Te110  1  0.42475858  0.24934509  0.91737941  1
  Te  Te111  1  0.42622585  0.60453604  0.23038018  1
  Te  Te112  1  0.42685459  0.59517644  0.60057629  1
  Te  Te113  1  0.39996540  0.56969534  0.90343210  1
  Te  Te114  1  0.42201005  0.91441780  0.24042068  1
  Te  Te115  1  0.42288704  0.94458998  0.60051510  1
  Te  Te116  1  0.40006114  0.90160112  0.87459375  1
  Te  Te117  1  0.78779443  0.25578514  0.23035139  1
  Te  Te118  1  0.74757175  0.23229905  0.56396727  1
  Te  Te119  1  0.75520910  0.25017372  0.89845619  1
  Te  Te120  1  0.73847833  0.59462795  0.25127453  1
  Te  Te121  1  0.75029594  0.55872776  0.58664783  1
  Te  Te122  1  0.77139261  0.57236531  0.92644355  1
  Te  Te123  1  0.74330552  0.92876768  0.26213625  1
  Te  Te124  1  0.75020168  0.90625416  0.57296563  1
  Te  Te125  1  0.76220494  0.94500717  0.91129350  1
  Te  Te126  1  0.25707445  0.23012587  0.06669057  1
  Te  Te127  1  0.20754255  0.23965861  0.43280736  1
  Te  Te128  1  0.24486108  0.20891374  0.78180119  1
  Te  Te129  1  0.24870472  0.57553274  0.08784033  1
  Te  Te130  1  0.24781116  0.58579925  0.40158826  1
  Te  Te131  1  0.23491149  0.58108481  0.73843658  1
  Te  Te132  1  0.25531142  0.91887647  0.06502437  1
  Te  Te133  1  0.25530916  0.92152260  0.43161849  1
  Te  Te134  1  0.25600514  0.92486256  0.69816886  1
  Te  Te135  1  0.61198013  0.23516684  0.09478392  1
  Te  Te136  1  0.58061445  0.26506958  0.41663007  1
  Te  Te137  1  0.56119116  0.22456897  0.73581966  1
  Te  Te138  1  0.59464431  0.59796171  0.09027061  1
  Te  Te139  1  0.59933384  0.59672882  0.42939637  1
  Te  Te140  1  0.57504757  0.58809018  0.77091707  1
  Te  Te141  1  0.60174673  0.90809445  0.07856668  1
  Te  Te142  1  0.55293266  0.87938565  0.38802631  1
  Te  Te143  1  0.58493278  0.92526168  0.75355745  1
  Te  Te144  1  0.89165565  0.25699943  0.11252119  1
  Te  Te145  1  0.93445729  0.23749035  0.42844111  1
  Te  Te146  1  0.94968853  0.27136534  0.73180361  1
  Te  Te147  1  0.94248541  0.59610736  0.07343188  1
  Te  Te148  1  0.90259644  0.58571860  0.40986335  1
  Te  Te149  1  0.95617859  0.57194981  0.77821317  1
  Te  Te150  1  0.92162963  0.92926792  0.08087891  1
  Te  Te151  1  0.92700348  0.89514480  0.43290201  1
  Te  Te152  1  0.95127487  0.87793972  0.78718999  1
  Te  Te153  1  0.22296236  0.08571262  0.25757388  1
  Te  Te154  1  0.24682840  0.05780002  0.61302294  1
  Te  Te155  1  0.25050049  0.06065662  0.92139392  1
  Te  Te156  1  0.22968823  0.36927557  0.23014180  1
  Te  Te157  1  0.22967864  0.40999407  0.57061599  1
  Te  Te158  1  0.25997252  0.42814078  0.89024458  1
  Te  Te159  1  0.24371700  0.74049215  0.24101566  1
  Te  Te160  1  0.24195194  0.78916037  0.61468257  1
  Te  Te161  1  0.24074839  0.76447748  0.89487915  1
  Te  Te162  1  0.60940377  0.09444635  0.24135942  1
  Te  Te163  1  0.56611911  0.09292231  0.56673315  1
  Te  Te164  1  0.56514019  0.06255774  0.92185227  1
  Te  Te165  1  0.57028714  0.41924507  0.25730734  1
  Te  Te166  1  0.56073638  0.42845433  0.61308938  1
  Te  Te167  1  0.58332018  0.40519285  0.92972621  1
  Te  Te168  1  0.54990642  0.76272249  0.28492720  1
  Te  Te169  1  0.59521995  0.76023235  0.59244104  1
  Te  Te170  1  0.57970049  0.74268840  0.91470392  1
  Te  Te171  1  0.93314885  0.07614448  0.26351128  1
  Te  Te172  1  0.91350070  0.07236517  0.59146541  1
  Te  Te173  1  0.93986418  0.11214372  0.89642197  1
  Te  Te174  1  0.92113010  0.43429455  0.26889766  1
  Te  Te175  1  0.92745796  0.41723133  0.60009610  1
  Te  Te176  1  0.92800151  0.42164893  0.93750052  1
  Te  Te177  1  0.93885861  0.75958822  0.22786270  1
  Te  Te178  1  0.92119422  0.72860490  0.61675671  1
  Te  Te179  1  0.94507861  0.72199321  0.95401154  1
