# generated using pymatgen
data_In2Te3
_symmetry_space_group_name_H-M   'P 1'
_cell_length_a   18.92948528
_cell_length_b   18.95918244
_cell_length_c   18.95844119
_cell_angle_alpha   89.80090683
_cell_angle_beta   90.11845025
_cell_angle_gamma   90.19396998
_symmetry_Int_Tables_number   1
_chemical_formula_structural   In2Te3
_chemical_formula_sum   'In72 Te108'
_cell_volume   6803.85435169
_cell_formula_units_Z   36
loop_
 _symmetry_equiv_pos_site_id
 _symmetry_equiv_pos_as_xyz
  1  'x, y, z'
loop_
 _atom_site_type_symbol
 _atom_site_label
 _atom_site_symmetry_multiplicity
 _atom_site_fract_x
 _atom_site_fract_y
 _atom_site_fract_z
 _atom_site_occupancy
  In  In0  1  0.52417435  0.83715669  -0.03363825  1
  In  In1  1  0.04455240  0.83950298  0.50736752  1
  In  In2  1  0.48965429  0.64602569  0.16316106  1
  In  In3  1  0.83094119  0.48874823  0.00262319  1
  In  In4  1  0.00796142  0.31040041  0.70069689  1
  In  In5  1  0.33848200  0.50428877  0.48519790  1
  In  In6  1  -0.01516850  0.81698224  0.86127824  1
  In  In7  1  0.48315006  0.48086392  -0.00104733  1
  In  In8  1  0.34554749  0.68517437  0.65539598  1
  In  In9  1  0.33440477  0.17491653  0.82661304  1
  In  In10  1  0.85159240  0.49773326  0.66879836  1
  In  In11  1  0.85135350  0.65610733  0.55255435  1
  In  In12  1  0.82397928  0.66291145  0.14886074  1
  In  In13  1  0.17433139  -0.02173010  0.82524573  1
  In  In14  1  0.66731644  0.31647084  0.68767251  1
  In  In15  1  0.50991369  0.67375099  0.53645959  1
  In  In16  1  -0.01065108  -0.00861164  0.30695764  1
  In  In17  1  0.35338404  0.01247181  0.00921692  1
  In  In18  1  0.48524836  0.01124774  0.84015328  1
  In  In19  1  0.16010130  0.16127380  0.31048040  1
  In  In20  1  0.66523322  0.52296245  0.80379659  1
  In  In21  1  0.19558994  0.03026280  0.50060839  1
  In  In22  1  0.82376767  0.00999613  0.17510575  1
  In  In23  1  0.18283589  0.67086976  0.47319412  1
  In  In24  1  -0.02290037  0.64155590  0.33231006  1
  In  In25  1  -0.00260805  0.48077451  0.16004541  1
  In  In26  1  0.33995497  0.51196849  0.82057618  1
  In  In27  1  0.01759298  0.68096524  0.68717949  1
  In  In28  1  0.66904682  0.02488380  0.67224821  1
  In  In29  1  0.16001669  0.52066315  0.01107607  1
  In  In30  1  0.53385483  0.34265420  0.19897975  1
  In  In31  1  0.66315924  0.82552468  0.12167683  1
  In  In32  1  0.34728846  0.03249595  0.37651578  1
  In  In33  1  0.62812260  0.01060112  0.33299070  1
  In  In34  1  0.82597335  -0.00192028  0.53025578  1
  In  In35  1  0.50715046  0.30527407  0.50128399  1
  In  In36  1  0.68378034  0.16444865  0.50016533  1
  In  In37  1  0.47676848  0.85199917  0.66642751  1
  In  In38  1  -0.01451960  0.84465648  0.13588139  1
  In  In39  1  0.00704776  0.48887231  0.86684639  1
  In  In40  1  0.32789589  0.49079868  0.16532968  1
  In  In41  1  0.69318341  0.31094926  -0.02588365  1
  In  In42  1  0.16579019  0.35931901  0.85001939  1
  In  In43  1  0.32685800  0.82847392  0.14964063  1
  In  In44  1  0.80039655  0.29965361  0.18531603  1
  In  In45  1  0.33338099  0.66843433  0.30745768  1
  In  In46  1  0.34461935  0.85431004  0.50649571  1
  In  In47  1  0.16262018  0.83298075  0.00206914  1
  In  In48  1  0.33971310  0.33560366  0.32247132  1
  In  In49  1  -0.00770942  0.32068305  0.32256325  1
  In  In50  1  0.48869898  0.17680120  0.00565765  1
  In  In51  1  0.67286803  0.67091789  0.00055895  1
  In  In52  1  -0.01634806  0.16158418  0.50826028  1
  In  In53  1  0.82787762  0.00529117  0.84959651  1
  In  In54  1  0.67627992  0.00851010  -0.00209397  1
  In  In55  1  0.49052828  0.02427607  0.19096325  1
  In  In56  1  0.19000425  0.51613059  0.63965019  1
  In  In57  1  0.00101308  0.14723299  0.85199792  1
  In  In58  1  -0.01462415  0.17198016  0.14629399  1
  In  In59  1  0.82531417  0.84855242  0.34451582  1
  In  In60  1  -0.00181831  -0.00097536  0.69902030  1
  In  In61  1  0.17287487  0.17332530  0.02720391  1
  In  In62  1  0.63991363  0.82271875  0.54263863  1
  In  In63  1  0.68799144  0.66196008  0.33712746  1
  In  In64  1  -0.01494168  0.49648067  0.48930546  1
  In  In65  1  0.35546820  0.32278075  0.66357434  1
  In  In66  1  0.52451857  0.31462603  0.83060397  1
  In  In67  1  0.51018889  0.82090418  0.34176049  1
  In  In68  1  0.80956806  0.35367774  0.48031595  1
  In  In69  1  0.64345861  0.47660085  0.47977680  1
  In  In70  1  0.14371055  0.31094193  0.48293151  1
  In  In71  1  0.32715495  0.66609153  -0.01390588  1
  Te  Te72  1  0.09252315  0.08065845  0.10739431  1
  Te  Te73  1  0.07207682  0.08336270  0.41209087  1
  Te  Te74  1  0.10447039  0.09308124  0.75387209  1
  Te  Te75  1  0.08497092  0.40811963  0.06724024  1
  Te  Te76  1  0.07933982  0.42032018  0.39990298  1
  Te  Te77  1  0.09620217  0.43452772  0.73018867  1
  Te  Te78  1  0.06367781  0.74397943  0.06574255  1
  Te  Te79  1  0.07611916  0.74513202  0.39515112  1
  Te  Te80  1  0.09668838  0.78740555  0.75739386  1
  Te  Te81  1  0.39152622  0.12448135  0.11501574  1
  Te  Te82  1  0.49159486  0.06108025  0.38615052  1
  Te  Te83  1  0.38544860  0.06459803  0.74328642  1
  Te  Te84  1  0.41951760  0.39039436  0.10034994  1
  Te  Te85  1  0.43513600  0.41186033  0.41748706  1
  Te  Te86  1  0.43439745  0.41524512  0.75296182  1
  Te  Te87  1  0.43686800  0.75400057  0.07025272  1
  Te  Te88  1  0.40963299  0.73479948  0.42831403  1
  Te  Te89  1  0.41102222  0.76237452  0.76071090  1
  Te  Te90  1  0.73975614  0.10228744  0.09273874  1
  Te  Te91  1  0.75226331  0.05910715  0.41374622  1
  Te  Te92  1  0.74610026  0.10681868  0.77246181  1
  Te  Te93  1  0.73896750  0.40364451  0.08650249  1
  Te  Te94  1  0.72467683  0.41371352  0.37045946  1
  Te  Te95  1  0.76137039  0.41458315  0.75893177  1
  Te  Te96  1  0.79001136  0.77700702  0.04694086  1
  Te  Te97  1  0.73811016  0.76592292  0.43775448  1
  Te  Te98  1  0.79111221  0.66248175  0.68724884  1
  Te  Te99  1  0.08865118  0.26178700  0.22376474  1
  Te  Te100  1  0.08850134  0.22802112  0.59647557  1
  Te  Te101  1  0.09031174  0.25110611  0.92405234  1
  Te  Te102  1  0.07197212  0.57502156  0.24626895  1
  Te  Te103  1  0.07545784  0.59429392  0.56479105  1
  Te  Te104  1  0.09004198  0.60038417  0.90960056  1
  Te  Te105  1  0.07744649  0.90184463  0.23656627  1
  Te  Te106  1  0.09701270  0.95419501  0.58957407  1
  Te  Te107  1  0.07122663  0.92689162  0.92256253  1
  Te  Te108  1  0.44949701  0.24969651  0.27635707  1
  Te  Te109  1  0.39562811  0.22206572  0.56039468  1
  Te  Te110  1  0.40733418  0.27054224  0.91789432  1
  Te  Te111  1  0.42604825  0.55616668  0.26441156  1
  Te  Te112  1  0.41945027  0.56497285  0.59694164  1
  Te  Te113  1  0.43540589  0.59393360  0.90861163  1
  Te  Te114  1  0.41951813  0.90013362  0.25154236  1
  Te  Te115  1  0.40288989  0.95897892  0.59385742  1
  Te  Te116  1  0.40030103  0.90663819  0.91128157  1
  Te  Te117  1  0.70026786  0.23541602  0.27669805  1
  Te  Te118  1  0.76620308  0.25630963  0.58967787  1
  Te  Te119  1  0.75463630  0.22732525  0.87166358  1
  Te  Te120  1  0.73017126  0.57485922  0.22510553  1
  Te  Te121  1  0.73802425  0.54924179  0.57645051  1
  Te  Te122  1  0.75882488  0.58540104  0.90858198  1
  Te  Te123  1  0.72922848  0.90345816  0.24044272  1
  Te  Te124  1  0.74574869  0.90315958  0.61670740  1
  Te  Te125  1  0.72676525  0.90905526  0.90298759  1
  Te  Te126  1  0.28829425  0.23730530  0.08622006  1
  Te  Te127  1  0.24940752  0.23867975  0.40696371  1
  Te  Te128  1  0.24327731  0.27082804  0.75168747  1
  Te  Te129  1  0.25108077  0.60538245  0.10114605  1
  Te  Te130  1  0.24306099  0.56572875  0.38591156  1
  Te  Te131  1  0.24574171  0.60558394  0.74637078  1
  Te  Te132  1  0.24577090  0.93778384  0.08457657  1
  Te  Te133  1  0.24755555  0.91924527  0.40990224  1
  Te  Te134  1  0.21714768  0.88038186  0.72710700  1
  Te  Te135  1  0.58915739  0.26474471  0.07507741  1
  Te  Te136  1  0.60821483  0.25145318  0.40216573  1
  Te  Te137  1  0.56156907  0.21871322  0.72513072  1
  Te  Te138  1  0.58301491  0.56991669  0.07307911  1
  Te  Te139  1  0.57713136  0.59993042  0.42081944  1
  Te  Te140  1  0.56241218  0.59196107  0.72825588  1
  Te  Te141  1  0.55861299  0.93769019  0.08288349  1
  Te  Te142  1  0.56594281  0.91345780  0.44740820  1
  Te  Te143  1  0.57593671  0.93039936  0.74993312  1
  Te  Te144  1  0.89131789  0.26067180  0.07603337  1
  Te  Te145  1  0.89772933  0.24708847  0.41599871  1
  Te  Te146  1  0.90742334  0.24556939  0.78758844  1
  Te  Te147  1  0.92606739  0.58504373  0.07186377  1
  Te  Te148  1  0.87517593  0.57425504  0.42159195  1
  Te  Te149  1  0.93374249  0.58205255  0.76591569  1
  Te  Te150  1  0.91106228  0.95479706  0.06879938  1
  Te  Te151  1  0.92383862  0.91928746  0.43670218  1
  Te  Te152  1  0.90189194  0.90361336  0.76335470  1
  Te  Te153  1  0.26496160  0.07146045  0.26160053  1
  Te  Te154  1  0.29348852  0.10074542  0.58346804  1
  Te  Te155  1  0.25220275  0.08199113  0.91787846  1
  Te  Te156  1  0.23789162  0.40762017  0.24548763  1
  Te  Te157  1  0.25110060  0.39917074  0.56460088  1
  Te  Te158  1  0.26613363  0.43779056  0.93011798  1
  Te  Te159  1  0.23797517  0.75768158  0.24277065  1
  Te  Te160  1  0.24055416  0.76436917  0.57632924  1
  Te  Te161  1  0.25263922  0.76391623  0.90843461  1
  Te  Te162  1  0.61813525  0.10378501  0.21356414  1
  Te  Te163  1  0.57932650  0.10482039  0.58691146  1
  Te  Te164  1  0.58166947  0.09862134  0.91640850  1
  Te  Te165  1  0.61854505  0.44738690  0.26017226  1
  Te  Te166  1  0.57870281  0.40090943  0.59446033  1
  Te  Te167  1  0.59659857  0.42362568  0.91176596  1
  Te  Te168  1  0.59117215  0.74088317  0.23528464  1
  Te  Te169  1  0.60048955  0.72081116  0.64931573  1
  Te  Te170  1  0.62169500  0.75798086  0.89122919  1
  Te  Te171  1  0.90493500  0.10543032  0.26115687  1
  Te  Te172  1  0.90575647  0.09126206  0.61860884  1
  Te  Te173  1  0.91469833  0.07404959  0.94913453  1
  Te  Te174  1  0.89617710  0.40817304  0.24702246  1
  Te  Te175  1  0.93278669  0.39024327  0.58418285  1
  Te  Te176  1  0.91661518  0.39339383  0.92970141  1
  Te  Te177  1  0.89754560  0.75256377  0.25325830  1
  Te  Te178  1  0.94043136  0.77601027  0.59596885  1
  Te  Te179  1  0.87550965  0.74171045  0.92268061  1
