# generated using pymatgen
data_In2Te3
_symmetry_space_group_name_H-M   'P 1'
_cell_length_a   19.00468442
_cell_length_b   18.95430483
_cell_length_c   19.01842947
_cell_angle_alpha   89.98314413
_cell_angle_beta   90.04534133
_cell_angle_gamma   89.96111755
_symmetry_Int_Tables_number   1
_chemical_formula_structural   In2Te3
_chemical_formula_sum   'In72 Te108'
_cell_volume   6850.82570622
_cell_formula_units_Z   36
loop_
 _symmetry_equiv_pos_site_id
 _symmetry_equiv_pos_as_xyz
  1  'x, y, z'
loop_
 _atom_site_type_symbol
 _atom_site_label
 _atom_site_symmetry_multiplicity
 _atom_site_fract_x
 _atom_site_fract_y
 _atom_site_fract_z
 _atom_site_occupancy
  In  In0  1  0.34659488  0.49617556  0.17377044  1
  In  In1  1  0.01807938  0.30074289  0.34540435  1
  In  In2  1  0.33165143  0.14231945  0.12850376  1
  In  In3  1  0.49853620  0.01506486  0.15223660  1
  In  In4  1  0.02020345  0.16954866  0.83142695  1
  In  In5  1  0.00211864  0.03188751  0.01134160  1
  In  In6  1  0.84545177  0.49389302  -0.02009984  1
  In  In7  1  0.86334352  0.33578458  0.83342948  1
  In  In8  1  0.30500347  0.67343933  0.66263602  1
  In  In9  1  0.50485922  0.64713730  0.50000260  1
  In  In10  1  0.47329146  0.82390298  0.67456186  1
  In  In11  1  0.65692723  0.16353226  0.84386740  1
  In  In12  1  0.83103150  0.49095593  0.33984114  1
  In  In13  1  0.16388644  0.86290595  0.30207448  1
  In  In14  1  -0.01627207  0.10121230  0.48446491  1
  In  In15  1  -0.00644382  0.68877004  0.33593708  1
  In  In16  1  0.64939651  0.34445840  0.02407504  1
  In  In17  1  0.69353779  0.33840454  0.65539563  1
  In  In18  1  0.34210430  0.33244481  0.35477891  1
  In  In19  1  0.51241333  0.49023722  0.69570496  1
  In  In20  1  0.02170135  0.48835339  0.51828059  1
  In  In21  1  0.47510648  0.30022770  0.84840315  1
  In  In22  1  0.68816548  0.68547508  0.64169838  1
  In  In23  1  0.84250813  0.82867913  0.00570085  1
  In  In24  1  0.70442468  0.83967745  0.49496974  1
  In  In25  1  0.50309344  -0.00342081  0.49961490  1
  In  In26  1  0.84984868  0.29374605  0.17107802  1
  In  In27  1  0.49532910  0.34252938  0.18008473  1
  In  In28  1  -0.02972848  0.64355208  0.68801460  1
  In  In29  1  0.66943786  0.47700146  0.84803972  1
  In  In30  1  0.17658617  0.51372487  -0.00615067  1
  In  In31  1  0.51993666  0.83890044  0.32460386  1
  In  In32  1  0.03540683  0.67758243  -0.00285191  1
  In  In33  1  0.84767736  0.04084878  0.18838835  1
  In  In34  1  0.33738398  0.51122320  0.82224281  1
  In  In35  1  0.00745382  0.88940256  0.44873888  1
  In  In36  1  0.64313324  0.81762215  0.81751242  1
  In  In37  1  0.29150816  0.90586459  0.89158731  1
  In  In38  1  0.48219308  0.67394963  0.15398359  1
  In  In39  1  0.31648260  0.80103088  0.51394698  1
  In  In40  1  0.15814416  0.15857822  0.66032009  1
  In  In41  1  0.84099658  0.19120333  -0.00241363  1
  In  In42  1  0.20122817  0.32239944  0.16622490  1
  In  In43  1  0.33259530  0.64536224  0.33502054  1
  In  In44  1  0.69036673  0.84735785  0.17831535  1
  In  In45  1  0.85087661  0.68030364  0.15985856  1
  In  In46  1  0.68472305  0.51161724  0.51291558  1
  In  In47  1  0.02378364  0.50129168  0.18339321  1
  In  In48  1  0.17299134  0.32608087  0.83712148  1
  In  In49  1  0.84478549  0.31930503  0.50401974  1
  In  In50  1  0.15382575  0.68978910  0.17123634  1
  In  In51  1  0.31080689  0.00495692  0.31768174  1
  In  In52  1  0.32973502  0.16919264  0.51333175  1
  In  In53  1  0.48562171  0.18188146  0.65610402  1
  In  In54  1  0.50996493  0.17125606  0.32065797  1
  In  In55  1  0.02260165  0.32430782  0.67539509  1
  In  In56  1  0.66624390  0.17684326  0.17517391  1
  In  In57  1  0.17846426  0.32822098  0.50716663  1
  In  In58  1  0.67235081  -0.03180432  0.66475943  1
  In  In59  1  -0.02486873  0.82447503  0.85046500  1
  In  In60  1  0.82362078  -0.02166375  0.81815621  1
  In  In61  1  0.29809657  0.86930816  0.14242064  1
  In  In62  1  0.68702271  0.13796303  0.47058262  1
  In  In63  1  0.29692533  0.13874623  0.83945216  1
  In  In64  1  0.50359428  0.65728430  0.83571148  1
  In  In65  1  0.64085139  0.00492996  -0.00390551  1
  In  In66  1  0.30364714  0.01204416  0.67504203  1
  In  In67  1  0.31493408  0.68680070  -0.02238144  1
  In  In68  1  0.84420720  0.69300914  0.49468274  1
  In  In69  1  0.66006595  0.50164644  0.16589550  1
  In  In70  1  0.84454641  0.83136991  0.65011178  1
  In  In71  1  0.31346426  0.48997631  0.49092229  1
  Te  Te72  1  0.11397643  0.05741235  0.10880768  1
  Te  Te73  1  0.06907532  0.05201447  0.36711156  1
  Te  Te74  1  0.09390926  0.06877058  0.75544614  1
  Te  Te75  1  0.10668854  0.41913375  0.08969922  1
  Te  Te76  1  0.09690980  0.41400391  0.41125116  1
  Te  Te77  1  0.07533432  0.41702963  0.77414197  1
  Te  Te78  1  0.06096621  0.77818945  0.10116335  1
  Te  Te79  1  0.09822167  0.77231143  0.40601318  1
  Te  Te80  1  0.05360252  0.74348550  0.75601313  1
  Te  Te81  1  0.40450543  0.04047228  0.03664617  1
  Te  Te82  1  0.41416985  0.08066371  0.40919191  1
  Te  Te83  1  0.41205732  0.08750523  0.74745403  1
  Te  Te84  1  0.41315877  0.40780033  0.07978017  1
  Te  Te85  1  0.42700995  0.43119781  0.42119266  1
  Te  Te86  1  0.40855898  0.39591636  0.75037744  1
  Te  Te87  1  0.39442317  0.77162917  0.07547400  1
  Te  Te88  1  0.43213457  0.75482428  0.41783972  1
  Te  Te89  1  0.39575756  0.74141389  0.77063845  1
  Te  Te90  1  0.74487525  0.09076049  0.07121491  1
  Te  Te91  1  0.78083039  0.05529569  0.39377521  1
  Te  Te92  1  0.73766109  0.08089222  0.74661486  1
  Te  Te93  1  0.77160528  0.40408751  0.09072391  1
  Te  Te94  1  0.74529490  0.40110666  0.42446486  1
  Te  Te95  1  0.77484858  0.43524645  0.74370533  1
  Te  Te96  1  0.74019758  0.74426084  0.07839637  1
  Te  Te97  1  0.74265313  0.73590781  0.39863745  1
  Te  Te98  1  0.76524899  0.75374642  0.75317006  1
  Te  Te99  1  0.09454395  0.24612838  0.23390426  1
  Te  Te100  1  0.06910694  0.23217806  0.56146705  1
  Te  Te101  1  0.10525377  0.23418960  0.93139470  1
  Te  Te102  1  0.09845793  0.59430067  0.27506041  1
  Te  Te103  1  0.07714476  0.59500996  0.59933601  1
  Te  Te104  1  0.08153729  0.57710771  0.90210815  1
  Te  Te105  1  0.05783463  0.95321161  0.24869353  1
  Te  Te106  1  0.04859032  0.98237826  0.55982906  1
  Te  Te107  1  0.05238492  0.93417962  0.91328433  1
  Te  Te108  1  0.39593722  0.23199853  0.24247627  1
  Te  Te109  1  0.41746866  0.27278889  0.56514734  1
  Te  Te110  1  0.37414297  0.23000967  0.92888835  1
  Te  Te111  1  0.44215366  0.57343343  0.26394452  1
  Te  Te112  1  0.42962091  0.59137063  0.61583563  1
  Te  Te113  1  0.41468619  0.58202834  0.93250484  1
  Te  Te114  1  0.41544624  0.91806539  0.24428267  1
  Te  Te115  1  0.40052321  0.92143883  0.58101737  1
  Te  Te116  1  0.42888033  0.93390506  0.93478177  1
  Te  Te117  1  0.76210908  0.23287460  0.26960094  1
  Te  Te118  1  0.75681636  0.22322938  0.58097164  1
  Te  Te119  1  0.73823040  0.27378217  0.91197178  1
  Te  Te120  1  0.76495524  0.58293865  0.24113279  1
  Te  Te121  1  0.79093257  0.58616417  0.59029580  1
  Te  Te122  1  0.72971100  0.57239656  0.94003071  1
  Te  Te123  1  0.77316233  0.93374334  0.26921119  1
  Te  Te124  1  0.78942435  0.95281031  0.56645233  1
  Te  Te125  1  0.73487456  0.90557324  0.91731828  1
  Te  Te126  1  0.24576314  0.23639829  0.05185668  1
  Te  Te127  1  0.24081923  0.23217365  0.40742765  1
  Te  Te128  1  0.25496463  0.24330585  0.73626882  1
  Te  Te129  1  0.25297417  0.59832196  0.10094019  1
  Te  Te130  1  0.24749105  0.61380652  0.44824597  1
  Te  Te131  1  0.23689954  0.60463613  0.77272721  1
  Te  Te132  1  0.21082512  0.95224246  0.05497203  1
  Te  Te133  1  0.25652381  0.90617887  0.41834894  1
  Te  Te134  1  0.24807630  0.89747040  0.74677158  1
  Te  Te135  1  0.56362730  0.23635279  0.08290309  1
  Te  Te136  1  0.58746463  0.23511992  0.42588379  1
  Te  Te137  1  0.59000154  0.26662629  0.74321418  1
  Te  Te138  1  0.56389156  0.57385757  0.08369713  1
  Te  Te139  1  0.61486100  0.59978541  0.41750867  1
  Te  Te140  1  0.61489784  0.59225972  0.74314766  1
  Te  Te141  1  0.58038638  0.90250047  0.08947477  1
  Te  Te142  1  0.60492809  0.92588252  0.41427321  1
  Te  Te143  1  0.55721565  0.92462831  0.75312596  1
  Te  Te144  1  0.95064867  0.23916278  0.08087720  1
  Te  Te145  1  0.91150815  0.21927079  0.41378908  1
  Te  Te146  1  0.91682175  0.23365348  0.73793637  1
  Te  Te147  1  0.93780242  0.57911139  0.08664876  1
  Te  Te148  1  0.92481997  0.57638208  0.42324185  1
  Te  Te149  1  0.87534247  0.55582906  0.75263269  1
  Te  Te150  1  0.90277074  0.94091651  0.08467224  1
  Te  Te151  1  0.87730445  0.93238899  0.39258565  1
  Te  Te152  1  0.93392709  0.92092309  0.73501583  1
  Te  Te153  1  0.23138002  0.08728481  0.22464520  1
  Te  Te154  1  0.22981993  0.06595793  0.55532917  1
  Te  Te155  1  0.21859505  0.03778618  0.91652410  1
  Te  Te156  1  0.25582489  0.42374828  0.26954675  1
  Te  Te157  1  0.24001055  0.42418018  0.59744823  1
  Te  Te158  1  0.26493513  0.41826523  0.91807562  1
  Te  Te159  1  0.27168072  0.75783838  0.25360396  1
  Te  Te160  1  0.21561717  0.78614660  0.61870220  1
  Te  Te161  1  0.21612585  0.78389892  0.93529361  1
  Te  Te162  1  0.59628937  0.06635656  0.25460610  1
  Te  Te163  1  0.58539029  0.08086507  0.59418500  1
  Te  Te164  1  0.55269440  0.08731748  0.91215275  1
  Te  Te165  1  0.60529125  0.39970516  0.25538970  1
  Te  Te166  1  0.58684748  0.41991278  0.58389736  1
  Te  Te167  1  0.55691652  0.40812563  0.92149925  1
  Te  Te168  1  0.59226250  0.74240563  0.23652106  1
  Te  Te169  1  0.58493176  0.77778030  0.57950500  1
  Te  Te170  1  0.56650918  0.75510392  0.92376552  1
  Te  Te171  1  0.97087575  0.09226640  0.25284506  1
  Te  Te172  1  0.91230557  0.04641007  0.60385679  1
  Te  Te173  1  0.89524238  0.08574337  0.90315561  1
  Te  Te174  1  0.93006262  0.40755453  0.25995860  1
  Te  Te175  1  0.92155663  0.40873956  0.59697629  1
  Te  Te176  1  0.94610855  0.39852118  0.93482414  1
  Te  Te177  1  0.93257195  0.77562292  0.23563784  1
  Te  Te178  1  0.94803362  0.78512537  0.55019192  1
  Te  Te179  1  0.90238291  0.71635123  0.92644482  1
