# generated using pymatgen
data_In2Te3
_symmetry_space_group_name_H-M   'P 1'
_cell_length_a   18.93757582
_cell_length_b   18.94544442
_cell_length_c   18.93833021
_cell_angle_alpha   89.92177067
_cell_angle_beta   89.83010326
_cell_angle_gamma   90.09572432
_symmetry_Int_Tables_number   1
_chemical_formula_structural   In2Te3
_chemical_formula_sum   'In72 Te108'
_cell_volume   6794.66334144
_cell_formula_units_Z   36
loop_
 _symmetry_equiv_pos_site_id
 _symmetry_equiv_pos_as_xyz
  1  'x, y, z'
loop_
 _atom_site_type_symbol
 _atom_site_label
 _atom_site_symmetry_multiplicity
 _atom_site_fract_x
 _atom_site_fract_y
 _atom_site_fract_z
 _atom_site_occupancy
  In  In0  1  0.68305250  0.33315423  0.64269507  1
  In  In1  1  0.82672597  0.33213228  0.80342957  1
  In  In2  1  0.17814778  0.49583350  0.64396321  1
  In  In3  1  0.49092524  0.82882517  0.00155392  1
  In  In4  1  0.16964953  0.52186462  -0.00846047  1
  In  In5  1  0.81954845  0.67914636  0.49361000  1
  In  In6  1  0.48614732  0.14372554  0.64255447  1
  In  In7  1  0.18286171  0.84526066  -0.01180752  1
  In  In8  1  0.00048125  0.82825123  0.15860353  1
  In  In9  1  0.82401470  0.00964841  0.49749442  1
  In  In10  1  0.82831962  0.15625445  0.00574206  1
  In  In11  1  0.64882504  0.14173008  0.82187704  1
  In  In12  1  0.83548902  0.84988495  0.67777748  1
  In  In13  1  0.82023693  0.16752280  0.66984224  1
  In  In14  1  0.66079166  0.00230743  0.65188408  1
  In  In15  1  0.16838020  0.67368808  0.54169234  1
  In  In16  1  0.33686149  0.68316323  0.02369331  1
  In  In17  1  0.00674001  0.68544480  0.70156182  1
  In  In18  1  0.33903813  0.52552584  0.83603186  1
  In  In19  1  0.02827745  0.33701603  0.33762680  1
  In  In20  1  0.18955378  0.33448683  0.80084047  1
  In  In21  1  -0.00143224  0.47330268  0.48450204  1
  In  In22  1  0.82052715  0.83854136  0.01455713  1
  In  In23  1  0.65645493  0.48305818  0.48716676  1
  In  In24  1  0.66663989  0.32662427  0.00787641  1
  In  In25  1  0.01283298  0.51852458  0.17109276  1
  In  In26  1  0.48378979  0.34668150  0.15529583  1
  In  In27  1  0.19560638  0.34441917  0.18126651  1
  In  In28  1  0.19283864  0.01354376  0.16365315  1
  In  In29  1  0.17468387  0.64823300  0.18625901  1
  In  In30  1  0.01066269  0.15933367  0.84499516  1
  In  In31  1  0.32674568  0.67759674  0.68406135  1
  In  In32  1  0.03047167  0.65443239  0.33982046  1
  In  In33  1  0.00099802  0.17870785  0.49495251  1
  In  In34  1  0.81329658  0.49842647  0.31314249  1
  In  In35  1  0.48778718  0.67094229  0.50109657  1
  In  In36  1  0.18148599  -0.02304144  0.82940175  1
  In  In37  1  0.48550610  0.31314790  0.83763385  1
  In  In38  1  0.35049751  0.64410234  0.33366793  1
  In  In39  1  0.34751394  -0.01525138  -0.01924853  1
  In  In40  1  -0.02354887  0.69360705  -0.00382634  1
  In  In41  1  0.34604713  -0.00619462  0.67486307  1
  In  In42  1  0.01758936  -0.00048218  -0.01158421  1
  In  In43  1  0.81574183  0.03246573  0.17284767  1
  In  In44  1  0.31927872  0.18836465  0.48036680  1
  In  In45  1  0.33793379  0.17267783  0.16179015  1
  In  In46  1  0.50988511  0.83243824  0.33082188  1
  In  In47  1  0.64939712  0.54486731  0.90791395  1
  In  In48  1  0.65395120  0.84273639  0.84750794  1
  In  In49  1  0.33595709  0.48345515  0.49586130  1
  In  In50  1  0.79441252  0.30938973  0.19730930  1
  In  In51  1  0.01120956  0.15938435  0.14231215  1
  In  In52  1  0.00087328  0.33379946  -0.02755000  1
  In  In53  1  0.16312444  0.82720040  0.34747182  1
  In  In54  1  0.66084115  0.66091492  0.68381749  1
  In  In55  1  0.64915981  -0.00895931  0.33343676  1
  In  In56  1  0.63733482  0.83277562  0.15692441  1
  In  In57  1  0.49820743  0.17013932  -0.00827630  1
  In  In58  1  0.48423417  0.83259441  0.66539364  1
  In  In59  1  0.19109365  0.16096247  0.68434516  1
  In  In60  1  0.81107171  0.84888952  0.35853074  1
  In  In61  1  0.13610204  -0.01406671  0.52225254  1
  In  In62  1  0.85152148  0.49924710  0.67185202  1
  In  In63  1  0.50179805  0.48269352  0.33231759  1
  In  In64  1  0.52386134  0.49132324  0.67401216  1
  In  In65  1  0.82345172  0.68669784  0.15847443  1
  In  In66  1  0.65167117  0.51114473  0.12373720  1
  In  In67  1  0.52300689  0.16909295  0.32423137  1
  In  In68  1  -0.00558557  0.50973410  0.85679233  1
  In  In69  1  0.34564073  0.00152979  0.34208499  1
  In  In70  1  0.00790543  0.34888269  0.63476215  1
  In  In71  1  -0.01588944  -0.00176531  0.33743497  1
  Te  Te72  1  0.11731755  0.09116728  0.05719576  1
  Te  Te73  1  0.08614938  0.08141678  0.41327217  1
  Te  Te74  1  0.08826187  0.07118073  0.74980923  1
  Te  Te75  1  0.07929455  0.42163402  0.07202251  1
  Te  Te76  1  0.11914709  0.39397255  0.44309890  1
  Te  Te77  1  0.06932873  0.42527588  0.75411714  1
  Te  Te78  1  0.10180922  0.73928565  0.08850207  1
  Te  Te79  1  0.07634201  0.75196182  0.44536877  1
  Te  Te80  1  0.12221391  0.77650760  0.71304269  1
  Te  Te81  1  0.41899662  0.07407704  0.08173970  1
  Te  Te82  1  0.42917845  0.09800214  0.42346467  1
  Te  Te83  1  0.41376203  0.09352398  0.76050566  1
  Te  Te84  1  0.39031887  0.45403446  0.11592321  1
  Te  Te85  1  0.41592551  0.39271619  0.41185841  1
  Te  Te86  1  0.41556458  0.42100589  0.75466244  1
  Te  Te87  1  0.42867300  0.75402669  0.11564789  1
  Te  Te88  1  0.40242797  0.76109886  0.41664257  1
  Te  Te89  1  0.41899358  0.75262838  0.77250179  1
  Te  Te90  1  0.71992144  0.10451571  0.09009001  1
  Te  Te91  1  0.75613590  0.08072934  0.38532667  1
  Te  Te92  1  0.75797954  0.05954817  0.75534448  1
  Te  Te93  1  0.76247071  0.41257387  0.08681183  1
  Te  Te94  1  0.73616394  0.39987447  0.39370473  1
  Te  Te95  1  0.73338774  0.43563140  0.74530654  1
  Te  Te96  1  0.72270717  0.72402931  0.04782817  1
  Te  Te97  1  0.72643462  0.73753151  0.39832113  1
  Te  Te98  1  0.74699024  0.75521013  0.76211710  1
  Te  Te99  1  0.09516135  0.24218107  0.23731669  1
  Te  Te100  1  0.10382761  0.24438298  0.58693928  1
  Te  Te101  1  0.11037468  0.25286965  0.90885499  1
  Te  Te102  1  0.11543144  0.54428536  0.28089447  1
  Te  Te103  1  0.05462515  0.57353785  0.58887060  1
  Te  Te104  1  0.08342601  0.61905972  0.91309928  1
  Te  Te105  1  0.08943282  0.92363386  0.24503017  1
  Te  Te106  1  0.06723060  0.89351367  0.62245234  1
  Te  Te107  1  0.06886653  0.88991316  0.89968495  1
  Te  Te108  1  0.41720997  0.25753494  0.25871540  1
  Te  Te109  1  0.40420024  0.25073107  0.58279119  1
  Te  Te110  1  0.39866691  0.27077303  0.94954798  1
  Te  Te111  1  0.41936652  0.55881042  0.23091137  1
  Te  Te112  1  0.41892011  0.57846135  0.60016331  1
  Te  Te113  1  0.41909771  0.58293213  0.94657995  1
  Te  Te114  1  0.43291758  0.93003745  0.24614669  1
  Te  Te115  1  0.43878018  0.93858619  0.57393380  1
  Te  Te116  1  0.39833524  0.87601093  0.89284484  1
  Te  Te117  1  0.71801110  0.20771653  0.27689753  1
  Te  Te118  1  0.74899462  0.23146568  0.55891555  1
  Te  Te119  1  0.74911493  0.24271144  0.90018308  1
  Te  Te120  1  0.72835166  0.59301299  0.23172581  1
  Te  Te121  1  0.74468188  0.57370876  0.58030697  1
  Te  Te122  1  0.77126742  0.60994236  0.95689767  1
  Te  Te123  1  0.75623004  0.89984217  0.22762654  1
  Te  Te124  1  0.74298090  0.90388523  0.57017859  1
  Te  Te125  1  0.72780424  0.93023351  0.94521422  1
  Te  Te126  1  0.26098195  0.26567987  0.07637911  1
  Te  Te127  1  0.23939197  0.28974894  0.39705704  1
  Te  Te128  1  0.28898818  0.22994110  0.76969872  1
  Te  Te129  1  0.26223791  0.55451054  0.10655569  1
  Te  Te130  1  0.25014154  0.59331028  0.43707911  1
  Te  Te131  1  0.22528962  0.58699562  0.75380610  1
  Te  Te132  1  0.27030943  0.90596497  0.09464652  1
  Te  Te133  1  0.24324995  0.92418980  0.42943844  1
  Te  Te134  1  0.24646803  0.89277153  0.72493146  1
  Te  Te135  1  0.58097919  0.24283186  0.09798475  1
  Te  Te136  1  0.61796853  0.27608671  0.36539938  1
  Te  Te137  1  0.59154994  0.25666757  0.74273564  1
  Te  Te138  1  0.56266221  0.58110819  0.02772713  1
  Te  Te139  1  0.57875934  0.58899083  0.41101224  1
  Te  Te140  1  0.56951424  0.58964430  0.77973750  1
  Te  Te141  1  0.59355914  0.92673401  0.05301956  1
  Te  Te142  1  0.57592454  0.91445853  0.43459611  1
  Te  Te143  1  0.57285890  0.92583464  0.74881977  1
  Te  Te144  1  0.91459393  0.25863522  0.07905377  1
  Te  Te145  1  0.92163022  0.26160663  0.40511165  1
  Te  Te146  1  0.94016326  0.25105381  0.74195870  1
  Te  Te147  1  0.91047155  0.58584182  0.08068205  1
  Te  Te148  1  0.91054581  0.57880251  0.40862989  1
  Te  Te149  1  0.90226639  0.59883158  0.77375179  1
  Te  Te150  1  0.92456457  0.94277199  0.09585591  1
  Te  Te151  1  0.92480338  0.90334525  0.43876134  1
  Te  Te152  1  0.94856098  0.93684777  0.70954758  1
  Te  Te153  1  0.25427241  0.09989946  0.26969232  1
  Te  Te154  1  0.25135490  0.07626703  0.57176295  1
  Te  Te155  1  0.24896899  0.07255219  0.91718117  1
  Te  Te156  1  0.25912499  0.40240118  0.29936545  1
  Te  Te157  1  0.27528074  0.39672368  0.60041854  1
  Te  Te158  1  0.25046360  0.42405933  0.90951662  1
  Te  Te159  1  0.25887416  0.74865838  0.26050882  1
  Te  Te160  1  0.27142830  0.76999600  0.58258755  1
  Te  Te161  1  0.26240353  0.74697654  0.91380135  1
  Te  Te162  1  0.55090128  0.04944922  0.23958973  1
  Te  Te163  1  0.61129818  0.11482077  0.56922794  1
  Te  Te164  1  0.56435764  0.06467470  0.91251772  1
  Te  Te165  1  0.59577928  0.41830991  0.23045101  1
  Te  Te166  1  0.56449941  0.39195996  0.56657114  1
  Te  Te167  1  0.58007374  0.40588896  0.91544622  1
  Te  Te168  1  0.56113971  0.73224311  0.23191064  1
  Te  Te169  1  0.58696003  0.74808946  0.58619384  1
  Te  Te170  1  0.58405372  0.73857418  0.92663672  1
  Te  Te171  1  0.92039325  0.10752308  0.25377042  1
  Te  Te172  1  0.92034706  0.08590596  0.58655905  1
  Te  Te173  1  0.90716201  0.06869145  0.90938506  1
  Te  Te174  1  0.92449671  0.41857566  0.24671362  1
  Te  Te175  1  0.88698664  0.40136441  0.56145031  1
  Te  Te176  1  0.88793990  0.41745981  0.91453168  1
  Te  Te177  1  0.93026460  0.73810661  0.25892558  1
  Te  Te178  1  0.90948701  0.74129095  0.59591184  1
  Te  Te179  1  0.90579649  0.78499990  0.90681836  1
