# generated using pymatgen
data_In2Te3
_symmetry_space_group_name_H-M   'P 1'
_cell_length_a   18.77578806
_cell_length_b   18.77557226
_cell_length_c   18.78360007
_cell_angle_alpha   90.02477025
_cell_angle_beta   89.94867461
_cell_angle_gamma   90.05522825
_symmetry_Int_Tables_number   1
_chemical_formula_structural   In2Te3
_chemical_formula_sum   'In72 Te108'
_cell_volume   6621.70415672
_cell_formula_units_Z   36
loop_
 _symmetry_equiv_pos_site_id
 _symmetry_equiv_pos_as_xyz
  1  'x, y, z'
loop_
 _atom_site_type_symbol
 _atom_site_label
 _atom_site_symmetry_multiplicity
 _atom_site_fract_x
 _atom_site_fract_y
 _atom_site_fract_z
 _atom_site_occupancy
  In  In0  1  0.13370259  -0.01295798  0.84190014  1
  In  In1  1  0.67376058  0.82911115  0.49317064  1
  In  In2  1  0.17207662  0.50551631  -0.00370687  1
  In  In3  1  0.51047059  0.32661874  0.17842096  1
  In  In4  1  0.52347706  0.18051768  0.00743602  1
  In  In5  1  0.00549481  0.69064208  0.00084154  1
  In  In6  1  -0.00777913  0.01734163  0.34254317  1
  In  In7  1  0.47798894  0.65862941  0.83056704  1
  In  In8  1  0.83480134  0.67124663  0.87103122  1
  In  In9  1  0.83810715  -0.00038748  0.51480672  1
  In  In10  1  0.49951713  0.83024061  0.67695789  1
  In  In11  1  0.32189997  0.01345110  0.65606735  1
  In  In12  1  0.48079629  0.82285691  0.31829442  1
  In  In13  1  0.49831697  0.51980120  0.00009734  1
  In  In14  1  0.84421922  -0.00517837  0.81158701  1
  In  In15  1  0.82956860  0.48181963  0.34775551  1
  In  In16  1  0.32721025  0.34963778  -0.00215095  1
  In  In17  1  0.31132256  0.64601922  0.67042575  1
  In  In18  1  -0.00540233  0.68363633  0.33306135  1
  In  In19  1  0.83474987  0.67091651  0.18593673  1
  In  In20  1  0.65582452  0.47527674  0.15408548  1
  In  In21  1  0.65209553  0.85329603  0.82937976  1
  In  In22  1  0.65236044  0.51316873  0.83958152  1
  In  In23  1  0.87594033  0.85208537  0.01843747  1
  In  In24  1  0.67844810  0.13449682  0.84466490  1
  In  In25  1  0.85533319  0.33281277  0.83651404  1
  In  In26  1  0.01238399  0.32699252  0.66181836  1
  In  In27  1  0.15561876  0.67410850  0.14390861  1
  In  In28  1  0.82612633  0.17803821  0.30222027  1
  In  In29  1  -0.00070430  0.32256714  0.32376131  1
  In  In30  1  0.16357614  0.00455001  0.50848282  1
  In  In31  1  0.66978943  0.65971382  0.01462842  1
  In  In32  1  0.00135080  0.16360367  0.50832464  1
  In  In33  1  0.83617210  0.15697611  0.01527910  1
  In  In34  1  0.47866633  0.47763386  0.34096636  1
  In  In35  1  0.67403523  0.01410151  0.00351378  1
  In  In36  1  0.01317204  0.69266766  0.67210860  1
  In  In37  1  -0.00602079  0.30740196  -0.00246380  1
  In  In38  1  0.47192641  0.33815965  0.79024456  1
  In  In39  1  0.16854122  0.83534677  0.33958294  1
  In  In40  1  0.49289097  0.16789261  0.65810934  1
  In  In41  1  0.18533267  0.46949331  0.34339189  1
  In  In42  1  0.30066070  0.69595166  -0.00950234  1
  In  In43  1  0.48128781  0.83362709  0.00908508  1
  In  In44  1  0.65085939  0.18941234  0.48100111  1
  In  In45  1  0.32295720  0.17664178  0.81125524  1
  In  In46  1  0.49219324  0.01125945  0.50023219  1
  In  In47  1  0.66615753  0.32535070  0.65068787  1
  In  In48  1  0.84642645  0.49752141  0.66183310  1
  In  In49  1  0.33789604  0.66096947  0.33067708  1
  In  In50  1  0.16788305  0.32926340  0.19884513  1
  In  In51  1  0.66058632  0.34259458  0.02269659  1
  In  In52  1  0.13708771  0.16371187  0.00125973  1
  In  In53  1  0.18137438  0.00839497  0.15486553  1
  In  In54  1  0.01888656  0.48871062  0.83322152  1
  In  In55  1  0.02020107  0.49594369  0.50306789  1
  In  In56  1  0.16948363  0.84907198  0.66153566  1
  In  In57  1  0.64300427  0.67540303  0.33642153  1
  In  In58  1  0.46639235  0.47739383  0.63449782  1
  In  In59  1  0.82898052  0.84730749  0.32325232  1
  In  In60  1  0.66510918  0.48885172  0.49082778  1
  In  In61  1  0.33324567  0.32169137  0.63930705  1
  In  In62  1  0.66336287  0.67728741  0.65678394  1
  In  In63  1  0.67434093  0.00116996  0.31368973  1
  In  In64  1  0.85805848  0.83572381  0.66784190  1
  In  In65  1  0.00734591  0.16133185  0.82376246  1
  In  In66  1  0.35332611  0.18160479  0.17958439  1
  In  In67  1  0.51058560  0.00905310  0.17994975  1
  In  In68  1  0.16070138  0.65908724  0.50137339  1
  In  In69  1  0.32693571  -0.02201991  -0.01396505  1
  In  In70  1  0.33904451  0.00540695  0.33260108  1
  In  In71  1  0.00760920  0.50164038  0.18260002  1
  Te  Te72  1  0.06023292  0.05839860  0.07536250  1
  Te  Te73  1  0.10024805  0.10279600  0.40714013  1
  Te  Te74  1  0.09801164  0.08362903  0.73728179  1
  Te  Te75  1  0.08855396  0.41132495  0.08803055  1
  Te  Te76  1  0.09232102  0.38269528  0.42905835  1
  Te  Te77  1  0.10267295  0.42700817  0.72817157  1
  Te  Te78  1  0.08131299  0.78959966  0.08535148  1
  Te  Te79  1  0.07229730  0.76517285  0.43623016  1
  Te  Te80  1  0.12116471  0.74416921  0.75995569  1
  Te  Te81  1  0.41553909  0.08446250  0.07677818  1
  Te  Te82  1  0.40084342  0.10298802  0.42726858  1
  Te  Te83  1  0.42261688  0.07553952  0.75606350  1
  Te  Te84  1  0.42437496  0.41981594  0.09274426  1
  Te  Te85  1  0.38217046  0.41538006  0.44116400  1
  Te  Te86  1  0.37240102  0.45006012  0.75620895  1
  Te  Te87  1  0.40911044  0.73087984  0.08428275  1
  Te  Te88  1  0.40442761  0.75594133  0.42383288  1
  Te  Te89  1  0.39110547  0.75599678  0.75573044  1
  Te  Te90  1  0.75406654  0.07584816  0.11118476  1
  Te  Te91  1  0.75734478  0.08279846  0.41513089  1
  Te  Te92  1  0.76146079  0.08798121  0.73296377  1
  Te  Te93  1  0.77264397  0.41578803  0.08530776  1
  Te  Te94  1  0.75392340  0.38625794  0.43088272  1
  Te  Te95  1  0.74510567  0.41990411  0.75630154  1
  Te  Te96  1  0.76492426  0.75777725  0.08004442  1
  Te  Te97  1  0.76329523  0.73823824  0.41019855  1
  Te  Te98  1  0.75108260  0.74460345  0.76271747  1
  Te  Te99  1  0.07340169  0.22496149  0.23994326  1
  Te  Te100  1  0.10585331  0.23340328  0.59176497  1
  Te  Te101  1  0.09612164  0.26568341  0.89346606  1
  Te  Te102  1  0.09860187  0.58638158  0.27204387  1
  Te  Te103  1  0.09386604  0.57533271  0.61043440  1
  Te  Te104  1  0.09036607  0.60098630  0.91035398  1
  Te  Te105  1  0.08907288  0.93302254  0.25605366  1
  Te  Te106  1  0.06455494  0.92688710  0.58910623  1
  Te  Te107  1  0.11545750  0.88658046  0.94967272  1
  Te  Te108  1  0.42693956  0.25807761  0.28570575  1
  Te  Te109  1  0.41993006  0.23817410  0.54952038  1
  Te  Te110  1  0.41765132  0.25062883  0.91684717  1
  Te  Te111  1  0.43126824  0.58103453  0.24739686  1
  Te  Te112  1  0.41336412  0.59975502  0.57254610  1
  Te  Te113  1  0.38457725  0.58123671  0.92134879  1
  Te  Te114  1  0.39938643  0.91431727  0.22594506  1
  Te  Te115  1  0.40931518  0.91223120  0.58138696  1
  Te  Te116  1  0.41541927  0.90026295  0.89642818  1
  Te  Te117  1  0.72777914  0.26157534  0.23184658  1
  Te  Te118  1  0.75603359  0.23937586  0.57222689  1
  Te  Te119  1  0.74690790  0.25312862  0.92081535  1
  Te  Te120  1  0.74110560  0.57387888  0.25895938  1
  Te  Te121  1  0.75317438  0.58342597  0.57567139  1
  Te  Te122  1  0.75730228  0.55847802  0.94078571  1
  Te  Te123  1  0.74812365  0.91424842  0.21937485  1
  Te  Te124  1  0.74373159  0.91226595  0.60001769  1
  Te  Te125  1  0.75956504  0.91266054  0.92214093  1
  Te  Te126  1  0.24777795  0.24418393  0.07934439  1
  Te  Te127  1  0.27410939  0.30941382  0.45383839  1
  Te  Te128  1  0.23177964  0.25219053  0.72373623  1
  Te  Te129  1  0.26117163  0.57867286  0.09470060  1
  Te  Te130  1  0.26219913  0.57022805  0.43052853  1
  Te  Te131  1  0.24883083  0.54412138  0.75713472  1
  Te  Te132  1  0.25022517  0.89669350  0.08344529  1
  Te  Te133  1  0.26153333  0.91545778  0.42915922  1
  Te  Te134  1  0.25338842  0.92857893  0.76206645  1
  Te  Te135  1  0.61904427  0.22588436  0.12366275  1
  Te  Te136  1  0.56626202  0.24167150  0.37193459  1
  Te  Te137  1  0.59072263  0.24300058  0.76078556  1
  Te  Te138  1  0.57099022  0.59683073  0.11099298  1
  Te  Te139  1  0.56355139  0.58130650  0.42479934  1
  Te  Te140  1  0.56698780  0.57468338  0.72874097  1
  Te  Te141  1  0.58528845  0.91530733  0.08390132  1
  Te  Te142  1  0.58094197  0.91743797  0.40834724  1
  Te  Te143  1  0.58670949  0.93845419  0.73004496  1
  Te  Te144  1  0.92355517  0.23685041  0.10492060  1
  Te  Te145  1  0.90754739  0.24262199  0.41502608  1
  Te  Te146  1  0.90754126  0.23720130  0.73373691  1
  Te  Te147  1  0.92673138  0.59291291  0.09042428  1
  Te  Te148  1  0.92235729  0.57995096  0.42048651  1
  Te  Te149  1  0.91551938  0.58870508  0.76305545  1
  Te  Te150  1  0.93028473  0.96689463  0.09230140  1
  Te  Te151  1  0.92344304  0.90874736  0.42631628  1
  Te  Te152  1  0.95323318  0.91365346  0.75045953  1
  Te  Te153  1  0.24695165  0.10288863  0.25688984  1
  Te  Te154  1  0.25020852  0.10933683  0.57035866  1
  Te  Te155  1  0.24342058  0.09084676  0.91694158  1
  Te  Te156  1  0.28119346  0.40732369  0.24927708  1
  Te  Te157  1  0.26085476  0.42172830  0.55282149  1
  Te  Te158  1  0.23332956  0.40928928  0.90050004  1
  Te  Te159  1  0.24743279  0.74960396  0.24275117  1
  Te  Te160  1  0.25333669  0.75512965  0.57458730  1
  Te  Te161  1  0.21165720  0.77294572  0.90114260  1
  Te  Te162  1  0.56557983  0.10211489  0.28472688  1
  Te  Te163  1  0.59707072  0.08633552  0.58184177  1
  Te  Te164  1  0.56164482  0.06383650  0.91363401  1
  Te  Te165  1  0.60189267  0.40668006  0.27798931  1
  Te  Te166  1  0.56514523  0.39060962  0.55723844  1
  Te  Te167  1  0.56656109  0.41003767  0.91320119  1
  Te  Te168  1  0.59363146  0.77183089  0.23744129  1
  Te  Te169  1  0.56585796  0.74673290  0.56400926  1
  Te  Te170  1  0.58740684  0.73581015  0.90879910  1
  Te  Te171  1  0.89807482  0.06320593  0.23513237  1
  Te  Te172  1  0.93965605  0.06420599  0.60125267  1
  Te  Te173  1  0.92194575  0.07536620  0.91650052  1
  Te  Te174  1  0.90368496  0.40497914  0.23767278  1
  Te  Te175  1  0.91587537  0.40188456  0.56779555  1
  Te  Te176  1  0.92240981  0.42780153  0.93538636  1
  Te  Te177  1  0.93481464  0.77783142  0.23127274  1
  Te  Te178  1  0.91009780  0.73304922  0.57608636  1
  Te  Te179  1  0.93727349  0.78133602  0.89612880  1
