# generated using pymatgen
data_In2Te3
_symmetry_space_group_name_H-M   'P 1'
_cell_length_a   19.00291518
_cell_length_b   19.01274082
_cell_length_c   18.93761834
_cell_angle_alpha   89.92968066
_cell_angle_beta   89.90206434
_cell_angle_gamma   90.14689649
_symmetry_Int_Tables_number   1
_chemical_formula_structural   In2Te3
_chemical_formula_sum   'In72 Te108'
_cell_volume   6842.07651018
_cell_formula_units_Z   36
loop_
 _symmetry_equiv_pos_site_id
 _symmetry_equiv_pos_as_xyz
  1  'x, y, z'
loop_
 _atom_site_type_symbol
 _atom_site_label
 _atom_site_symmetry_multiplicity
 _atom_site_fract_x
 _atom_site_fract_y
 _atom_site_fract_z
 _atom_site_occupancy
  In  In0  1  0.82627805  0.85065755  0.65752362  1
  In  In1  1  0.63896347  0.69809600  0.63773370  1
  In  In2  1  0.48455192  0.49394485  0.62862296  1
  In  In3  1  0.83206292  0.50747687  0.01093064  1
  In  In4  1  0.37829343  0.16319464  0.15035400  1
  In  In5  1  0.65777866  0.15099982  0.17653835  1
  In  In6  1  0.64604128  0.81805120  0.17870740  1
  In  In7  1  0.80382737  0.01204381  0.51381875  1
  In  In8  1  0.02994278  0.65636576  0.33173422  1
  In  In9  1  0.19271708  -0.00985911  0.85064211  1
  In  In10  1  0.83193613  0.66927591  0.50973348  1
  In  In11  1  0.33430014  -0.02410973  0.32769037  1
  In  In12  1  0.34462041  0.16864550  0.52804171  1
  In  In13  1  0.00412688  0.34915520  0.32267292  1
  In  In14  1  -0.00533399  0.81992567  0.51168836  1
  In  In15  1  0.78876371  0.85347073  -0.01629882  1
  In  In16  1  0.35583937  0.83654510  0.82974463  1
  In  In17  1  0.51058442  0.16159793  0.33020167  1
  In  In18  1  0.82550615  0.17048374  0.34436428  1
  In  In19  1  0.17226926  0.82988769  0.00542114  1
  In  In20  1  0.34705401  -0.00760505  0.66071967  1
  In  In21  1  0.32871868  0.33945077  -0.02072565  1
  In  In22  1  -0.00091965  0.01878553  -0.00700896  1
  In  In23  1  0.31888181  0.79058867  0.18673459  1
  In  In24  1  0.19755550  -0.01941086  0.15399774  1
  In  In25  1  0.64766042  -0.02735310  0.66526892  1
  In  In26  1  0.32981323  0.35221883  0.64402828  1
  In  In27  1  0.15209190  0.35490164  0.16860619  1
  In  In28  1  0.01711761  0.01398890  0.33120653  1
  In  In29  1  0.83566965  0.82563993  0.34477932  1
  In  In30  1  0.52767715  0.65743475  0.18270191  1
  In  In31  1  0.88764086  0.35363569  0.14148138  1
  In  In32  1  0.67182774  0.30484481  -0.00830744  1
  In  In33  1  0.49943601  0.83697670  -0.01341951  1
  In  In34  1  0.83130812  0.17934204  0.01514085  1
  In  In35  1  0.82200015  0.00541722  0.17783006  1
  In  In36  1  0.83766381  0.34348721  0.89263937  1
  In  In37  1  0.50694661  0.50465286  0.01046322  1
  In  In38  1  0.67786656  0.16101111  0.51266427  1
  In  In39  1  0.19885351  0.18563122  0.34265646  1
  In  In40  1  0.84055400  0.49624529  0.67220670  1
  In  In41  1  0.53167718  0.13319312  -0.01170907  1
  In  In42  1  0.63569143  0.50774966  0.83200495  1
  In  In43  1  0.31117504  0.65832551  0.02166584  1
  In  In44  1  0.45745839  0.67267323  0.81810994  1
  In  In45  1  0.01374432  0.00716994  0.65829730  1
  In  In46  1  0.47977258  0.30282733  0.78994767  1
  In  In47  1  0.81814372  0.67998619  0.81404495  1
  In  In48  1  0.65119180  0.35353622  0.67279055  1
  In  In49  1  0.17182885  0.15964898  0.00096300  1
  In  In50  1  0.81692360  -0.01536371  0.82174295  1
  In  In51  1  -0.02555968  0.67359504  0.01028205  1
  In  In52  1  0.29011900  0.51975354  0.81576892  1
  In  In53  1  0.16812474  0.65543055  0.50089351  1
  In  In54  1  0.04539356  0.75465848  0.82912222  1
  In  In55  1  -0.00323012  0.17957115  0.80724120  1
  In  In56  1  0.01217950  0.50796438  0.48866601  1
  In  In57  1  0.31516994  0.49835881  0.15836912  1
  In  In58  1  0.82116767  0.35045055  0.47568553  1
  In  In59  1  0.50624617  -0.02395564  0.48112834  1
  In  In60  1  0.18875046  -0.00707827  0.48808543  1
  In  In61  1  0.00352046  0.86324031  0.18287092  1
  In  In62  1  0.65767269  0.33026565  0.32595399  1
  In  In63  1  0.31207003  0.51175169  0.50364648  1
  In  In64  1  0.66614348  0.69192021  0.01131963  1
  In  In65  1  0.04235679  0.51535367  0.83723949  1
  In  In66  1  0.16964114  0.34776834  0.82402937  1
  In  In67  1  0.31916955  0.15719216  0.82609824  1
  In  In68  1  0.48636441  0.53856040  0.37075909  1
  In  In69  1  0.87067028  0.17142667  0.66919327  1
  In  In70  1  0.16862610  0.50269668  0.33590518  1
  In  In71  1  0.68599799  0.51036549  0.26368692  1
  Te  Te72  1  0.09076312  0.07463626  0.09886945  1
  Te  Te73  1  0.10070801  0.09921344  0.42366850  1
  Te  Te74  1  0.10124824  0.07300733  0.76415279  1
  Te  Te75  1  0.02978014  0.38899128  0.09339223  1
  Te  Te76  1  0.10011643  0.40191756  0.42798780  1
  Te  Te77  1  0.10502618  0.43997748  0.72671378  1
  Te  Te78  1  0.07266879  0.76100418  0.09432337  1
  Te  Te79  1  0.09522027  0.76331998  0.41572456  1
  Te  Te80  1  0.12418153  0.70767630  0.71319807  1
  Te  Te81  1  0.45528432  0.05635617  0.08843664  1
  Te  Te82  1  0.40378171  0.07997431  0.41632146  1
  Te  Te83  1  0.41857872  0.08958673  0.74396511  1
  Te  Te84  1  0.41473606  0.40940244  0.08348561  1
  Te  Te85  1  0.41061165  0.42918751  0.43573411  1
  Te  Te86  1  0.40858454  0.43190640  0.76090137  1
  Te  Te87  1  0.43384063  0.72712342  0.07839126  1
  Te  Te88  1  0.45118905  0.66637124  0.45367284  1
  Te  Te89  1  0.43936135  0.78038812  0.71576759  1
  Te  Te90  1  0.73980168  0.07348885  0.07026363  1
  Te  Te91  1  0.72605588  0.07013867  0.39945693  1
  Te  Te92  1  0.76046288  0.06879221  0.71121500  1
  Te  Te93  1  0.75141191  0.39837366  0.07966190  1
  Te  Te94  1  0.74042922  0.44538753  0.39373579  1
  Te  Te95  1  0.74805003  0.42264420  0.77567090  1
  Te  Te96  1  0.76726328  0.75983109  0.09943275  1
  Te  Te97  1  0.74113720  0.72329299  0.40247890  1
  Te  Te98  1  0.72409298  0.77180153  0.74108896  1
  Te  Te99  1  0.09053914  0.24459163  0.25345577  1
  Te  Te100  1  0.01032712  0.22924791  0.66376819  1
  Te  Te101  1  0.09271440  0.24711965  0.90817316  1
  Te  Te102  1  0.08475033  0.56371878  0.23100014  1
  Te  Te103  1  0.06295973  0.60093126  0.59156418  1
  Te  Te104  1  0.08836580  0.63536236  0.91538475  1
  Te  Te105  1  0.11666444  0.91831839  0.26686710  1
  Te  Te106  1  0.09661401  0.90772409  0.58160022  1
  Te  Te107  1  0.07681135  0.91220026  0.91788973  1
  Te  Te108  1  0.42391943  0.25183602  0.25533326  1
  Te  Te109  1  0.43409934  0.25694806  0.60690114  1
  Te  Te110  1  0.42439282  0.23783529  0.91787087  1
  Te  Te111  1  0.41126816  0.58319204  0.24044629  1
  Te  Te112  1  0.38806854  0.60266556  0.59791157  1
  Te  Te113  1  0.40315168  0.57195590  0.92288259  1
  Te  Te114  1  0.41453006  0.88340480  0.24754440  1
  Te  Te115  1  0.39293094  0.90544896  0.54827855  1
  Te  Te116  1  0.46006668  0.94046036  0.87502049  1
  Te  Te117  1  0.75517358  0.25304854  0.23923801  1
  Te  Te118  1  0.76880379  0.25815111  0.58695409  1
  Te  Te119  1  0.74719356  0.22043792  0.89296763  1
  Te  Te120  1  0.71593809  0.65179574  0.26620297  1
  Te  Te121  1  0.74393892  0.58850821  0.60371727  1
  Te  Te122  1  0.74050092  0.59072810  0.91154244  1
  Te  Te123  1  0.74247295  0.90953060  0.26083100  1
  Te  Te124  1  0.72550017  0.89248751  0.55371287  1
  Te  Te125  1  0.69882806  0.92214150  0.88838069  1
  Te  Te126  1  0.24875568  0.26058050  0.08392738  1
  Te  Te127  1  0.26350226  0.26220609  0.44811428  1
  Te  Te128  1  0.24922023  0.25575516  0.73594145  1
  Te  Te129  1  0.21039027  0.58456728  0.10069787  1
  Te  Te130  1  0.25843972  0.61866635  0.37941107  1
  Te  Te131  1  0.26369823  0.62924505  0.71757723  1
  Te  Te132  1  0.28959729  0.89587893  0.07226883  1
  Te  Te133  1  0.27420577  0.88627093  0.43018582  1
  Te  Te134  1  0.24959944  0.90259251  0.74386147  1
  Te  Te135  1  0.57595800  0.24430538  0.09015582  1
  Te  Te136  1  0.58516274  0.24880599  0.43127425  1
  Te  Te137  1  0.60020399  0.23716108  0.74368747  1
  Te  Te138  1  0.61626471  0.57148929  0.09022120  1
  Te  Te139  1  0.58784452  0.60753570  0.45753170  1
  Te  Te140  1  0.56547177  0.59239917  0.72963335  1
  Te  Te141  1  0.58870712  0.90862384  0.07787465  1
  Te  Te142  1  0.57193452  0.86863697  0.40446658  1
  Te  Te143  1  0.53957709  0.89880799  0.73278154  1
  Te  Te144  1  0.95228646  0.23958085  0.07084921  1
  Te  Te145  1  0.92405269  0.25576431  0.41860241  1
  Te  Te146  1  0.92219362  0.30913274  0.77377222  1
  Te  Te147  1  0.89842331  0.59445303  0.10711320  1
  Te  Te148  1  0.91458389  0.59055628  0.40933826  1
  Te  Te149  1  0.92151717  0.58146967  0.76637821  1
  Te  Te150  1  0.90914211  0.92591148  0.07536574  1
  Te  Te151  1  0.92696456  0.92401707  0.41709308  1
  Te  Te152  1  0.93028769  0.91540143  0.74666727  1
  Te  Te153  1  0.26673860  0.08806877  0.23698950  1
  Te  Te154  1  0.24053755  0.08316923  0.59797439  1
  Te  Te155  1  0.27922712  0.06882094  0.94571904  1
  Te  Te156  1  0.25938444  0.40382907  0.26352892  1
  Te  Te157  1  0.22299148  0.44407216  0.60162835  1
  Te  Te158  1  0.22610690  0.43994474  0.93217888  1
  Te  Te159  1  0.22225918  0.71920310  0.26755606  1
  Te  Te160  1  0.24120623  0.73564210  0.60406229  1
  Te  Te161  1  0.25956017  0.74900728  0.91140990  1
  Te  Te162  1  0.57740515  0.05684977  0.25382101  1
  Te  Te163  1  0.57319972  0.07275718  0.57868886  1
  Te  Te164  1  0.58320733  0.04194475  0.88581343  1
  Te  Te165  1  0.56489829  0.42671322  0.26038799  1
  Te  Te166  1  0.59729376  0.42898638  0.56168519  1
  Te  Te167  1  0.57410139  0.40092650  0.91955562  1
  Te  Te168  1  0.55447329  0.76296198  0.28676438  1
  Te  Te169  1  0.56066489  0.76039415  0.52658548  1
  Te  Te170  1  0.57260089  0.73416844  0.90210451  1
  Te  Te171  1  0.91954698  0.09643563  0.24894587  1
  Te  Te172  1  0.92732065  0.08203594  0.55590121  1
  Te  Te173  1  0.90328741  0.08684988  0.89782105  1
  Te  Te174  1  0.90912686  0.43905101  0.25865209  1
  Te  Te175  1  0.91939754  0.41787686  0.57185998  1
  Te  Te176  1  0.94660154  0.44335121  0.93364269  1
  Te  Te177  1  0.93283926  0.75211327  0.25666227  1
  Te  Te178  1  0.91796878  0.73844050  0.61399552  1
  Te  Te179  1  0.89513839  0.76821976  0.91079091  1
