# generated using pymatgen
data_In2Te3
_symmetry_space_group_name_H-M   'P 1'
_cell_length_a   18.95071349
_cell_length_b   18.93018641
_cell_length_c   18.92589895
_cell_angle_alpha   90.11749877
_cell_angle_beta   90.06400320
_cell_angle_gamma   89.92144020
_symmetry_Int_Tables_number   1
_chemical_formula_structural   In2Te3
_chemical_formula_sum   'In72 Te108'
_cell_volume   6789.46231484
_cell_formula_units_Z   36
loop_
 _symmetry_equiv_pos_site_id
 _symmetry_equiv_pos_as_xyz
  1  'x, y, z'
loop_
 _atom_site_type_symbol
 _atom_site_label
 _atom_site_symmetry_multiplicity
 _atom_site_fract_x
 _atom_site_fract_y
 _atom_site_fract_z
 _atom_site_occupancy
  In  In0  1  0.01288673  0.16348915  0.18230401  1
  In  In1  1  0.48530789  0.33353743  0.17730237  1
  In  In2  1  0.14299398  0.66832434  0.46733770  1
  In  In3  1  0.69642878  0.34138358  0.02295476  1
  In  In4  1  0.64869727  0.14013599  0.82543109  1
  In  In5  1  0.00082084  0.83690893  0.80238802  1
  In  In6  1  0.52247792  0.33257841  0.84046003  1
  In  In7  1  0.32602385  -0.00608740  -0.00845581  1
  In  In8  1  0.51247080  0.55344408  0.01734477  1
  In  In9  1  0.80696189  -0.00277878  0.16785163  1
  In  In10  1  0.84490581  0.82302225  0.64069222  1
  In  In11  1  0.32479276  0.83467549  0.49837265  1
  In  In12  1  0.33056008  0.30125201  0.65314774  1
  In  In13  1  -0.02642314  -0.01022518  0.52791004  1
  In  In14  1  0.00264782  0.01904147  0.00678259  1
  In  In15  1  0.66453822  0.69456893  0.02301672  1
  In  In16  1  0.48166876  0.12105453  0.65254003  1
  In  In17  1  0.15567505  0.81657670  -0.00848455  1
  In  In18  1  0.32314390  0.66817732  0.01775497  1
  In  In19  1  0.16432953  0.14838105  0.34133826  1
  In  In20  1  0.32171293  0.50322929  0.17756309  1
  In  In21  1  0.00648613  0.36042855  0.01125740  1
  In  In22  1  0.32105659  0.66105337  0.32939774  1
  In  In23  1  0.32737430  -0.02685221  0.65954815  1
  In  In24  1  0.67966121  0.82823472  0.17658097  1
  In  In25  1  0.15410594  0.50232103  0.05158150  1
  In  In26  1  0.66828944  0.53298457  0.84755883  1
  In  In27  1  0.15066147  0.00145783  0.15028458  1
  In  In28  1  0.15491872  0.49616195  0.30822219  1
  In  In29  1  0.34387732  0.32076282  0.00852832  1
  In  In30  1  0.49430099  0.32818641  0.50891948  1
  In  In31  1  0.50579276  0.51196544  0.66629782  1
  In  In32  1  -0.01791572  0.65088679  0.02025505  1
  In  In33  1  0.64339522  0.00427003  0.00323479  1
  In  In34  1  0.19450390  0.00261243  0.82342647  1
  In  In35  1  0.64593352  -0.01527700  0.67230178  1
  In  In36  1  0.49579822  0.66862003  0.50924289  1
  In  In37  1  -0.00993791  0.50743932  0.84229191  1
  In  In38  1  0.71311473  0.50401419  0.50335939  1
  In  In39  1  0.49879981  0.49249068  0.34669955  1
  In  In40  1  0.68127504  0.65355197  0.66465459  1
  In  In41  1  0.16186735  0.50393736  0.65569039  1
  In  In42  1  0.86992980  0.31981635  0.84107100  1
  In  In43  1  -0.01097091  0.81087930  0.21318864  1
  In  In44  1  0.79928092  0.00683880  0.81356541  1
  In  In45  1  0.33197162  0.16091036  0.16292222  1
  In  In46  1  0.34087675  0.85022290  0.21611829  1
  In  In47  1  0.49111148  0.82153498  0.00173933  1
  In  In48  1  0.86919729  0.32397803  0.46056921  1
  In  In49  1  0.86298368  0.51214914  0.66877713  1
  In  In50  1  -0.01217095  -0.01413677  0.34087769  1
  In  In51  1  0.85495051  0.35555842  0.19414166  1
  In  In52  1  0.35276334  0.68319777  0.67104263  1
  In  In53  1  0.67237435  0.16201933  0.51132511  1
  In  In54  1  0.68341581  0.33050656  0.68284366  1
  In  In55  1  0.67107884  0.33526600  0.35103901  1
  In  In56  1  0.15827319  0.30069633  0.50092695  1
  In  In57  1  0.83033274  0.19081188  -0.02134955  1
  In  In58  1  0.65770768  0.85008141  0.48875793  1
  In  In59  1  0.16247199  0.13860841  0.64188729  1
  In  In60  1  0.15731948  0.67186400  0.81552102  1
  In  In61  1  0.35668655  0.49199318  0.85099828  1
  In  In62  1  0.47513721  0.15457013  -0.00792281  1
  In  In63  1  0.68568145  0.67636917  0.33105116  1
  In  In64  1  0.48484003  0.11468837  0.34055380  1
  In  In65  1  0.66077156  0.00733571  0.33852843  1
  In  In66  1  -0.01139041  0.51426532  0.46832695  1
  In  In67  1  0.82661836  0.66782962  0.83413306  1
  In  In68  1  0.18044519  0.34634965  0.82074218  1
  In  In69  1  0.84025224  0.86039175  -0.00157071  1
  In  In70  1  0.66561962  0.21379689  0.17948459  1
  In  In71  1  0.02083497  0.16863946  0.81355973  1
  Te  Te72  1  0.09939603  0.11916951  0.06582782  1
  Te  Te73  1  0.07761403  0.06704322  0.43492123  1
  Te  Te74  1  0.07771600  0.05281634  0.73581482  1
  Te  Te75  1  0.10262115  0.38338909  0.12092997  1
  Te  Te76  1  0.08921985  0.41433612  0.41946584  1
  Te  Te77  1  0.07061044  0.42092926  0.74604291  1
  Te  Te78  1  0.06929396  0.74856913  0.09696664  1
  Te  Te79  1  0.05873614  0.78650694  0.43108409  1
  Te  Te80  1  0.10655495  0.77362537  0.71958184  1
  Te  Te81  1  0.42018297  0.05870616  0.09414221  1
  Te  Te82  1  0.38762532  0.02913913  0.41212049  1
  Te  Te83  1  0.39150370  0.06869357  0.75331685  1
  Te  Te84  1  0.42175095  0.43499236  0.07329171  1
  Te  Te85  1  0.40883456  0.40183772  0.41651759  1
  Te  Te86  1  0.42010162  0.40416644  0.74101772  1
  Te  Te87  1  0.40613321  0.75521896  0.10926733  1
  Te  Te88  1  0.41697275  0.74945630  0.40971277  1
  Te  Te89  1  0.43701519  0.79163925  0.72471796  1
  Te  Te90  1  0.74439914  0.09839824  0.07039756  1
  Te  Te91  1  0.75928366  0.09134425  0.41235962  1
  Te  Te92  1  0.74245916  0.10433096  0.71348459  1
  Te  Te93  1  0.75424665  0.43361020  0.11906771  1
  Te  Te94  1  0.78300013  0.43147572  0.39156678  1
  Te  Te95  1  0.75516378  0.44559509  0.75401586  1
  Te  Te96  1  0.78606837  0.75637952  0.09295263  1
  Te  Te97  1  0.74463311  0.73536808  0.45308885  1
  Te  Te98  1  0.75091054  0.76436339  0.74630564  1
  Te  Te99  1  0.06100378  0.24808314  0.29300669  1
  Te  Te100  1  0.06947349  0.24581286  0.60498584  1
  Te  Te101  1  0.07987539  0.27070613  0.90831499  1
  Te  Te102  1  0.04316157  0.58518540  0.25776009  1
  Te  Te103  1  0.06792911  0.59140113  0.57690061  1
  Te  Te104  1  0.09580169  0.58481100  0.92811678  1
  Te  Te105  1  0.09491287  0.91103813  0.25969205  1
  Te  Te106  1  0.07343633  0.88249906  0.55752385  1
  Te  Te107  1  0.07636476  0.92241239  0.91454394  1
  Te  Te108  1  0.41717573  0.23491359  0.26566215  1
  Te  Te109  1  0.40551286  0.21264547  0.55551192  1
  Te  Te110  1  0.40716621  0.24726177  0.89177280  1
  Te  Te111  1  0.42681392  0.58468594  0.25010384  1
  Te  Te112  1  0.40231220  0.56887761  0.57405909  1
  Te  Te113  1  0.42170511  0.61426331  0.91176183  1
  Te  Te114  1  0.43094670  0.94519843  0.28718768  1
  Te  Te115  1  0.43266654  0.88813977  0.59262703  1
  Te  Te116  1  0.40020362  0.89585764  0.91263472  1
  Te  Te117  1  0.77563176  0.24986369  0.27365164  1
  Te  Te118  1  0.75479590  0.28087401  0.55938489  1
  Te  Te119  1  0.72954049  0.26217620  0.88733872  1
  Te  Te120  1  0.79632140  0.60017339  0.26942289  1
  Te  Te121  1  0.79728834  0.61072805  0.57177101  1
  Te  Te122  1  0.76271293  0.59400388  0.94768704  1
  Te  Te123  1  0.76078162  0.90671610  0.27835067  1
  Te  Te124  1  0.75292047  0.92774379  0.57922800  1
  Te  Te125  1  0.72825238  0.91580343  0.91173824  1
  Te  Te126  1  0.24626440  0.26507396  0.10122992  1
  Te  Te127  1  0.25823573  0.22313688  0.42684042  1
  Te  Te128  1  0.23862147  0.22797779  0.74580391  1
  Te  Te129  1  0.22853702  0.61206455  0.12299541  1
  Te  Te130  1  0.24252737  0.56538230  0.41515858  1
  Te  Te131  1  0.26270650  0.57309583  0.75121673  1
  Te  Te132  1  0.24312708  0.89688631  0.08755010  1
  Te  Te133  1  0.25371334  0.94940146  0.43428223  1
  Te  Te134  1  0.23180426  0.88861284  0.73720616  1
  Te  Te135  1  0.56789556  0.25412055  0.06269923  1
  Te  Te136  1  0.57474249  0.23375056  0.41001709  1
  Te  Te137  1  0.56705943  0.23936405  0.72257652  1
  Te  Te138  1  0.59966450  0.60520530  0.12151385  1
  Te  Te139  1  0.59631788  0.57424870  0.43433252  1
  Te  Te140  1  0.56941948  0.60964038  0.76132592  1
  Te  Te141  1  0.57694670  0.91098255  0.09886287  1
  Te  Te142  1  0.56305175  0.90668122  0.38832352  1
  Te  Te143  1  0.54816105  0.90113574  0.73734333  1
  Te  Te144  1  0.91634136  0.25191431  0.08722199  1
  Te  Te145  1  0.96538279  0.21508488  0.42759097  1
  Te  Te146  1  0.91390650  0.23186919  0.73380005  1
  Te  Te147  1  0.95576770  0.55206687  0.12734789  1
  Te  Te148  1  0.92571410  0.61312336  0.37449730  1
  Te  Te149  1  0.94108526  0.61651524  0.74794392  1
  Te  Te150  1  0.93443801  0.92410169  0.10394494  1
  Te  Te151  1  0.90267684  0.90167620  0.42902076  1
  Te  Te152  1  0.90448533  0.93113788  0.73273581  1
  Te  Te153  1  0.24995678  0.06430240  0.24548729  1
  Te  Te154  1  0.24697778  0.04910569  0.55613356  1
  Te  Te155  1  0.24238450  0.09531541  0.92581688  1
  Te  Te156  1  0.26077689  0.40263203  0.26294530  1
  Te  Te157  1  0.24829704  0.40446367  0.58057516  1
  Te  Te158  1  0.24460096  0.43021144  0.93338567  1
  Te  Te159  1  0.23589869  0.76936989  0.27787663  1
  Te  Te160  1  0.24893455  0.72450280  0.57025114  1
  Te  Te161  1  0.25706789  0.74708690  0.90288682  1
  Te  Te162  1  0.59191737  0.09467172  0.23035832  1
  Te  Te163  1  0.57483530  0.05480556  0.55434890  1
  Te  Te164  1  0.54673201  0.05705239  0.89747241  1
  Te  Te165  1  0.59027702  0.41626406  0.24993739  1
  Te  Te166  1  0.59997530  0.42426355  0.58455049  1
  Te  Te167  1  0.58547766  0.43657699  0.93159388  1
  Te  Te168  1  0.58361545  0.74673001  0.25244838  1
  Te  Te169  1  0.59335628  0.75079643  0.58853424  1
  Te  Te170  1  0.59002007  0.75537658  0.91396148  1
  Te  Te171  1  0.90737564  0.07907143  0.25016874  1
  Te  Te172  1  0.88793602  0.11440189  0.51092927  1
  Te  Te173  1  0.90374714  0.07769106  0.90699927  1
  Te  Te174  1  0.96058445  0.44826664  0.24562159  1
  Te  Te175  1  0.92606197  0.41659375  0.57200318  1
  Te  Te176  1  0.89502553  0.43343863  0.93622352  1
  Te  Te177  1  0.88186665  0.73110492  0.27607887  1
  Te  Te178  1  0.95730127  0.77564436  0.55082192  1
  Te  Te179  1  0.92927643  0.75939457  0.91608764  1
