# generated using pymatgen
data_In2Te3
_symmetry_space_group_name_H-M   'P 1'
_cell_length_a   19.05524434
_cell_length_b   19.00395747
_cell_length_c   19.04217684
_cell_angle_alpha   89.90917612
_cell_angle_beta   89.91172905
_cell_angle_gamma   90.10448445
_symmetry_Int_Tables_number   1
_chemical_formula_structural   In2Te3
_chemical_formula_sum   'In72 Te108'
_cell_volume   6895.62095279
_cell_formula_units_Z   36
loop_
 _symmetry_equiv_pos_site_id
 _symmetry_equiv_pos_as_xyz
  1  'x, y, z'
loop_
 _atom_site_type_symbol
 _atom_site_label
 _atom_site_symmetry_multiplicity
 _atom_site_fract_x
 _atom_site_fract_y
 _atom_site_fract_z
 _atom_site_occupancy
  In  In0  1  0.84550878  0.81953478  0.68677409  1
  In  In1  1  0.68733762  0.02574258  0.70257095  1
  In  In2  1  0.16613098  0.48245371  0.01747859  1
  In  In3  1  0.33488004  0.17174702  0.54018257  1
  In  In4  1  0.84182949  0.67144114  0.84963359  1
  In  In5  1  0.84843362  0.34635791  0.17998427  1
  In  In6  1  0.49153287  0.14158012  0.31993107  1
  In  In7  1  0.83502314  0.67879879  0.49254050  1
  In  In8  1  0.50437884  0.48243154  -0.01756025  1
  In  In9  1  0.15244222  0.67074468  0.50062063  1
  In  In10  1  0.14677378  0.34119390  0.85667485  1
  In  In11  1  0.50407276  0.47401922  0.64920831  1
  In  In12  1  0.00267758  0.00362958  -0.00721614  1
  In  In13  1  0.50357420  0.18446774  -0.01023223  1
  In  In14  1  0.33413784  0.01366670  -0.02594381  1
  In  In15  1  -0.00556516  0.01656514  0.67029489  1
  In  In16  1  0.16478881  0.16541978  -0.02366236  1
  In  In17  1  0.83191269  0.48411911  0.67692843  1
  In  In18  1  0.33264090  0.65058842  0.68195956  1
  In  In19  1  0.17493248  0.31776501  0.15422520  1
  In  In20  1  0.82028542  0.00720392  0.14947916  1
  In  In21  1  0.18575850  0.69036847  0.82722026  1
  In  In22  1  0.15848720  0.64277901  0.16522415  1
  In  In23  1  0.81838168  0.15311166  0.35418000  1
  In  In24  1  0.31679368  0.14219225  0.15699503  1
  In  In25  1  0.18933027  0.84382057  0.34935575  1
  In  In26  1  -0.01257332  0.31385033  0.69146892  1
  In  In27  1  0.85711984  0.84491272  0.32633658  1
  In  In28  1  0.80450779  0.62858169  0.15545988  1
  In  In29  1  0.01211756  0.86285851  0.51242150  1
  In  In30  1  0.52849653  0.31359591  0.82309612  1
  In  In31  1  0.65744720  0.82138312  0.14629632  1
  In  In32  1  0.66364873  0.66949962  0.30727796  1
  In  In33  1  0.32961542  0.69303335  0.35830298  1
  In  In34  1  0.32630383  0.50989037  0.47803732  1
  In  In35  1  0.35210935  0.49267721  0.14572274  1
  In  In36  1  0.65322957  0.65074178  -0.00417613  1
  In  In37  1  0.68469194  0.66578868  0.67950644  1
  In  In38  1  0.34630752  0.85181765  0.15277041  1
  In  In39  1  0.69563506  0.91411276  0.47757378  1
  In  In40  1  0.50832705  0.04036347  0.81518241  1
  In  In41  1  0.00567740  0.80091832  0.16798105  1
  In  In42  1  0.15531550  0.16493622  0.68680952  1
  In  In43  1  0.80940625  0.16113600  0.01747033  1
  In  In44  1  -0.01359527  0.49693779  0.82972021  1
  In  In45  1  -0.00896069  0.66482148  0.01142735  1
  In  In46  1  0.34263644  0.33088367  0.66552325  1
  In  In47  1  0.50803951  0.66452711  0.83818094  1
  In  In48  1  0.17668550  0.35339022  0.51120950  1
  In  In49  1  0.80733185  0.29374174  0.51475197  1
  In  In50  1  0.31755450  0.86277886  0.78657651  1
  In  In51  1  0.81677462  0.87405378  -0.02395248  1
  In  In52  1  0.50916185  -0.02016199  0.17809486  1
  In  In53  1  0.33243516  0.86267477  0.53639499  1
  In  In54  1  0.81323585  0.46870085  -0.02230974  1
  In  In55  1  0.33158576  0.32943878  0.32365579  1
  In  In56  1  0.51713225  0.01801644  0.50821957  1
  In  In57  1  0.01123688  0.01217548  0.35210942  1
  In  In58  1  0.16383428  0.00569274  0.16940416  1
  In  In59  1  -0.00470371  0.19892170  0.18931665  1
  In  In60  1  0.80002586  0.29755049  0.81627338  1
  In  In61  1  0.67666310  0.31763004  0.34479355  1
  In  In62  1  0.52223683  0.84792172  0.64809056  1
  In  In63  1  0.50276678  0.49608061  0.33214882  1
  In  In64  1  0.47966809  0.67612882  0.15343031  1
  In  In65  1  -0.01931558  0.15468580  0.50878779  1
  In  In66  1  0.01676360  0.49388636  0.50900778  1
  In  In67  1  0.50650374  0.68812274  0.48138031  1
  In  In68  1  0.66750347  0.46658303  0.18074424  1
  In  In69  1  0.51868226  0.29890748  0.51071789  1
  In  In70  1  0.04392551  0.84967977  0.82469720  1
  In  In71  1  0.01544458  0.64139507  0.32499409  1
  Te  Te72  1  0.07483873  0.10140318  0.09067053  1
  Te  Te73  1  0.09316586  0.08325481  0.44813431  1
  Te  Te74  1  0.05185085  0.10620977  0.77428539  1
  Te  Te75  1  0.07395228  0.38292367  0.07136035  1
  Te  Te76  1  0.09616640  0.42161722  0.41147157  1
  Te  Te77  1  0.08069936  0.42108545  0.74051322  1
  Te  Te78  1  0.10457160  0.74943930  0.06722076  1
  Te  Te79  1  0.06420164  0.76235068  0.40362696  1
  Te  Te80  1  0.08122230  0.73858896  0.73931422  1
  Te  Te81  1  0.43036333  0.07715700  0.07351280  1
  Te  Te82  1  0.40584782  0.08911104  0.43388359  1
  Te  Te83  1  0.41322665  0.14058992  0.76457105  1
  Te  Te84  1  0.43397610  0.38836236  0.07767068  1
  Te  Te85  1  0.42267736  0.40139960  0.42995945  1
  Te  Te86  1  0.42536371  0.41430039  0.76071574  1
  Te  Te87  1  0.41823989  0.76706750  0.05897131  1
  Te  Te88  1  0.41657158  0.79487562  0.42515790  1
  Te  Te89  1  0.43140362  0.75525811  0.73121249  1
  Te  Te90  1  0.70918960  0.09283275  0.10456639  1
  Te  Te91  1  0.73971260  0.04716042  0.41442693  1
  Te  Te92  1  0.77952052  0.04294287  0.81869143  1
  Te  Te93  1  0.73784075  0.38481018  0.07699105  1
  Te  Te94  1  0.75969100  0.40224294  0.42931713  1
  Te  Te95  1  0.72519269  0.40023787  0.73614707  1
  Te  Te96  1  0.76396552  0.74336885  0.06325359  1
  Te  Te97  1  0.74747022  0.75936429  0.39846926  1
  Te  Te98  1  0.74146885  0.76260546  0.78140659  1
  Te  Te99  1  0.10843850  0.24765695  0.26535503  1
  Te  Te100  1  0.08201009  0.25451666  0.58110207  1
  Te  Te101  1  0.05935980  0.22604104  0.89143672  1
  Te  Te102  1  0.05338541  0.54783482  0.21461372  1
  Te  Te103  1  0.09067120  0.58219336  0.59789635  1
  Te  Te104  1  0.07394036  0.57174626  0.92661810  1
  Te  Te105  1  0.07472608  0.90649577  0.25226800  1
  Te  Te106  1  0.09964095  0.92261205  0.61553238  1
  Te  Te107  1  0.11253931  0.94730968  0.91164813  1
  Te  Te108  1  0.40882994  0.23588407  0.23538163  1
  Te  Te109  1  0.44954769  0.22625875  0.62672845  1
  Te  Te110  1  0.41113819  0.23674397  0.88289337  1
  Te  Te111  1  0.40684018  0.59266133  0.26702095  1
  Te  Te112  1  0.42404448  0.59079219  0.56421477  1
  Te  Te113  1  0.42144124  0.58758715  0.92753387  1
  Te  Te114  1  0.39204717  0.94084332  0.25686108  1
  Te  Te115  1  0.42461731  0.95671459  0.61252379  1
  Te  Te116  1  0.41990726  0.93419915  0.87924917  1
  Te  Te117  1  0.76058585  0.24145595  0.24600376  1
  Te  Te118  1  0.70590952  0.22351540  0.59716799  1
  Te  Te119  1  0.71902171  0.22640426  0.91839314  1
  Te  Te120  1  0.75251045  0.55036594  0.27394147  1
  Te  Te121  1  0.75981854  0.58071503  0.58032648  1
  Te  Te122  1  0.73852181  0.57182127  0.89722305  1
  Te  Te123  1  0.75195910  0.90371836  0.23782596  1
  Te  Te124  1  0.75500817  0.91838538  0.61363838  1
  Te  Te125  1  0.71457910  0.97004884  0.93372094  1
  Te  Te126  1  0.26548137  0.24315806  0.05736176  1
  Te  Te127  1  0.26146609  0.25383468  0.43481866  1
  Te  Te128  1  0.24012898  0.26811952  0.75670899  1
  Te  Te129  1  0.26554252  0.59128570  0.07265955  1
  Te  Te130  1  0.22596215  0.58793722  0.39665547  1
  Te  Te131  1  0.25883738  0.57339398  0.77970818  1
  Te  Te132  1  0.24670165  0.92939869  0.07054278  1
  Te  Te133  1  0.23708931  0.93525774  0.45031896  1
  Te  Te134  1  0.21991352  0.94341887  0.71380638  1
  Te  Te135  1  0.55795107  0.29801675  0.06409470  1
  Te  Te136  1  0.59144920  0.21247921  0.41213232  1
  Te  Te137  1  0.63482347  0.26071538  0.73048584  1
  Te  Te138  1  0.58513813  0.57302285  0.10909177  1
  Te  Te139  1  0.59355579  0.58446524  0.41358014  1
  Te  Te140  1  0.57890118  0.57626213  0.73793451  1
  Te  Te141  1  0.57417743  0.90917800  0.06650644  1
  Te  Te142  1  0.57274861  0.93023628  0.40519223  1
  Te  Te143  1  0.59128885  0.92224383  0.75810739  1
  Te  Te144  1  0.91501295  0.25592680  0.07671529  1
  Te  Te145  1  0.91711991  0.25071191  0.41138517  1
  Te  Te146  1  0.88056010  0.21600042  0.72092226  1
  Te  Te147  1  0.90039919  0.55483382  0.06638392  1
  Te  Te148  1  0.92037931  0.57605590  0.42130230  1
  Te  Te149  1  0.91386410  0.59554786  0.74102865  1
  Te  Te150  1  0.92559557  0.90676834  0.09173957  1
  Te  Te151  1  0.90662733  0.93728202  0.43497154  1
  Te  Te152  1  0.92327932  0.92007832  0.76680130  1
  Te  Te153  1  0.23848564  0.08429575  0.26594990  1
  Te  Te154  1  0.25704621  0.07560297  0.62482369  1
  Te  Te155  1  0.23126130  0.06977346  0.88482942  1
  Te  Te156  1  0.25476698  0.42566125  0.23782430  1
  Te  Te157  1  0.26281342  0.44252685  0.59738652  1
  Te  Te158  1  0.25400015  0.40981390  0.92723592  1
  Te  Te159  1  0.24203329  0.74963795  0.24244361  1
  Te  Te160  1  0.25581725  0.74077953  0.58626148  1
  Te  Te161  1  0.26792062  0.78512022  0.89933923  1
  Te  Te162  1  0.59678877  0.08584208  0.23242259  1
  Te  Te163  1  0.61260207  0.09723910  0.59350153  1
  Te  Te164  1  0.60373556  0.10580892  0.91052448  1
  Te  Te165  1  0.56807056  0.38297619  0.25869390  1
  Te  Te166  1  0.59722593  0.41356971  0.55583554  1
  Te  Te167  1  0.60312233  0.41032129  0.90464156  1
  Te  Te168  1  0.55984345  0.76139620  0.24935263  1
  Te  Te169  1  0.60923674  0.74883188  0.57467938  1
  Te  Te170  1  0.58518022  0.75628699  0.92277518  1
  Te  Te171  1  0.91810540  0.07677718  0.24959145  1
  Te  Te172  1  0.88588096  0.09454804  0.60440809  1
  Te  Te173  1  0.89717161  0.08173845  0.92444183  1
  Te  Te174  1  0.93696836  0.44561531  0.23623341  1
  Te  Te175  1  0.91250494  0.39503107  0.58452770  1
  Te  Te176  1  0.90438606  0.38720167  0.89149733  1
  Te  Te177  1  0.90094524  0.71954578  0.24238323  1
  Te  Te178  1  0.93122614  0.75335545  0.58170231  1
  Te  Te179  1  0.93365290  0.76965238  0.91865656  1
