# generated using pymatgen
data_In2Te3
_symmetry_space_group_name_H-M   'P 1'
_cell_length_a   18.93771709
_cell_length_b   18.92032723
_cell_length_c   18.92528585
_cell_angle_alpha   89.95836175
_cell_angle_beta   90.07407879
_cell_angle_gamma   89.91222584
_symmetry_Int_Tables_number   1
_chemical_formula_structural   In2Te3
_chemical_formula_sum   'In72 Te108'
_cell_volume   6781.06219434
_cell_formula_units_Z   36
loop_
 _symmetry_equiv_pos_site_id
 _symmetry_equiv_pos_as_xyz
  1  'x, y, z'
loop_
 _atom_site_type_symbol
 _atom_site_label
 _atom_site_symmetry_multiplicity
 _atom_site_fract_x
 _atom_site_fract_y
 _atom_site_fract_z
 _atom_site_occupancy
  In  In0  1  0.35042130  0.01083687  0.34673970  1
  In  In1  1  -0.01491724  0.47978102  0.49342252  1
  In  In2  1  0.51298871  0.86031044  0.30403919  1
  In  In3  1  0.51785986  0.49169939  0.30664499  1
  In  In4  1  0.83386339  0.64373379  0.49473187  1
  In  In5  1  0.66392407  0.51518775  0.49951822  1
  In  In6  1  0.64504147  0.17438171  0.50634577  1
  In  In7  1  0.83760184  0.49063750  0.30832180  1
  In  In8  1  0.50220461  0.33938130  0.16046744  1
  In  In9  1  0.34780724  0.85356313  0.83283744  1
  In  In10  1  0.01885135  0.00534852  -0.00008014  1
  In  In11  1  0.31021200  0.19080517  0.51578879  1
  In  In12  1  0.33401524  0.34643332  -0.01523035  1
  In  In13  1  0.32826654  0.69024229  0.67418499  1
  In  In14  1  0.15486430  0.02067347  0.49632078  1
  In  In15  1  0.16691198  0.49987734  0.66457956  1
  In  In16  1  0.31556773  0.67060382  0.31674540  1
  In  In17  1  0.48939221  0.00329223  0.14002901  1
  In  In18  1  0.02375480  0.01035988  0.66160653  1
  In  In19  1  0.29098845  0.47379395  0.17940477  1
  In  In20  1  0.15989288  0.17943349  0.36058240  1
  In  In21  1  0.50041440  0.84311106  -0.01536657  1
  In  In22  1  0.17889000  0.16722275  -0.02613438  1
  In  In23  1  0.84307379  0.32124033  0.87067625  1
  In  In24  1  0.83973940  0.36146210  0.50191465  1
  In  In25  1  -0.01677991  0.64883763  0.69083962  1
  In  In26  1  0.82309755  0.80292159  0.30688177  1
  In  In27  1  0.50818450  -0.00225998  0.50678454  1
  In  In28  1  -0.05041614  0.64730368  0.03012669  1
  In  In29  1  0.16617234  0.64974318  0.83407167  1
  In  In30  1  0.84853576  0.19348582  0.69520557  1
  In  In31  1  -0.00195491  0.83739152  0.47831638  1
  In  In32  1  0.17876495  -0.01236696  0.16382111  1
  In  In33  1  0.82427340  0.83392581  0.67284083  1
  In  In34  1  0.17707844  0.84646740  0.00798846  1
  In  In35  1  0.52585245  0.50044864  -0.01060164  1
  In  In36  1  0.16474023  0.18285857  0.68385177  1
  In  In37  1  0.32893965  0.53159620  0.48607803  1
  In  In38  1  0.66084613  0.80387944  0.11763130  1
  In  In39  1  0.51132798  0.30026797  0.85177838  1
  In  In40  1  0.68751448  0.64189333  0.32434571  1
  In  In41  1  0.32762576  0.17041820  0.14416534  1
  In  In42  1  0.50594905  0.84864688  0.68604639  1
  In  In43  1  0.00006884  0.33408783  0.32907293  1
  In  In44  1  -0.01784761  0.83224978  0.16764971  1
  In  In45  1  0.35888682  0.65931301  -0.00370606  1
  In  In46  1  0.81391750  0.31957364  0.12742246  1
  In  In47  1  0.32651224  0.33037539  0.68073147  1
  In  In48  1  0.85922012  0.00351247  0.85254434  1
  In  In49  1  -0.02734144  0.17078626  0.17692310  1
  In  In50  1  0.47925153  0.34237088  0.50485579  1
  In  In51  1  0.68514262  0.80898014  0.87349836  1
  In  In52  1  0.47684532  0.69158388  0.51208183  1
  In  In53  1  0.00417889  0.18485951  0.51435489  1
  In  In54  1  0.68585237  0.00686808  0.70158335  1
  In  In55  1  0.00293828  0.80494132  0.85062256  1
  In  In56  1  0.31925762  0.82281051  0.51052445  1
  In  In57  1  0.82573153  -0.00202150  0.49308429  1
  In  In58  1  0.81589067  0.02412241  0.12806367  1
  In  In59  1  0.29908452  0.05064768  0.77965797  1
  In  In60  1  0.15545543  0.82224770  0.32149684  1
  In  In61  1  0.50701381  0.65791244  0.13909041  1
  In  In62  1  0.51922075  0.48362931  0.69006240  1
  In  In63  1  0.64897649  0.65795362  0.68623640  1
  In  In64  1  0.67246735  0.17548880  0.14473818  1
  In  In65  1  0.00976257  0.47735458  0.84291793  1
  In  In66  1  0.49742541  0.19317781  0.30833715  1
  In  In67  1  0.68453191  -0.00459907  0.32009858  1
  In  In68  1  0.85278399  0.47108786  0.70135285  1
  In  In69  1  0.70180183  0.33809843  0.70433599  1
  In  In70  1  0.15807194  0.48185059  0.00111171  1
  In  In71  1  0.14899876  0.65613217  0.17689342  1
  Te  Te72  1  0.09574998  0.09539311  0.09553674  1
  Te  Te73  1  0.04927100  0.08273985  0.40958175  1
  Te  Te74  1  0.08352595  0.09111246  0.76987951  1
  Te  Te75  1  0.07959984  0.42245745  0.10832115  1
  Te  Te76  1  0.09197256  0.41083197  0.41737163  1
  Te  Te77  1  0.11668941  0.40562530  0.76867039  1
  Te  Te78  1  0.07711077  0.75243738  0.07465441  1
  Te  Te79  1  0.06685446  0.73586918  0.39827562  1
  Te  Te80  1  0.09046054  0.74431509  0.74161867  1
  Te  Te81  1  0.43854886  0.11806268  0.06296998  1
  Te  Te82  1  0.43461765  0.10654760  0.42698179  1
  Te  Te83  1  0.44808305  0.05236788  0.77411605  1
  Te  Te84  1  0.41014144  0.43640761  0.08330846  1
  Te  Te85  1  0.41362059  0.43428265  0.40257316  1
  Te  Te86  1  0.42090124  0.40543361  0.77153771  1
  Te  Te87  1  0.41556843  0.76786819  0.08624566  1
  Te  Te88  1  0.41433614  0.77045969  0.39565857  1
  Te  Te89  1  0.43427251  0.74198489  0.76678785  1
  Te  Te90  1  0.75166883  0.11772978  0.02913370  1
  Te  Te91  1  0.74254541  0.09866501  0.41502196  1
  Te  Te92  1  0.75885274  0.11130146  0.78649620  1
  Te  Te93  1  0.75151292  0.41882751  0.03667699  1
  Te  Te94  1  0.73977080  0.42365308  0.40474298  1
  Te  Te95  1  0.75114055  0.43405907  0.80805112  1
  Te  Te96  1  0.78606206  0.73927059  0.06781798  1
  Te  Te97  1  0.74288766  0.74228888  0.42432678  1
  Te  Te98  1  0.75857406  0.73161296  0.76154571  1
  Te  Te99  1  0.09153022  0.24740180  0.24465509  1
  Te  Te100  1  0.11113955  0.26395543  0.57365215  1
  Te  Te101  1  0.06602400  0.21290254  0.88811641  1
  Te  Te102  1  0.07144944  0.53316376  0.21012837  1
  Te  Te103  1  0.06340026  0.57729487  0.58486580  1
  Te  Te104  1  0.06726588  0.59473498  0.93520779  1
  Te  Te105  1  0.06927646  0.92594884  0.25067492  1
  Te  Te106  1  0.09334776  0.90635256  0.57593754  1
  Te  Te107  1  0.09335797  0.91503684  0.90100489  1
  Te  Te108  1  0.38912547  0.27343196  0.24029425  1
  Te  Te109  1  0.42406184  0.23982847  0.60233835  1
  Te  Te110  1  0.39178359  0.23012533  0.91099001  1
  Te  Te111  1  0.41019463  0.58224393  0.23764102  1
  Te  Te112  1  0.43085482  0.57611416  0.59871813  1
  Te  Te113  1  0.41969760  0.56123401  0.90742379  1
  Te  Te114  1  0.39683519  0.92363888  0.23117079  1
  Te  Te115  1  0.40914088  0.91730237  0.58898520  1
  Te  Te116  1  0.43482567  0.95190081  0.90429758  1
  Te  Te117  1  0.75170150  0.24885309  0.24175977  1
  Te  Te118  1  0.75692960  0.25184996  0.58079930  1
  Te  Te119  1  0.74413472  0.21966687  0.91023068  1
  Te  Te120  1  0.76879352  0.58615894  0.21761971  1
  Te  Te121  1  0.76668699  0.56201110  0.60440216  1
  Te  Te122  1  0.69632681  0.65542530  0.98340959  1
  Te  Te123  1  0.74154832  0.89840666  0.21837837  1
  Te  Te124  1  0.73495617  0.91855223  0.58498613  1
  Te  Te125  1  0.75483025  0.92923956  0.92448435  1
  Te  Te126  1  0.23548507  0.26872067  0.07342538  1
  Te  Te127  1  0.26736172  0.26980361  0.40159508  1
  Te  Te128  1  0.27980961  0.21941293  0.77258425  1
  Te  Te129  1  0.24951960  0.58845795  0.07810201  1
  Te  Te130  1  0.22227256  0.59150419  0.40020922  1
  Te  Te131  1  0.26810266  0.57462888  0.75230069  1
  Te  Te132  1  0.27402457  0.94771157  0.05685481  1
  Te  Te133  1  0.24357155  0.92183339  0.41088840  1
  Te  Te134  1  0.25726500  0.91575320  0.73646412  1
  Te  Te135  1  0.57177284  0.25000924  0.06307145  1
  Te  Te136  1  0.57835525  0.27247192  0.41035771  1
  Te  Te137  1  0.58934250  0.24622333  0.73130498  1
  Te  Te138  1  0.61301230  0.56291586  0.09543089  1
  Te  Te139  1  0.56422500  0.59798796  0.41985902  1
  Te  Te140  1  0.60020112  0.56233822  0.78454990  1
  Te  Te141  1  0.59852715  0.93299650  0.06165044  1
  Te  Te142  1  0.59770608  0.91365854  0.41747837  1
  Te  Te143  1  0.60490244  0.90900543  0.78292187  1
  Te  Te144  1  0.92120804  0.24183838  0.05976426  1
  Te  Te145  1  0.90707449  0.25258869  0.41895112  1
  Te  Te146  1  0.94760837  0.26618713  0.77623296  1
  Te  Te147  1  0.86450015  0.52540198  0.04119431  1
  Te  Te148  1  0.92639309  0.57974062  0.39440052  1
  Te  Te149  1  0.90409581  0.57970581  0.79706567  1
  Te  Te150  1  0.91161534  0.92230760  0.06723815  1
  Te  Te151  1  0.89654654  0.90982517  0.39263228  1
  Te  Te152  1  0.93174234  0.91234702  0.74569206  1
  Te  Te153  1  0.25241656  0.09040005  0.26109697  1
  Te  Te154  1  0.25203691  0.07825536  0.59513626  1
  Te  Te155  1  0.25422216  0.04959956  0.92456262  1
  Te  Te156  1  0.19361200  0.46149831  0.28887862  1
  Te  Te157  1  0.26481275  0.42474904  0.57539353  1
  Te  Te158  1  0.22977384  0.40666124  0.89545191  1
  Te  Te159  1  0.24861285  0.76489739  0.21691897  1
  Te  Te160  1  0.23202957  0.72187673  0.56877177  1
  Te  Te161  1  0.25445462  0.74764436  0.91400577  1
  Te  Te162  1  0.57674280  0.07753817  0.24707517  1
  Te  Te163  1  0.58575879  0.07920744  0.60841348  1
  Te  Te164  1  0.54748018  0.14703655  0.84615833  1
  Te  Te165  1  0.61060623  0.40696123  0.23338185  1
  Te  Te166  1  0.59935163  0.40705712  0.58488824  1
  Te  Te167  1  0.59929787  0.37622283  0.95131683  1
  Te  Te168  1  0.58803087  0.74112594  0.24726579  1
  Te  Te169  1  0.58842175  0.75827698  0.59016965  1
  Te  Te170  1  0.56970077  0.72458728  0.92236286  1
  Te  Te171  1  0.88876848  0.07201106  0.24486408  1
  Te  Te172  1  0.90459349  0.08151838  0.59552373  1
  Te  Te173  1  0.94331318  0.10790352  0.91951092  1
  Te  Te174  1  0.91842862  0.39981498  0.22018308  1
  Te  Te175  1  0.94278479  0.39120424  0.61081250  1
  Te  Te176  1  0.93645595  0.40768536  0.95362583  1
  Te  Te177  1  0.91762567  0.71732436  0.23386582  1
  Te  Te178  1  0.91340381  0.74713697  0.58173157  1
  Te  Te179  1  0.89531538  0.75111583  0.93577314  1
