# generated using pymatgen
data_In2Te3
_symmetry_space_group_name_H-M   'P 1'
_cell_length_a   18.79261446
_cell_length_b   18.79780608
_cell_length_c   18.78749251
_cell_angle_alpha   90.08560884
_cell_angle_beta   90.01067718
_cell_angle_gamma   89.88934979
_symmetry_Int_Tables_number   1
_chemical_formula_structural   In2Te3
_chemical_formula_sum   'In72 Te108'
_cell_volume   6636.84825230
_cell_formula_units_Z   36
loop_
 _symmetry_equiv_pos_site_id
 _symmetry_equiv_pos_as_xyz
  1  'x, y, z'
loop_
 _atom_site_type_symbol
 _atom_site_label
 _atom_site_symmetry_multiplicity
 _atom_site_fract_x
 _atom_site_fract_y
 _atom_site_fract_z
 _atom_site_occupancy
  In  In0  1  0.52993469  -0.03219867  0.80130004  1
  In  In1  1  0.18683353  0.67402387  0.49499118  1
  In  In2  1  0.33829402  0.81753320  0.17337775  1
  In  In3  1  0.47223402  0.64348370  0.50468228  1
  In  In4  1  -0.01699756  0.83687450  0.81631314  1
  In  In5  1  0.82288722  0.15926099  0.67379914  1
  In  In6  1  0.81245150  -0.00163992  0.48682204  1
  In  In7  1  0.81917510  0.31947370  0.82796631  1
  In  In8  1  0.67883678  0.81566874  0.47938025  1
  In  In9  1  0.49564678  0.34186726  0.84058783  1
  In  In10  1  -0.01084234  0.83478613  0.16811159  1
  In  In11  1  0.66394401  0.85353851  0.18731990  1
  In  In12  1  0.50800353  0.83216444  0.35158267  1
  In  In13  1  0.17562351  0.50757559  0.34432635  1
  In  In14  1  0.00170168  0.47816144  0.19835514  1
  In  In15  1  0.33958597  0.17255591  0.15335523  1
  In  In16  1  0.34308551  0.83379163  0.50910154  1
  In  In17  1  0.01728834  0.46654695  0.83140679  1
  In  In18  1  0.34808469  -0.01612488  0.34867863  1
  In  In19  1  0.33571597  0.81556747  0.81916374  1
  In  In20  1  0.84208968  0.50430569  0.65732620  1
  In  In21  1  0.63966858  0.50663898  0.84413128  1
  In  In22  1  0.82282081  -0.00492348  0.18137568  1
  In  In23  1  0.16840326  0.16383912  0.35355735  1
  In  In24  1  0.51416785  0.15124015  -0.01578282  1
  In  In25  1  0.30658938  0.15799556  0.81511567  1
  In  In26  1  -0.00779033  0.86040239  0.52651226  1
  In  In27  1  0.16702794  0.32258088  0.80895079  1
  In  In28  1  0.81545028  0.50692815  0.01991027  1
  In  In29  1  0.82880194  0.68653279  0.79871866  1
  In  In30  1  0.50294609  0.50820324  0.32171907  1
  In  In31  1  0.17446552  0.83426678  0.32141523  1
  In  In32  1  0.66547666  0.68378584  0.00789842  1
  In  In33  1  0.32258626  0.34578141  0.36744184  1
  In  In34  1  0.64690279  0.32830076  0.65342555  1
  In  In35  1  0.65713278  0.48773016  0.18015214  1
  In  In36  1  0.00819605  0.50424238  0.45942813  1
  In  In37  1  0.00012737  0.16517471  0.49344297  1
  In  In38  1  0.34795062  0.00581043  0.64733032  1
  In  In39  1  0.49729496  0.34208658  0.17444186  1
  In  In40  1  0.35398281  0.36542413  -0.00851744  1
  In  In41  1  0.67051262  0.16076974  0.50126365  1
  In  In42  1  0.51092108  0.16054107  0.35517343  1
  In  In43  1  0.65521495  0.69327089  0.67645647  1
  In  In44  1  0.00460773  0.35247008  0.66403578  1
  In  In45  1  0.00514073  0.67990846  0.64091942  1
  In  In46  1  0.17924945  0.15839326  0.67170810  1
  In  In47  1  0.83679644  0.66806943  0.17490835  1
  In  In48  1  0.50397367  0.67674924  0.16618875  1
  In  In49  1  0.00168960  0.69306397  -0.01033468  1
  In  In50  1  -0.00870937  0.33041722  0.33943985  1
  In  In51  1  0.67528432  0.15740195  0.84338011  1
  In  In52  1  0.83766285  0.49282247  0.33998234  1
  In  In53  1  -0.03565671  0.15057749  0.18716573  1
  In  In54  1  0.33790269  0.51086671  0.81023381  1
  In  In55  1  0.20830966  0.53052836  0.02798673  1
  In  In56  1  0.15933768  0.82196621  -0.03033185  1
  In  In57  1  0.48111086  0.18006457  0.63156852  1
  In  In58  1  0.52086689  0.83974059  0.00657769  1
  In  In59  1  0.15439328  0.00070916  0.16411520  1
  In  In60  1  0.34970750  0.00853691  0.01187852  1
  In  In61  1  0.13971778  0.17106698  0.02934573  1
  In  In62  1  0.67627317  0.16224167  0.19002334  1
  In  In63  1  -0.00220288  0.12288258  0.83618652  1
  In  In64  1  0.16955369  0.64966023  0.81613028  1
  In  In65  1  0.15964933  0.35934642  0.18442755  1
  In  In66  1  0.67066967  0.50279455  0.49870603  1
  In  In67  1  -0.01414115  0.31124138  0.02625322  1
  In  In68  1  0.48983327  0.66869623  0.83159446  1
  In  In69  1  0.16248130  -0.01390226  0.83006853  1
  In  In70  1  0.82757378  -0.01891306  0.83895151  1
  In  In71  1  -0.01147707  0.67341452  0.32525594  1
  Te  Te72  1  0.04333021  0.06732660  0.08190003  1
  Te  Te73  1  0.08315139  0.06579333  0.42037517  1
  Te  Te74  1  0.07315595  0.05365949  0.71713958  1
  Te  Te75  1  0.08187978  0.42527039  0.07051369  1
  Te  Te76  1  0.10587312  0.39314406  0.41976784  1
  Te  Te77  1  0.11919827  0.43863764  0.71988283  1
  Te  Te78  1  0.09695780  0.75338321  0.09188953  1
  Te  Te79  1  0.07811688  0.75524941  0.41966421  1
  Te  Te80  1  0.09145391  0.75739065  0.74158252  1
  Te  Te81  1  0.44785696  0.07659963  0.10534050  1
  Te  Te82  1  0.41112215  0.08408376  0.43614768  1
  Te  Te83  1  0.42722725  0.08134829  0.76162641  1
  Te  Te84  1  0.42197594  0.44250119  0.09552017  1
  Te  Te85  1  0.43430383  0.42516656  0.42869279  1
  Te  Te86  1  0.42590270  0.41710265  0.73554119  1
  Te  Te87  1  0.41508115  0.74598028  0.06086778  1
  Te  Te88  1  0.40116083  0.73840905  0.40449310  1
  Te  Te89  1  0.43175656  0.75420078  0.72621294  1
  Te  Te90  1  0.73562943  0.07157122  0.08736762  1
  Te  Te91  1  0.76151364  0.10635697  0.39204750  1
  Te  Te92  1  0.73109861  0.06168603  0.74003374  1
  Te  Te93  1  0.73527404  0.40339554  0.08571612  1
  Te  Te94  1  0.75552525  0.40514826  0.42405052  1
  Te  Te95  1  0.74308028  0.42623373  0.74679349  1
  Te  Te96  1  0.75610806  0.76855306  0.09332485  1
  Te  Te97  1  0.78761547  0.72477733  0.43675790  1
  Te  Te98  1  0.74263422  0.80296578  0.74488400  1
  Te  Te99  1  0.08373646  0.23975129  0.23997409  1
  Te  Te100  1  0.08851499  0.25158020  0.58673742  1
  Te  Te101  1  0.07703062  0.24686834  0.90733491  1
  Te  Te102  1  0.09062699  0.59048494  0.24630660  1
  Te  Te103  1  0.08954868  0.57594821  0.56777249  1
  Te  Te104  1  0.08181968  0.58055982  0.92131753  1
  Te  Te105  1  0.06749909  0.92755246  0.26436923  1
  Te  Te106  1  0.07828740  0.92433185  0.62569975  1
  Te  Te107  1  0.05792705  0.92475015  0.92219906  1
  Te  Te108  1  0.40401296  0.25514021  0.26362990  1
  Te  Te109  1  0.40491768  0.28300897  0.55802623  1
  Te  Te110  1  0.39757480  0.23359993  0.92369928  1
  Te  Te111  1  0.40696938  0.59084797  0.24082984  1
  Te  Te112  1  0.36751710  0.56466407  0.58491101  1
  Te  Te113  1  0.42152854  0.57011990  0.91707389  1
  Te  Te114  1  0.43285126  0.91300934  0.24244578  1
  Te  Te115  1  0.44369224  0.92609649  0.56779089  1
  Te  Te116  1  0.41559528  0.91871078  0.90717859  1
  Te  Te117  1  0.78359242  0.26355636  0.21892193  1
  Te  Te118  1  0.76376399  0.26335646  0.58198879  1
  Te  Te119  1  0.73704516  0.25739091  0.93263583  1
  Te  Te120  1  0.74419345  0.58444420  0.26117069  1
  Te  Te121  1  0.74620109  0.60123290  0.59157214  1
  Te  Te122  1  0.75601404  0.59501050  0.90674744  1
  Te  Te123  1  0.75145223  0.91707655  0.28779186  1
  Te  Te124  1  0.71947133  0.92425067  0.57928613  1
  Te  Te125  1  0.74612207  0.87038271  0.89395462  1
  Te  Te126  1  0.24686499  0.26949144  0.07914033  1
  Te  Te127  1  0.26037348  0.23506093  0.44668976  1
  Te  Te128  1  0.27733961  0.27048124  0.71735967  1
  Te  Te129  1  0.27224636  0.61649475  0.12635738  1
  Te  Te130  1  0.27661479  0.56915456  0.43584544  1
  Te  Te131  1  0.27193038  0.60819910  0.71402526  1
  Te  Te132  1  0.24714867  0.91209904  0.07712178  1
  Te  Te133  1  0.23779571  0.91788832  0.43126696  1
  Te  Te134  1  0.25630570  0.91593204  0.73549523  1
  Te  Te135  1  0.57535760  0.24009508  0.09211137  1
  Te  Te136  1  0.58889366  0.26194174  0.42941013  1
  Te  Te137  1  0.57416765  0.23716258  0.75529163  1
  Te  Te138  1  0.58351946  0.57853146  0.07778400  1
  Te  Te139  1  0.58764198  0.59886859  0.41190527  1
  Te  Te140  1  0.56894434  0.57891942  0.73177254  1
  Te  Te141  1  0.59776714  0.93834118  0.08385178  1
  Te  Te142  1  0.59549761  0.92747454  0.42226021  1
  Te  Te143  1  0.61639312  0.89109836  0.70829500  1
  Te  Te144  1  0.87862663  0.22768152  0.08907739  1
  Te  Te145  1  0.90041888  0.24245018  0.41329077  1
  Te  Te146  1  0.93213282  0.24800152  0.74999665  1
  Te  Te147  1  0.93038863  0.58560805  0.08615761  1
  Te  Te148  1  0.89563341  0.60965668  0.43454058  1
  Te  Te149  1  0.93639491  0.57899223  0.75575773  1
  Te  Te150  1  0.90648550  0.91910968  0.08123357  1
  Te  Te151  1  0.91158342  0.91354301  0.41554311  1
  Te  Te152  1  0.91362783  0.93057370  0.72613502  1
  Te  Te153  1  0.25903610  0.07762598  0.24552326  1
  Te  Te154  1  0.25580822  0.08853279  0.56475065  1
  Te  Te155  1  0.23222319  0.08298100  0.93455973  1
  Te  Te156  1  0.27209120  0.43317865  0.24865873  1
  Te  Te157  1  0.32728310  0.41922614  0.56309445  1
  Te  Te158  1  0.24007907  0.42052841  0.90637373  1
  Te  Te159  1  0.25228374  0.72497258  0.25415625  1
  Te  Te160  1  0.25394363  0.75539719  0.59915407  1
  Te  Te161  1  0.26151438  0.72291142  0.91556056  1
  Te  Te162  1  0.59537992  0.07060503  0.27416045  1
  Te  Te163  1  0.58137100  0.08160716  0.58924033  1
  Te  Te164  1  0.60014569  0.04438689  0.91517465  1
  Te  Te165  1  0.59641261  0.39011604  0.28048074  1
  Te  Te166  1  0.56964148  0.42734877  0.57812722  1
  Te  Te167  1  0.59103669  0.40251378  0.93543447  1
  Te  Te168  1  0.59839878  0.74053292  0.26640475  1
  Te  Te169  1  0.56577185  0.74932277  0.56646916  1
  Te  Te170  1  0.59842701  0.76510399  0.89777766  1
  Te  Te171  1  0.88717956  0.08111506  0.29357160  1
  Te  Te172  1  0.90814901  0.07667442  0.57984762  1
  Te  Te173  1  0.87962501  0.09658373  0.91760497  1
  Te  Te174  1  0.88617032  0.38491825  0.23038205  1
  Te  Te175  1  0.91908703  0.41950453  0.55788696  1
  Te  Te176  1  0.90830667  0.41305261  0.92457230  1
  Te  Te177  1  0.88878119  0.77590514  0.26965844  1
  Te  Te178  1  0.89548400  0.75967073  0.58227250  1
  Te  Te179  1  0.88876056  0.76518446  0.92067957  1
