# generated using pymatgen
data_In2Te3
_symmetry_space_group_name_H-M   'P 1'
_cell_length_a   18.88179964
_cell_length_b   18.90728722
_cell_length_c   18.88270842
_cell_angle_alpha   89.84532902
_cell_angle_beta   89.92119927
_cell_angle_gamma   89.86864599
_symmetry_Int_Tables_number   1
_chemical_formula_structural   In2Te3
_chemical_formula_sum   'In72 Te108'
_cell_volume   6741.14645534
_cell_formula_units_Z   36
loop_
 _symmetry_equiv_pos_site_id
 _symmetry_equiv_pos_as_xyz
  1  'x, y, z'
loop_
 _atom_site_type_symbol
 _atom_site_label
 _atom_site_symmetry_multiplicity
 _atom_site_fract_x
 _atom_site_fract_y
 _atom_site_fract_z
 _atom_site_occupancy
  In  In0  1  0.15689128  0.11605116  0.69792119  1
  In  In1  1  0.30999161  0.15671854  0.16855490  1
  In  In2  1  0.16771273  0.34634347  0.49324009  1
  In  In3  1  -0.01192100  0.84618516  0.52268510  1
  In  In4  1  0.34269545  0.70618858  0.36947551  1
  In  In5  1  0.83671197  0.47816548  0.31823503  1
  In  In6  1  0.68584553  0.68217262  0.38244323  1
  In  In7  1  0.35264508  0.53906285  0.51618215  1
  In  In8  1  -0.02962733  0.69266168  0.69536561  1
  In  In9  1  0.35416758  0.63254580  -0.00385196  1
  In  In10  1  0.14470301  0.48826202  -0.00698375  1
  In  In11  1  0.14351820  0.85116084  -0.00574753  1
  In  In12  1  0.81637551  0.66617589  0.16419057  1
  In  In13  1  0.53302172  0.33308451  0.12846468  1
  In  In14  1  0.51669845  0.35854406  0.49835358  1
  In  In15  1  0.17773872  0.66093564  0.85210433  1
  In  In16  1  0.49731967  0.18011904  -0.00281583  1
  In  In17  1  0.48171121  0.00449192  0.82655201  1
  In  In18  1  -0.04698301  0.84439994  0.16585076  1
  In  In19  1  0.66352090  -0.02124934  0.64887074  1
  In  In20  1  -0.06140537  0.27930470  0.26069736  1
  In  In21  1  0.19300898  0.85432256  0.66641322  1
  In  In22  1  0.50380334  0.01895794  0.16820648  1
  In  In23  1  0.35340176  0.33636353  0.69609764  1
  In  In24  1  0.51601428  0.15389836  0.67383360  1
  In  In25  1  0.17139320  0.15422908  0.33124394  1
  In  In26  1  0.12365827  0.51774630  0.34112337  1
  In  In27  1  -0.00145189  0.49111351  0.49672187  1
  In  In28  1  -0.00193023  0.16814598  0.48876528  1
  In  In29  1  0.34555310  0.48696472  0.84142708  1
  In  In30  1  0.15470829  0.15593455  -0.00148609  1
  In  In31  1  0.33713795  0.16661024  0.84702323  1
  In  In32  1  0.15642399  0.00310282  0.17565893  1
  In  In33  1  0.14265738  0.29593767  0.84746259  1
  In  In34  1  0.51893054  0.14579786  0.32312624  1
  In  In35  1  0.82798433  0.84395215  0.00186215  1
  In  In36  1  -0.01439171  0.02492855  0.30929247  1
  In  In37  1  0.52216059  0.82875334  -0.02797746  1
  In  In38  1  0.51326344  0.49453337  -0.01236699  1
  In  In39  1  0.83812382  0.16986298  0.66232532  1
  In  In40  1  -0.00394491  0.66178087  0.01175921  1
  In  In41  1  0.50983225  -0.01469199  0.50378939  1
  In  In42  1  0.14513762  0.67325249  0.51453701  1
  In  In43  1  0.16632068  0.66672237  0.19987139  1
  In  In44  1  0.68746929  0.02086627  0.01407456  1
  In  In45  1  0.51024517  0.53306770  0.34607913  1
  In  In46  1  0.83082587  0.33062480  0.87143889  1
  In  In47  1  0.85000665  0.00279292  0.84581108  1
  In  In48  1  0.33280019  0.82938939  0.16314278  1
  In  In49  1  0.52184678  0.65428795  0.17456461  1
  In  In50  1  0.69780420  0.46770707  0.14759515  1
  In  In51  1  -0.00571983  0.85074810  0.81913620  1
  In  In52  1  0.79872886  0.78797312  0.64946581  1
  In  In53  1  0.37341589  0.68492254  0.67717657  1
  In  In54  1  0.17204190  0.47007225  0.69534092  1
  In  In55  1  0.79829554  0.65232984  0.79849220  1
  In  In56  1  0.67823450  0.31997908  0.66860893  1
  In  In57  1  0.50263474  0.82140597  0.34704944  1
  In  In58  1  0.34452088  0.33036466  0.30836476  1
  In  In59  1  0.33435817  0.49202356  0.17344029  1
  In  In60  1  0.34338002  0.85896954  0.48801643  1
  In  In61  1  0.15270848  0.33069111  0.14383236  1
  In  In62  1  -0.01952722  0.34817432  0.65226025  1
  In  In63  1  0.82580479  0.03074915  0.47580878  1
  In  In64  1  0.33027861  0.14799378  0.52902592  1
  In  In65  1  0.67305840  0.33387750  0.30572851  1
  In  In66  1  0.83805406  0.33969922  0.48398275  1
  In  In67  1  0.68946656  0.18226335  0.84039526  1
  In  In68  1  -0.00224020  0.68052512  0.33285678  1
  In  In69  1  0.70070799  0.86497389  0.17931897  1
  In  In70  1  0.34558335  0.82521216  0.82673781  1
  In  In71  1  0.66784439  0.50383969  0.83744159  1
  Te  Te72  1  0.06591162  0.07487416  0.08595972  1
  Te  Te73  1  0.08572885  0.06550207  0.41873657  1
  Te  Te74  1  0.05010296  0.07868521  0.79159583  1
  Te  Te75  1  0.04961810  0.41177350  0.07604656  1
  Te  Te76  1  0.05808642  0.39105442  0.39713445  1
  Te  Te77  1  0.06080632  0.40466609  0.77123964  1
  Te  Te78  1  0.08086839  0.75591083  0.09899137  1
  Te  Te79  1  0.08314420  0.77124331  0.41941005  1
  Te  Te80  1  0.10192866  0.74732105  0.74974150  1
  Te  Te81  1  0.40495968  0.08373163  0.07310787  1
  Te  Te82  1  0.42173253  0.08388698  0.42486987  1
  Te  Te83  1  0.39450495  0.08472746  0.73049356  1
  Te  Te84  1  0.41176283  0.41327126  0.07186147  1
  Te  Te85  1  0.40348486  0.43057665  0.40818176  1
  Te  Te86  1  0.44702210  0.43721803  0.74493622  1
  Te  Te87  1  0.43051586  0.73816233  0.08482915  1
  Te  Te88  1  0.45188510  0.74391378  0.46626014  1
  Te  Te89  1  0.46631956  0.76805579  0.75847107  1
  Te  Te90  1  0.81221549  0.04915550  0.08813159  1
  Te  Te91  1  0.71327323  0.04516866  0.37652122  1
  Te  Te92  1  0.74309737  0.07821148  0.74205375  1
  Te  Te93  1  0.74888098  0.39305053  0.02523547  1
  Te  Te94  1  0.73149846  0.42334454  0.41420196  1
  Te  Te95  1  0.76131731  0.40810145  0.75985622  1
  Te  Te96  1  0.72895287  0.75564402  0.07561620  1
  Te  Te97  1  0.76408754  0.77726605  0.45943927  1
  Te  Te98  1  0.72136845  0.77981989  0.78080929  1
  Te  Te99  1  0.08536623  0.22508211  0.23093947  1
  Te  Te100  1  0.08107131  0.25652974  0.58182156  1
  Te  Te101  1  0.04468235  0.24403697  0.94581260  1
  Te  Te102  1  0.04451045  0.57943659  0.22670111  1
  Te  Te103  1  0.08954252  0.55875965  0.59813066  1
  Te  Te104  1  0.06165376  0.57758689  0.90120303  1
  Te  Te105  1  0.06321686  0.90758794  0.24972933  1
  Te  Te106  1  0.07641687  0.92486450  0.61012005  1
  Te  Te107  1  0.08090829  0.94443094  0.89570980  1
  Te  Te108  1  0.43264744  0.23989974  0.22651100  1
  Te  Te109  1  0.42803450  0.25693813  0.58143043  1
  Te  Te110  1  0.42199261  0.26860679  0.90679731  1
  Te  Te111  1  0.39539000  0.60534230  0.25661676  1
  Te  Te112  1  0.45203939  0.57419537  0.61794671  1
  Te  Te113  1  0.45172726  0.59901151  0.88182704  1
  Te  Te114  1  0.42900161  0.91176606  0.24776324  1
  Te  Te115  1  0.41533019  0.92243384  0.59737057  1
  Te  Te116  1  0.41063166  0.92063420  0.93227158  1
  Te  Te117  1  0.77972877  0.27053873  0.22252609  1
  Te  Te118  1  0.75034938  0.23990042  0.56013445  1
  Te  Te119  1  0.76918800  0.22451765  0.95716363  1
  Te  Te120  1  0.73296815  0.57667319  0.25664536  1
  Te  Te121  1  0.75186172  0.64129045  0.60710047  1
  Te  Te122  1  0.75253471  0.58986797  0.92456942  1
  Te  Te123  1  0.77841377  0.94471386  0.27674920  1
  Te  Te124  1  0.75839242  0.91137685  0.54957758  1
  Te  Te125  1  0.73457027  0.92270976  0.90918234  1
  Te  Te126  1  0.25811492  0.25570465  0.06723166  1
  Te  Te127  1  0.26251014  0.24732491  0.41494869  1
  Te  Te128  1  0.23636380  0.24588034  0.73169869  1
  Te  Te129  1  0.23351128  0.58092702  0.08688995  1
  Te  Te130  1  0.23624552  0.58656150  0.41814778  1
  Te  Te131  1  0.26321568  0.58767978  0.74876400  1
  Te  Te132  1  0.24681134  0.92448544  0.08067991  1
  Te  Te133  1  0.26492150  0.91560451  0.38173625  1
  Te  Te134  1  0.25106557  0.92853135  0.77891538  1
  Te  Te135  1  0.61216871  0.21693950  0.08475650  1
  Te  Te136  1  0.58438944  0.25738890  0.40353170  1
  Te  Te137  1  0.57776889  0.25576965  0.76551670  1
  Te  Te138  1  0.60581589  0.57171314  0.07964339  1
  Te  Te139  1  0.58787653  0.59644659  0.45177104  1
  Te  Te140  1  0.64992951  0.59936513  0.71938460  1
  Te  Te141  1  0.58566135  0.91799243  0.08227729  1
  Te  Te142  1  0.59653203  0.92668772  0.39675674  1
  Te  Te143  1  0.56549324  0.91542400  0.74139874  1
  Te  Te144  1  0.89512056  0.21731115  0.13221222  1
  Te  Te145  1  0.89066302  0.22534326  0.39853108  1
  Te  Te146  1  0.91158817  0.26021218  0.75576029  1
  Te  Te147  1  0.87803617  0.58095275  0.05728372  1
  Te  Te148  1  0.91059919  0.57744888  0.40704822  1
  Te  Te149  1  0.91470738  0.57149588  0.75417838  1
  Te  Te150  1  0.92943393  0.94220607  0.05487707  1
  Te  Te151  1  0.92157776  0.92871939  0.41344475  1
  Te  Te152  1  0.88375673  0.90494439  0.73552177  1
  Te  Te153  1  0.27118012  0.05333867  0.27470700  1
  Te  Te154  1  0.22016905  0.06265839  0.57567970  1
  Te  Te155  1  0.24352407  0.07504608  0.91117473  1
  Te  Te156  1  0.22690281  0.41853071  0.25664332  1
  Te  Te157  1  0.26719458  0.42030105  0.58288471  1
  Te  Te158  1  0.23844217  0.40393048  0.90809694  1
  Te  Te159  1  0.24105508  0.77732187  0.27554117  1
  Te  Te160  1  0.26025320  0.74331397  0.58446164  1
  Te  Te161  1  0.25912539  0.75103998  0.94155643  1
  Te  Te162  1  0.61819738  0.09614625  0.22321495  1
  Te  Te163  1  0.60042777  0.09264942  0.56592280  1
  Te  Te164  1  0.58487635  0.08068760  0.90882371  1
  Te  Te165  1  0.56298406  0.43133292  0.24511900  1
  Te  Te166  1  0.61165830  0.42416576  0.58679431  1
  Te  Te167  1  0.60621427  0.39795820  0.92503381  1
  Te  Te168  1  0.60554391  0.75092228  0.25688909  1
  Te  Te169  1  0.64903239  0.74602170  0.63330052  1
  Te  Te170  1  0.56195672  0.70736396  0.90416386  1
  Te  Te171  1  0.86844476  0.07613764  0.23219239  1
  Te  Te172  1  0.92732979  0.07496209  0.58623074  1
  Te  Te173  1  0.93499522  0.11537134  0.88958387  1
  Te  Te174  1  0.91101625  0.41712658  0.20785423  1
  Te  Te175  1  0.88230600  0.44388965  0.58519264  1
  Te  Te176  1  0.88217056  0.43483146  0.96384820  1
  Te  Te177  1  0.88191291  0.75606261  0.26788945  1
  Te  Te178  1  0.91940285  0.71616655  0.55666327  1
  Te  Te179  1  0.92280560  0.75885889  0.91786409  1
