# generated using pymatgen
data_In2Te3
_symmetry_space_group_name_H-M   'P 1'
_cell_length_a   18.87968101
_cell_length_b   18.89143392
_cell_length_c   18.87924350
_cell_angle_alpha   90.03731674
_cell_angle_beta   89.91771168
_cell_angle_gamma   89.90612111
_symmetry_Int_Tables_number   1
_chemical_formula_structural   In2Te3
_chemical_formula_sum   'In72 Te108'
_cell_volume   6733.53373196
_cell_formula_units_Z   36
loop_
 _symmetry_equiv_pos_site_id
 _symmetry_equiv_pos_as_xyz
  1  'x, y, z'
loop_
 _atom_site_type_symbol
 _atom_site_label
 _atom_site_symmetry_multiplicity
 _atom_site_fract_x
 _atom_site_fract_y
 _atom_site_fract_z
 _atom_site_occupancy
  In  In0  1  0.00154206  0.67159548  0.32885624  1
  In  In1  1  0.84144561  -0.00503779  0.15526112  1
  In  In2  1  0.17941894  -0.00390967  0.17681349  1
  In  In3  1  0.51274059  0.47720168  0.68356948  1
  In  In4  1  -0.00354447  0.35035700  -0.01727338  1
  In  In5  1  0.33020207  0.31802273  0.00415697  1
  In  In6  1  0.15066021  0.51831521  -0.02783593  1
  In  In7  1  0.15295221  0.66861544  0.81746867  1
  In  In8  1  0.33672176  0.84933635  0.48048957  1
  In  In9  1  0.01749589  0.03009369  0.36086724  1
  In  In10  1  0.68218681  0.50830041  0.51268086  1
  In  In11  1  0.15992998  0.32862276  0.48115036  1
  In  In12  1  0.47771066  0.16339948  0.33566436  1
  In  In13  1  0.14035721  0.67230975  0.51662670  1
  In  In14  1  0.86237690  0.20166717  0.37163169  1
  In  In15  1  0.50259484  0.84101513  0.32353895  1
  In  In16  1  0.84796719  0.49291361  0.32267788  1
  In  In17  1  0.16735128  0.84181964  0.31668879  1
  In  In18  1  0.14669207  0.00694841  0.82833882  1
  In  In19  1  0.65815725  -0.00102676  0.65334136  1
  In  In20  1  0.33844471  -0.00257982  0.03130203  1
  In  In21  1  0.86533407  0.16588776  0.65138078  1
  In  In22  1  0.16944274  0.18649685  -0.00180140  1
  In  In23  1  0.81884496  -0.02451068  0.83480015  1
  In  In24  1  0.32122493  0.69104299  0.29982184  1
  In  In25  1  0.82062250  0.66839531  0.16397276  1
  In  In26  1  0.35308793  0.67098431  0.00214161  1
  In  In27  1  0.31124372  0.85540372  0.83538046  1
  In  In28  1  0.31862377  0.01052487  0.69627912  1
  In  In29  1  0.50999259  0.64360915  0.82108144  1
  In  In30  1  0.69836993  0.36669381  0.68013450  1
  In  In31  1  -0.01603051  0.82546900  0.81691732  1
  In  In32  1  0.16089189  0.31648980  0.18559664  1
  In  In33  1  0.80904741  0.68362876  0.50216493  1
  In  In34  1  0.15384018  0.49275673  0.63864118  1
  In  In35  1  0.66175939  0.18005774  0.19075177  1
  In  In36  1  0.67230319  0.67135951  0.00421867  1
  In  In37  1  0.34482482  0.16868113  0.83381371  1
  In  In38  1  0.01893107  0.70625332  0.00537478  1
  In  In39  1  0.34204722  0.50201729  0.14476975  1
  In  In40  1  0.31451959  0.50334930  0.49139906  1
  In  In41  1  0.33633775  0.01150654  0.33640904  1
  In  In42  1  0.51467686  0.68726220  0.15821028  1
  In  In43  1  0.67506005  0.34071591  0.00715390  1
  In  In44  1  0.51607001  0.50383533  -0.01779739  1
  In  In45  1  0.82345996  0.49508044  -0.00855366  1
  In  In46  1  0.66347554  0.17243823  0.51472005  1
  In  In47  1  0.65604180  0.16456330  0.83627735  1
  In  In48  1  0.52619270  0.66153406  0.50251932  1
  In  In49  1  0.86657547  0.65408327  0.82295869  1
  In  In50  1  0.51683044  0.47987675  0.33711163  1
  In  In51  1  0.66488192  0.81997732  0.85678073  1
  In  In52  1  0.83698143  0.00637688  0.52327816  1
  In  In53  1  0.00222469  0.17393924  0.17909469  1
  In  In54  1  0.48659782  0.01024963  0.83657420  1
  In  In55  1  0.47466322  0.29205474  0.52449916  1
  In  In56  1  0.84423826  0.83887015  0.33710237  1
  In  In57  1  0.65815660  -0.01936774  0.36331222  1
  In  In58  1  -0.00234294  0.50041779  0.16732605  1
  In  In59  1  0.32212919  0.30362218  0.33924079  1
  In  In60  1  0.67395484  0.34370879  0.32168120  1
  In  In61  1  0.50215683  0.81825912  0.65438711  1
  In  In62  1  0.14312976  0.48922765  0.33722601  1
  In  In63  1  0.50485274  0.32364856  0.82993109  1
  In  In64  1  -0.01847073  0.35140912  0.67109156  1
  In  In65  1  0.52119224  -0.03942864  0.15181972  1
  In  In66  1  -0.00716454  -0.01501183  -0.00532896  1
  In  In67  1  0.32701619  0.66421194  0.66249935  1
  In  In68  1  0.83388982  0.17751192  0.00325136  1
  In  In69  1  0.17071168  0.15565503  0.67629460  1
  In  In70  1  0.15266650  0.33071313  0.84570022  1
  In  In71  1  0.83507149  0.84513503  0.66891955  1
  Te  Te72  1  0.07881765  0.09007074  0.07653905  1
  Te  Te73  1  0.11300810  0.13853277  0.39370325  1
  Te  Te74  1  0.05754463  0.08782063  0.74553450  1
  Te  Te75  1  0.10526590  0.41036205  0.07893489  1
  Te  Te76  1  0.06212881  0.43949347  0.45018488  1
  Te  Te77  1  0.08083408  0.43106353  0.76008959  1
  Te  Te78  1  0.11514256  0.77134826  0.09453719  1
  Te  Te79  1  0.07753498  0.76907442  0.41651057  1
  Te  Te80  1  0.07174382  0.75085305  0.71676839  1
  Te  Te81  1  0.43851936  0.07317241  0.10526527  1
  Te  Te82  1  0.41561582  0.08079301  0.44127209  1
  Te  Te83  1  0.43701062  0.11367549  0.72418761  1
  Te  Te84  1  0.43438234  0.40875910  0.07040018  1
  Te  Te85  1  0.41375667  0.40647278  0.42455167  1
  Te  Te86  1  0.40839809  0.39982166  0.74878507  1
  Te  Te87  1  0.40921665  0.76843096  0.09686488  1
  Te  Te88  1  0.41435731  0.73145258  0.41810648  1
  Te  Te89  1  0.40715946  0.75333741  0.75815832  1
  Te  Te90  1  0.74471117  0.09264801  0.09136058  1
  Te  Te91  1  0.75888969  0.09462982  0.41924306  1
  Te  Te92  1  0.75235066  0.07948847  0.74056657  1
  Te  Te93  1  0.76077468  0.41814626  0.09883677  1
  Te  Te94  1  0.76180345  0.41311546  0.42337653  1
  Te  Te95  1  0.81325922  0.43957236  0.74444967  1
  Te  Te96  1  0.72993413  0.77239263  0.09917311  1
  Te  Te97  1  0.73699953  0.75552170  0.39521009  1
  Te  Te98  1  0.76139907  0.75065458  0.76205086  1
  Te  Te99  1  0.07388304  0.25091277  0.28892037  1
  Te  Te100  1  0.09334992  0.26583916  0.60354492  1
  Te  Te101  1  0.05660213  0.23072195  0.90718929  1
  Te  Te102  1  0.09628923  0.59325204  0.23703721  1
  Te  Te103  1  0.04924626  0.58862534  0.59747729  1
  Te  Te104  1  0.04576660  0.59526512  0.89658795  1
  Te  Te105  1  0.06319943  0.93337317  0.25130328  1
  Te  Te106  1  0.03876012  0.85056884  0.60780646  1
  Te  Te107  1  0.08238353  0.89634423  0.90964232  1
  Te  Te108  1  0.42948974  0.26921020  0.24553757  1
  Te  Te109  1  0.39293204  0.20063190  0.60013239  1
  Te  Te110  1  0.43647006  0.23321893  0.93445275  1
  Te  Te111  1  0.41761410  0.58109319  0.25223274  1
  Te  Te112  1  0.42111949  0.57396371  0.58076333  1
  Te  Te113  1  0.40519369  0.56808449  0.90053502  1
  Te  Te114  1  0.39970115  0.91212532  0.24077434  1
  Te  Te115  1  0.40068603  0.91635867  0.60138917  1
  Te  Te116  1  0.41633560  0.91223041  0.92948166  1
  Te  Te117  1  0.77861765  0.25526748  0.25510943  1
  Te  Te118  1  0.76076762  0.25953844  0.58944361  1
  Te  Te119  1  0.75442141  0.25920738  0.90290308  1
  Te  Te120  1  0.74942107  0.56595534  0.24085927  1
  Te  Te121  1  0.77385570  0.57989938  0.60555858  1
  Te  Te122  1  0.74709287  0.59003810  0.90088777  1
  Te  Te123  1  0.74620900  0.92303252  0.25396747  1
  Te  Te124  1  0.73571184  0.90138897  0.56677638  1
  Te  Te125  1  0.72783836  0.92511229  0.94174615  1
  Te  Te126  1  0.26297702  0.23052671  0.11029558  1
  Te  Te127  1  0.25135951  0.21637479  0.43651219  1
  Te  Te128  1  0.25219861  0.25833894  0.75630304  1
  Te  Te129  1  0.24230805  0.58951547  0.07166378  1
  Te  Te130  1  0.23673886  0.60388774  0.40940554  1
  Te  Te131  1  0.24166545  0.56839894  0.74211484  1
  Te  Te132  1  0.22094760  0.91152227  0.06214090  1
  Te  Te133  1  0.22845622  0.93745496  0.41845259  1
  Te  Te134  1  0.21140142  0.90388035  0.73472135  1
  Te  Te135  1  0.59223847  0.23932799  0.07521900  1
  Te  Te136  1  0.58496152  0.25291968  0.41027663  1
  Te  Te137  1  0.60072021  0.25818855  0.72902018  1
  Te  Te138  1  0.59409141  0.57445930  0.09177751  1
  Te  Te139  1  0.60856358  0.58329631  0.40090890  1
  Te  Te140  1  0.60359403  0.58604372  0.72317752  1
  Te  Te141  1  0.62029982  0.88395707  0.07510356  1
  Te  Te142  1  0.56011634  0.90589133  0.44256166  1
  Te  Te143  1  0.57928214  0.91124106  0.75736647  1
  Te  Te144  1  0.92272626  0.26754743  0.08826106  1
  Te  Te145  1  0.94551123  0.25920108  0.47996565  1
  Te  Te146  1  0.90756375  0.25751921  0.75757889  1
  Te  Te147  1  0.92555037  0.59175792  0.07135825  1
  Te  Te148  1  0.90739293  0.59583046  0.41766552  1
  Te  Te149  1  0.90460964  0.56053588  0.71038862  1
  Te  Te150  1  0.91332005  0.89303770  0.07678851  1
  Te  Te151  1  0.92787152  0.92526990  0.42964779  1
  Te  Te152  1  0.93233149  0.94370224  0.73243254  1
  Te  Te153  1  0.25268162  0.09917846  0.25038940  1
  Te  Te154  1  0.21907978  0.04294887  0.59295297  1
  Te  Te155  1  0.25267781  0.07925234  0.91666104  1
  Te  Te156  1  0.25657354  0.42321689  0.25103729  1
  Te  Te157  1  0.25932894  0.39731244  0.58153314  1
  Te  Te158  1  0.25476381  0.41782739  0.91852305  1
  Te  Te159  1  0.22983699  0.76249135  0.20470086  1
  Te  Te160  1  0.25232430  0.75905965  0.57426847  1
  Te  Te161  1  0.24704417  0.74127539  0.91181940  1
  Te  Te162  1  0.57918821  0.06743523  0.26460776  1
  Te  Te163  1  0.56920415  0.06887490  0.55929530  1
  Te  Te164  1  0.58149076  0.07690754  0.92659317  1
  Te  Te165  1  0.57766546  0.40405960  0.22778882  1
  Te  Te166  1  0.58218113  0.40518528  0.56784271  1
  Te  Te167  1  0.60373678  0.42145167  0.89137211  1
  Te  Te168  1  0.59934934  0.74953098  0.26089832  1
  Te  Te169  1  0.60791523  0.72768216  0.60569284  1
  Te  Te170  1  0.55754368  0.73953449  0.92794930  1
  Te  Te171  1  0.90811986  0.08649171  0.26214032  1
  Te  Te172  1  0.95423287  0.09109856  0.55895971  1
  Te  Te173  1  0.90422337  0.07672240  0.91245930  1
  Te  Te174  1  0.94685729  0.40003855  0.26124761  1
  Te  Te175  1  0.92063728  0.39488270  0.54211985  1
  Te  Te176  1  0.90251077  0.41811813  0.89062173  1
  Te  Te177  1  0.92330937  0.75813441  0.23228633  1
  Te  Te178  1  0.91909109  0.75960361  0.57753147  1
  Te  Te179  1  0.89920268  0.76211538  0.92766727  1
