# generated using pymatgen
data_In2Te3
_symmetry_space_group_name_H-M   'P 1'
_cell_length_a   18.92508280
_cell_length_b   18.93281095
_cell_length_c   18.93863977
_cell_angle_alpha   89.98990951
_cell_angle_beta   89.92985031
_cell_angle_gamma   89.99230089
_symmetry_Int_Tables_number   1
_chemical_formula_structural   In2Te3
_chemical_formula_sum   'In72 Te108'
_cell_volume   6785.80434798
_cell_formula_units_Z   36
loop_
 _symmetry_equiv_pos_site_id
 _symmetry_equiv_pos_as_xyz
  1  'x, y, z'
loop_
 _atom_site_type_symbol
 _atom_site_label
 _atom_site_symmetry_multiplicity
 _atom_site_fract_x
 _atom_site_fract_y
 _atom_site_fract_z
 _atom_site_occupancy
  In  In0  1  0.80957123  0.16562657  0.03822901  1
  In  In1  1  0.66244256  0.01147446  0.02376658  1
  In  In2  1  0.15652075  0.69440906  0.17898224  1
  In  In3  1  0.48427861  0.67684219  0.14580374  1
  In  In4  1  0.20133828  0.17745487  0.01181933  1
  In  In5  1  -0.00333987  -0.00562508  0.00994297  1
  In  In6  1  0.84471345  0.17543524  0.31802973  1
  In  In7  1  0.31777898  0.67326590  0.33913820  1
  In  In8  1  0.50730771  -0.01908361  0.84838996  1
  In  In9  1  0.16408077  0.49821038  0.02884535  1
  In  In10  1  -0.00812658  0.84724440  0.16254635  1
  In  In11  1  0.00360292  0.50618853  0.19187034  1
  In  In12  1  0.00647899  0.84936534  0.81444543  1
  In  In13  1  0.50521995  0.19200332  0.65048282  1
  In  In14  1  -0.01551858  0.49284548  0.47921137  1
  In  In15  1  0.16316412  0.33390164  0.84815175  1
  In  In16  1  0.48338266  0.84577430  0.30542982  1
  In  In17  1  0.46604754  0.63817201  0.52347577  1
  In  In18  1  0.17775914  0.14246762  0.65101704  1
  In  In19  1  0.81453936  0.50106472  0.66837989  1
  In  In20  1  0.22751498  -0.00704233  0.16895843  1
  In  In21  1  0.64577938  0.64942849  0.01052125  1
  In  In22  1  0.84944736  0.00026350  0.47278931  1
  In  In23  1  0.67349992  0.65181598  0.32400797  1
  In  In24  1  0.62463892  0.29234192  0.02413445  1
  In  In25  1  0.67170022  0.47108638  0.85820160  1
  In  In26  1  0.49668570  0.65765559  0.83643041  1
  In  In27  1  0.64511332  0.37074989  0.64693407  1
  In  In28  1  0.84568122  0.83045498  -0.02120564  1
  In  In29  1  0.83976994  0.65825475  0.48648293  1
  In  In30  1  0.31924965  0.85350522  0.48147741  1
  In  In31  1  0.00377406  0.32784757  0.67915450  1
  In  In32  1  0.18139055  0.68455290  0.48786960  1
  In  In33  1  0.18614159  0.02792386  0.83620793  1
  In  In34  1  0.65133002  0.33409047  0.32529009  1
  In  In35  1  0.34834210  0.01323561  0.65543570  1
  In  In36  1  0.17606553  0.32631119  0.17193817  1
  In  In37  1  0.66488097  0.80178336  0.84316711  1
  In  In38  1  0.47589543  0.00666691  0.47813441  1
  In  In39  1  0.17863916  0.51140834  0.67869206  1
  In  In40  1  0.81172375  0.45610894  0.00510912  1
  In  In41  1  0.16980815  0.65619135  0.81279646  1
  In  In42  1  0.64177447  0.16810854  0.82670860  1
  In  In43  1  0.65755680  -0.01388072  0.66041742  1
  In  In44  1  0.35487795  0.47893862  0.14961297  1
  In  In45  1  0.36764857  0.19683176  0.84847638  1
  In  In46  1  0.68626262  0.86763499  0.18708639  1
  In  In47  1  0.69175301  0.16059169  0.47362003  1
  In  In48  1  0.02638521  0.01554189  0.33630106  1
  In  In49  1  0.84602099  0.14209606  0.63726706  1
  In  In50  1  0.33505231  0.69167996  -0.00138500  1
  In  In51  1  0.46498044  0.00794893  0.16270187  1
  In  In52  1  0.05322340  0.85165146  0.48301284  1
  In  In53  1  0.00172334  0.17351427  0.14668603  1
  In  In54  1  0.00011078  0.32357518  0.33242319  1
  In  In55  1  0.49435302  0.48543163  0.34384720  1
  In  In56  1  0.82655123  0.67555439  0.15899512  1
  In  In57  1  0.67569421  0.66396022  0.66681783  1
  In  In58  1  -0.03802268  0.50705132  0.86279977  1
  In  In59  1  0.33900093  0.34019903  0.32319280  1
  In  In60  1  0.65137422  0.82568833  0.48559435  1
  In  In61  1  0.83482693  0.68345384  0.82862405  1
  In  In62  1  0.02064883  0.17478137  0.83422094  1
  In  In63  1  0.50771785  0.17100376  0.31906263  1
  In  In64  1  0.02280515  0.65724198  0.04658087  1
  In  In65  1  0.00963194  0.68950630  0.64052238  1
  In  In66  1  0.81774021  0.32402870  0.47681782  1
  In  In67  1  0.34153434  0.83638663  0.83711049  1
  In  In68  1  0.31208025  0.49347590  0.84036229  1
  In  In69  1  0.34189550  0.32860355  0.67100966  1
  In  In70  1  0.85333457  -0.00223221  0.82878036  1
  In  In71  1  0.18465520  0.31067891  0.48393105  1
  Te  Te72  1  0.10704837  0.07419653  0.07899358  1
  Te  Te73  1  0.12032731  0.06494066  0.44211343  1
  Te  Te74  1  0.07518583  0.07128066  0.74002542  1
  Te  Te75  1  0.06787937  0.40477538  0.09640135  1
  Te  Te76  1  0.09406331  0.41264071  0.41197925  1
  Te  Te77  1  0.07673828  0.43039040  0.76589703  1
  Te  Te78  1  0.09883463  0.78442211  0.07016720  1
  Te  Te79  1  0.08073041  0.73641532  0.39530604  1
  Te  Te80  1  0.10360507  0.76614529  0.72999672  1
  Te  Te81  1  0.41253944  0.13090568  0.09578406  1
  Te  Te82  1  0.39499926  0.09411730  0.38639212  1
  Te  Te83  1  0.43769951  0.08876453  0.75402242  1
  Te  Te84  1  0.42691702  0.39994013  0.04882505  1
  Te  Te85  1  0.41355119  0.40234199  0.43683931  1
  Te  Te86  1  0.41380798  0.41615693  0.76533610  1
  Te  Te87  1  0.37716557  0.77964730  0.11465639  1
  Te  Te88  1  0.42815691  0.75718235  0.41707202  1
  Te  Te89  1  0.42653690  0.75308967  0.75061392  1
  Te  Te90  1  0.72622467  0.08872335  0.13281932  1
  Te  Te91  1  0.74428757  0.05904366  0.37319787  1
  Te  Te92  1  0.74128428  0.07982959  0.74862861  1
  Te  Te93  1  0.71803187  0.38608159  0.09268450  1
  Te  Te94  1  0.72387404  0.41958881  0.42262561  1
  Te  Te95  1  0.75291256  0.39431292  0.75519962  1
  Te  Te96  1  0.73927317  0.76213303  0.06675132  1
  Te  Te97  1  0.75524862  0.75415798  0.40021869  1
  Te  Te98  1  0.76427993  0.77150270  0.72913092  1
  Te  Te99  1  0.09208613  0.22974002  0.25494359  1
  Te  Te100  1  0.08721321  0.24507771  0.58372990  1
  Te  Te101  1  0.08207285  0.25280202  0.94726793  1
  Te  Te102  1  0.09220281  0.59512295  0.26779235  1
  Te  Te103  1  0.07571422  0.56692817  0.58004584  1
  Te  Te104  1  0.08991835  0.57601398  0.91839872  1
  Te  Te105  1  0.09883329  0.93178562  0.23115734  1
  Te  Te106  1  0.06922594  0.95755260  0.58177678  1
  Te  Te107  1  0.09176830  0.93129101  0.90962495  1
  Te  Te108  1  0.45100477  0.28490205  0.23713622  1
  Te  Te109  1  0.38343350  0.22342937  0.57701848  1
  Te  Te110  1  0.43717794  0.29125973  0.93589211  1
  Te  Te111  1  0.41259145  0.58705289  0.24857149  1
  Te  Te112  1  0.46199434  0.52877040  0.62277046  1
  Te  Te113  1  0.40740995  0.57809433  0.92987985  1
  Te  Te114  1  0.37812937  0.95147151  0.27872582  1
  Te  Te115  1  0.42847838  0.90828324  0.58170022  1
  Te  Te116  1  0.41279584  0.91531340  0.94200801  1
  Te  Te117  1  0.74224543  0.24904259  0.24434937  1
  Te  Te118  1  0.73823172  0.24811677  0.59401110  1
  Te  Te119  1  0.73164308  0.23733603  0.92611120  1
  Te  Te120  1  0.74376973  0.57230659  0.22329377  1
  Te  Te121  1  0.73602380  0.57235086  0.56169755  1
  Te  Te122  1  0.75477535  0.59061409  0.91766290  1
  Te  Te123  1  0.76350387  0.92229604  0.29619484  1
  Te  Te124  1  0.74731581  0.92065115  0.55847409  1
  Te  Te125  1  0.73946229  0.92457818  0.91028116  1
  Te  Te126  1  0.28671419  0.24449345  0.11277619  1
  Te  Te127  1  0.25165281  0.23330995  0.37837093  1
  Te  Te128  1  0.23980319  0.23600768  0.76212060  1
  Te  Te129  1  0.25598044  0.59691424  0.09546740  1
  Te  Te130  1  0.27888827  0.58188814  0.44775332  1
  Te  Te131  1  0.28599858  0.60318007  0.73116346  1
  Te  Te132  1  0.30176660  0.91140856  0.07177751  1
  Te  Te133  1  0.19827126  0.93398131  0.43331176  1
  Te  Te134  1  0.25922432  0.93044926  0.74655240  1
  Te  Te135  1  0.53959359  0.20897922  0.12340040  1
  Te  Te136  1  0.57787159  0.24826168  0.43083110  1
  Te  Te137  1  0.57253076  0.28029884  0.75212662  1
  Te  Te138  1  0.57958179  0.56755627  0.11238383  1
  Te  Te139  1  0.56995441  0.59234057  0.42027186  1
  Te  Te140  1  0.60413858  0.57465572  0.76626034  1
  Te  Te141  1  0.57301806  0.91331822  0.09711720  1
  Te  Te142  1  0.57511368  0.92462527  0.39758850  1
  Te  Te143  1  0.58057936  0.89132305  0.75011220  1
  Te  Te144  1  0.89975763  0.26515967  0.09616261  1
  Te  Te145  1  0.92729545  0.23002190  0.43241775  1
  Te  Te146  1  0.90914643  0.23128852  0.74780826  1
  Te  Te147  1  0.90491079  0.56716515  0.07122636  1
  Te  Te148  1  0.89856165  0.56598460  0.38768973  1
  Te  Te149  1  0.91715007  0.59445019  0.73242350  1
  Te  Te150  1  0.88390782  0.92887305  0.08751763  1
  Te  Te151  1  0.93610469  0.90728895  0.39253795  1
  Te  Te152  1  0.90823963  0.91092389  0.72541997  1
  Te  Te153  1  0.29110359  0.08934517  0.26183124  1
  Te  Te154  1  0.25354597  0.06265685  0.54989189  1
  Te  Te155  1  0.29133138  0.08932998  0.92639983  1
  Te  Te156  1  0.24643366  0.43793696  0.24697803  1
  Te  Te157  1  0.24336906  0.40964385  0.58878413  1
  Te  Te158  1  0.25144223  0.40325302  0.94895788  1
  Te  Te159  1  0.24241875  0.77540056  0.26633240  1
  Te  Te160  1  0.24315982  0.77825383  0.58185737  1
  Te  Te161  1  0.23149021  0.75606527  0.90908858  1
  Te  Te162  1  0.58009472  0.07055751  0.23623018  1
  Te  Te163  1  0.58497880  0.08147121  0.56673351  1
  Te  Te164  1  0.56716645  0.09047079  0.93466304  1
  Te  Te165  1  0.57467084  0.42539591  0.23504407  1
  Te  Te166  1  0.52802374  0.40856093  0.56337290  1
  Te  Te167  1  0.56760728  0.41330477  0.94770713  1
  Te  Te168  1  0.58863897  0.75206803  0.23678477  1
  Te  Te169  1  0.57453954  0.73647850  0.58171823  1
  Te  Te170  1  0.55969452  0.75295503  0.94012393  1
  Te  Te171  1  0.92746217  0.07769762  0.23744220  1
  Te  Te172  1  0.95065850  0.05948687  0.56894547  1
  Te  Te173  1  0.91525917  0.09474431  0.92815113  1
  Te  Te174  1  0.91126303  0.41305521  0.25823550  1
  Te  Te175  1  0.90758089  0.40490448  0.58732572  1
  Te  Te176  1  0.90086745  0.38507491  0.91155726  1
  Te  Te177  1  0.92762300  0.74200737  0.24116148  1
  Te  Te178  1  0.91897295  0.76608769  0.55453041  1
  Te  Te179  1  0.94978402  0.74068424  0.91368494  1
