# generated using pymatgen
data_In2Te3
_symmetry_space_group_name_H-M   'P 1'
_cell_length_a   18.78874757
_cell_length_b   18.78988187
_cell_length_c   18.78843475
_cell_angle_alpha   89.96388781
_cell_angle_beta   89.98802986
_cell_angle_gamma   89.83255828
_symmetry_Int_Tables_number   1
_chemical_formula_structural   In2Te3
_chemical_formula_sum   'In72 Te108'
_cell_volume   6633.00816950
_cell_formula_units_Z   36
loop_
 _symmetry_equiv_pos_site_id
 _symmetry_equiv_pos_as_xyz
  1  'x, y, z'
loop_
 _atom_site_type_symbol
 _atom_site_label
 _atom_site_symmetry_multiplicity
 _atom_site_fract_x
 _atom_site_fract_y
 _atom_site_fract_z
 _atom_site_occupancy
  In  In0  1  0.49032894  0.68455455  0.15883943  1
  In  In1  1  -0.00135060  0.84010983  0.82869725  1
  In  In2  1  0.02615816  0.33992370  0.33349988  1
  In  In3  1  0.00214918  0.19583766  0.84889959  1
  In  In4  1  0.33310076  0.00082711  -0.00620320  1
  In  In5  1  0.82270012  -0.03657397  0.48593473  1
  In  In6  1  0.20664447  0.68368140  0.84341900  1
  In  In7  1  0.65710159  0.00038475  0.33217800  1
  In  In8  1  0.49009589  0.14916492  0.32849633  1
  In  In9  1  0.85863688  0.68041179  0.50585400  1
  In  In10  1  0.47798497  0.32268599  0.49683752  1
  In  In11  1  0.17811346  0.17018435  0.31041717  1
  In  In12  1  0.64861554  -0.01810156  0.00126887  1
  In  In13  1  0.81564208  0.17468805  -0.01472640  1
  In  In14  1  0.66516787  0.31046574  0.68706397  1
  In  In15  1  0.50996351  0.65344500  0.50590512  1
  In  In16  1  -0.00836720  0.51047240  0.14284750  1
  In  In17  1  0.67699729  0.69272612  0.03449987  1
  In  In18  1  0.82298069  0.85022704  0.33812099  1
  In  In19  1  0.17297012  0.17195182  0.67816444  1
  In  In20  1  0.82625412  0.14096835  0.67442762  1
  In  In21  1  -0.00620484  0.68265933  0.34005275  1
  In  In22  1  0.34320708  0.16203930  0.15705756  1
  In  In23  1  0.83353651  0.66917669  0.82470094  1
  In  In24  1  -0.00472131  0.66485850  0.01108223  1
  In  In25  1  0.34540149  0.14003765  0.51838486  1
  In  In26  1  0.17744911  0.50418073  -0.00801240  1
  In  In27  1  0.83132100  0.49044013  -0.00596457  1
  In  In28  1  0.49127317  0.33005958  0.83368163  1
  In  In29  1  0.82478448  0.33798329  0.16906603  1
  In  In30  1  0.19510928  0.33897116  0.81222514  1
  In  In31  1  0.00605898  0.34705177  -0.00883925  1
  In  In32  1  0.18201513  0.50733414  0.33706742  1
  In  In33  1  0.00743783  -0.01784269  0.66088772  1
  In  In34  1  0.01477994  0.19455182  0.52416624  1
  In  In35  1  0.83311176  -0.00476221  0.18309751  1
  In  In36  1  0.81282780  -0.01052791  0.83110807  1
  In  In37  1  0.00195874  0.83075410  0.16911088  1
  In  In38  1  0.63467936  0.13463533  0.51298599  1
  In  In39  1  0.63879350  0.65751125  0.68398968  1
  In  In40  1  0.19242178  0.66509964  0.15815828  1
  In  In41  1  0.67168579  0.33836595  0.31664397  1
  In  In42  1  0.49503654  0.49470236  0.67847793  1
  In  In43  1  0.33579163  0.32282065  0.00982211  1
  In  In44  1  0.17767911  0.00781324  0.49231921  1
  In  In45  1  0.00623018  0.34558686  0.66293519  1
  In  In46  1  0.34612717  0.32532481  0.33027994  1
  In  In47  1  0.85027848  0.51315506  0.65964620  1
  In  In48  1  0.48949387  0.84990780  0.29710211  1
  In  In49  1  0.18352433  0.00938706  0.15511072  1
  In  In50  1  0.81779281  0.35874454  0.50940296  1
  In  In51  1  0.18217586  0.85024683  0.67643862  1
  In  In52  1  0.64143996  0.84064670  0.82385448  1
  In  In53  1  0.15731246  0.81708851  0.34075102  1
  In  In54  1  0.02527990  -0.00917962  0.00265913  1
  In  In55  1  0.65236935  0.50647490  0.48541537  1
  In  In56  1  0.35086349  0.84152496  0.52220161  1
  In  In57  1  0.50870789  0.17717561  0.02216232  1
  In  In58  1  0.65097808  0.47617899  0.83859394  1
  In  In59  1  0.65496524  0.14955474  0.83271890  1
  In  In60  1  0.49123936  0.83864049  -0.00967612  1
  In  In61  1  0.14628520  0.51761696  0.63581392  1
  In  In62  1  0.66798608  0.53470687  0.17480842  1
  In  In63  1  0.64925687  0.82370231  0.50657611  1
  In  In64  1  0.32106425  0.67188662  0.33601901  1
  In  In65  1  0.83725350  0.18203110  0.31643918  1
  In  In66  1  0.19682511  -0.00113889  0.82409121  1
  In  In67  1  -0.03273895  0.00136073  0.34478482  1
  In  In68  1  0.50298662  0.48540456  0.34699675  1
  In  In69  1  0.34972815  0.67791557  0.69272830  1
  In  In70  1  0.33969697  0.47616461  0.15852459  1
  In  In71  1  0.83241645  0.32589951  0.87388462  1
  Te  Te72  1  0.09327961  0.09697701  0.07642844  1
  Te  Te73  1  0.07634579  0.09427829  0.41566168  1
  Te  Te74  1  0.06661164  0.08604320  0.75565501  1
  Te  Te75  1  0.09941179  0.41633225  0.09019799  1
  Te  Te76  1  0.09776318  0.42599987  0.42987275  1
  Te  Te77  1  0.08583785  0.43027335  0.75754229  1
  Te  Te78  1  0.09860751  0.75669995  0.07627375  1
  Te  Te79  1  0.10734891  0.71095571  0.43486174  1
  Te  Te80  1  0.09483536  0.75109966  0.75263937  1
  Te  Te81  1  0.43632343  0.06032308  0.09202412  1
  Te  Te82  1  0.42544902  0.05653550  0.42412686  1
  Te  Te83  1  0.44559395  0.04953420  0.71900043  1
  Te  Te84  1  0.44095835  0.40862758  0.07277758  1
  Te  Te85  1  0.39030527  0.43107699  0.43342184  1
  Te  Te86  1  0.39867573  0.40685635  0.74583317  1
  Te  Te87  1  0.39242124  0.76400187  0.07720372  1
  Te  Te88  1  0.42770718  0.75117881  0.41576578  1
  Te  Te89  1  0.42033918  0.77379466  0.78285522  1
  Te  Te90  1  0.75127288  0.07024385  0.07524368  1
  Te  Te91  1  0.76057939  0.08511172  0.41051379  1
  Te  Te92  1  0.71580193  0.05314166  0.72913147  1
  Te  Te93  1  0.73122078  0.42184944  0.08302838  1
  Te  Te94  1  0.76133546  0.44024998  0.38844140  1
  Te  Te95  1  0.76008213  0.41488521  0.74803376  1
  Te  Te96  1  0.77903112  0.75101869  0.11905747  1
  Te  Te97  1  0.74577758  0.74668221  0.41879453  1
  Te  Te98  1  0.74164459  0.75632400  0.73788988  1
  Te  Te99  1  0.07589787  0.24365611  0.23367762  1
  Te  Te100  1  0.13044499  0.28468654  0.57951094  1
  Te  Te101  1  0.11407274  0.26219850  0.92259995  1
  Te  Te102  1  0.08308457  0.59273192  0.23938045  1
  Te  Te103  1  0.04908629  0.61491710  0.57145757  1
  Te  Te104  1  0.09025896  0.59873874  0.91230002  1
  Te  Te105  1  0.07960018  0.92968672  0.25829782  1
  Te  Te106  1  0.08970575  0.90162054  0.56321332  1
  Te  Te107  1  0.11002202  0.90501816  0.91069337  1
  Te  Te108  1  0.43911941  0.25729531  0.23172503  1
  Te  Te109  1  0.40228840  0.25086175  0.60009561  1
  Te  Te110  1  0.41144855  0.22751140  0.91625064  1
  Te  Te111  1  0.41084096  0.57652425  0.25391741  1
  Te  Te112  1  0.40776540  0.57773096  0.58536262  1
  Te  Te113  1  0.36347474  0.65482342  0.86753420  1
  Te  Te114  1  0.39574286  0.95256264  0.25253063  1
  Te  Te115  1  0.42486073  0.93396574  0.61360840  1
  Te  Te116  1  0.41136436  0.92049571  0.88912822  1
  Te  Te117  1  0.72366618  0.22646588  0.22468212  1
  Te  Te118  1  0.74832992  0.23799101  0.57551705  1
  Te  Te119  1  0.70059265  0.26537002  0.92681059  1
  Te  Te120  1  0.76623148  0.56160867  0.27954187  1
  Te  Te121  1  0.73747749  0.58919803  0.58248845  1
  Te  Te122  1  0.73953125  0.58264690  0.91073236  1
  Te  Te123  1  0.72368579  0.90237691  0.23377123  1
  Te  Te124  1  0.73618166  0.91001975  0.59104420  1
  Te  Te125  1  0.74711540  0.89145982  0.92588710  1
  Te  Te126  1  0.24107503  0.24986937  0.09803845  1
  Te  Te127  1  0.26310842  0.23297965  0.41866249  1
  Te  Te128  1  0.28367514  0.23446443  0.75302388  1
  Te  Te129  1  0.28409924  0.58517785  0.06552293  1
  Te  Te130  1  0.25042830  0.59209831  0.43815077  1
  Te  Te131  1  0.24606993  0.57083570  0.73935732  1
  Te  Te132  1  0.24719665  0.90611801  0.07120035  1
  Te  Te133  1  0.25993371  0.90480795  0.41544725  1
  Te  Te134  1  0.29093262  0.88862183  0.77598595  1
  Te  Te135  1  0.62844473  0.24280281  0.07482715  1
  Te  Te136  1  0.58883490  0.25421446  0.41556104  1
  Te  Te137  1  0.55622435  0.22196901  0.73785888  1
  Te  Te138  1  0.56856528  0.58892204  0.06913907  1
  Te  Te139  1  0.59107526  0.60442858  0.38553960  1
  Te  Te140  1  0.55329872  0.58494740  0.78584350  1
  Te  Te141  1  0.57523647  0.89793706  0.09815249  1
  Te  Te142  1  0.56593796  0.91658924  0.41967930  1
  Te  Te143  1  0.55016894  0.94052557  0.76261648  1
  Te  Te144  1  0.91252588  0.25648258  0.07216971  1
  Te  Te145  1  0.91309462  0.26107178  0.42269637  1
  Te  Te146  1  0.90173066  0.25603288  0.74333138  1
  Te  Te147  1  0.87935505  0.60000322  0.09000598  1
  Te  Te148  1  0.90723850  0.58213337  0.40619170  1
  Te  Te149  1  0.93725883  0.59388439  0.74830023  1
  Te  Te150  1  0.91499214  0.91721111  0.07706932  1
  Te  Te151  1  0.94030196  0.88001714  0.43413584  1
  Te  Te152  1  0.89788449  0.90491780  0.73306847  1
  Te  Te153  1  0.28225378  0.06167897  0.26694812  1
  Te  Te154  1  0.25297110  0.05717786  0.61455470  1
  Te  Te155  1  0.25342915  0.09921311  0.91431037  1
  Te  Te156  1  0.24162758  0.39922593  0.24607621  1
  Te  Te157  1  0.22396787  0.40899652  0.57308399  1
  Te  Te158  1  0.27764057  0.42530298  0.90925395  1
  Te  Te159  1  0.26338497  0.77427767  0.23882544  1
  Te  Te160  1  0.25585192  0.74650487  0.59071186  1
  Te  Te161  1  0.28812552  0.76292045  0.94282172  1
  Te  Te162  1  0.57777072  0.07706653  0.23404653  1
  Te  Te163  1  0.53444980  0.05755102  0.58991775  1
  Te  Te164  1  0.55825666  0.07102574  0.91791585  1
  Te  Te165  1  0.57569915  0.41979132  0.23171116  1
  Te  Te166  1  0.59010787  0.40701518  0.58492372  1
  Te  Te167  1  0.55369572  0.41970324  0.93540967  1
  Te  Te168  1  0.58736814  0.74903029  0.24937956  1
  Te  Te169  1  0.55338654  0.75865956  0.60798514  1
  Te  Te170  1  0.58516485  0.73762606  0.92133169  1
  Te  Te171  1  0.93361950  0.10023711  0.23087155  1
  Te  Te172  1  0.91949719  0.07570163  0.57187518  1
  Te  Te173  1  0.91356998  0.07782567  0.90630596  1
  Te  Te174  1  0.92516773  0.42174678  0.24742055  1
  Te  Te175  1  0.93863553  0.43679029  0.55958862  1
  Te  Te176  1  0.93372116  0.43921285  0.89315173  1
  Te  Te177  1  0.89281102  0.74850055  0.23907544  1
  Te  Te178  1  0.94550112  0.71923039  0.61785279  1
  Te  Te179  1  0.91032523  0.75804269  0.92306498  1
