# generated using pymatgen
data_In2Te3
_symmetry_space_group_name_H-M   'P 1'
_cell_length_a   18.76600250
_cell_length_b   18.76719484
_cell_length_c   18.77041012
_cell_angle_alpha   89.99665758
_cell_angle_beta   90.04680200
_cell_angle_gamma   89.98981565
_symmetry_Int_Tables_number   1
_chemical_formula_structural   In2Te3
_chemical_formula_sum   'In72 Te108'
_cell_volume   6610.65879721
_cell_formula_units_Z   36
loop_
 _symmetry_equiv_pos_site_id
 _symmetry_equiv_pos_as_xyz
  1  'x, y, z'
loop_
 _atom_site_type_symbol
 _atom_site_label
 _atom_site_symmetry_multiplicity
 _atom_site_fract_x
 _atom_site_fract_y
 _atom_site_fract_z
 _atom_site_occupancy
  In  In0  1  0.83578509  0.63756717  0.83491834  1
  In  In1  1  0.16947151  0.65677275  0.16827761  1
  In  In2  1  0.49688900  0.66697288  0.85240986  1
  In  In3  1  0.12535784  0.18287256  -0.02293767  1
  In  In4  1  0.47776551  0.83262448  0.69222645  1
  In  In5  1  0.66161134  -0.01243766  0.67250003  1
  In  In6  1  0.14058184  0.81707461  0.65709614  1
  In  In7  1  0.84481618  0.16258124  -0.00210856  1
  In  In8  1  0.83209525  0.67632458  0.17785529  1
  In  In9  1  -0.00488281  0.16114351  0.15032152  1
  In  In10  1  -0.01187229  -0.00247635  0.31348044  1
  In  In11  1  0.63285731  0.80263253  0.18690699  1
  In  In12  1  0.01168520  0.83064556  0.51815223  1
  In  In13  1  0.66747676  0.34207034  0.00414523  1
  In  In14  1  0.34896576  0.15143732  0.47739086  1
  In  In15  1  0.34984593  0.50861849  0.15582140  1
  In  In16  1  0.16246122  0.65158420  0.51335949  1
  In  In17  1  0.51349387  0.00044478  0.18018651  1
  In  In18  1  0.34459614  0.35497132  -0.00433165  1
  In  In19  1  0.84548320  0.18439344  0.66705919  1
  In  In20  1  0.83539374  0.82196413  0.34972278  1
  In  In21  1  0.00640194  0.83389361  0.83450421  1
  In  In22  1  0.31383016  -0.01108282  0.64350854  1
  In  In23  1  0.51060164  0.01913687  0.82765989  1
  In  In24  1  0.17392397  0.50151217  0.34709356  1
  In  In25  1  0.32598095  0.17780253  0.19010071  1
  In  In26  1  0.15603499  -0.03279707  0.49217810  1
  In  In27  1  0.68121882  0.17030672  0.47972535  1
  In  In28  1  0.01443392  0.64404255  -0.02148506  1
  In  In29  1  0.00762468  0.49175771  0.15512297  1
  In  In30  1  0.65877979  0.18020116  0.83297885  1
  In  In31  1  0.14180849  0.00088360  0.82727589  1
  In  In32  1  0.00023056  0.18324297  0.50935435  1
  In  In33  1  0.32316256  0.35300656  0.66017908  1
  In  In34  1  0.84706401  0.80432034  0.65284597  1
  In  In35  1  0.82258219  0.83833210  0.02296159  1
  In  In36  1  0.48603565  0.50259742  0.65557893  1
  In  In37  1  0.83120711  0.34994460  0.51245988  1
  In  In38  1  0.31978443  -0.01377319  0.00985228  1
  In  In39  1  0.50553004  0.82568659  -0.00236272  1
  In  In40  1  0.35509163  0.33558305  0.33374758  1
  In  In41  1  -0.01775366  0.83385975  0.16248293  1
  In  In42  1  0.30142202  0.52431796  0.82715945  1
  In  In43  1  0.86552190  0.37105291  0.83451106  1
  In  In44  1  0.67275061  0.82737118  0.49282409  1
  In  In45  1  0.51105956  0.33846028  0.47665314  1
  In  In46  1  0.50289429  0.49085745  0.33229018  1
  In  In47  1  0.51948416  0.18797643  0.67228070  1
  In  In48  1  0.15216056  0.16737947  0.68723178  1
  In  In49  1  0.68447794  0.00548189  0.33293965  1
  In  In50  1  0.33516845  0.81874453  0.47335378  1
  In  In51  1  0.18321676  0.83790729  0.33257168  1
  In  In52  1  0.66867091  0.48612020  0.49869219  1
  In  In53  1  0.00276580  0.33789645  0.35261031  1
  In  In54  1  0.50087415  0.01093179  0.45886432  1
  In  In55  1  0.68809916  0.66035006  0.66894388  1
  In  In56  1  0.32188350  0.66234245  0.00250297  1
  In  In57  1  0.51431234  0.18149858  0.00872775  1
  In  In58  1  0.84448173  -0.00433535  0.85652420  1
  In  In59  1  0.64513116  0.52097132  0.14568686  1
  In  In60  1  0.16469514  0.33387050  0.13986528  1
  In  In61  1  0.18541860  0.15120376  0.31487708  1
  In  In62  1  0.32729431  0.18559433  0.82445756  1
  In  In63  1  0.67817788  0.48888461  0.85179912  1
  In  In64  1  0.16536732  0.36310259  0.50200972  1
  In  In65  1  0.84709852  0.52445818  0.34973097  1
  In  In66  1  0.86241863  0.49564553  0.67777586  1
  In  In67  1  0.49200194  0.66293248  0.50174143  1
  In  In68  1  0.80294180  0.31191565  0.17793769  1
  In  In69  1  0.34908533  0.82948810  0.15505041  1
  In  In70  1  0.32453040  0.79945191  0.84195522  1
  In  In71  1  0.83125042  0.01045152  0.16182957  1
  Te  Te72  1  0.10359125  0.08501980  0.08560802  1
  Te  Te73  1  0.08073343  0.08347186  0.40865007  1
  Te  Te74  1  0.04609853  0.08997876  0.75705609  1
  Te  Te75  1  0.07042841  0.40518892  0.05110534  1
  Te  Te76  1  0.05834066  0.45173585  0.43623588  1
  Te  Te77  1  0.03568673  0.41451652  0.80345913  1
  Te  Te78  1  0.07556837  0.74090182  0.08234228  1
  Te  Te79  1  0.09071605  0.74994305  0.41448532  1
  Te  Te80  1  0.07657222  0.72651791  0.75565767  1
  Te  Te81  1  0.42006744  0.07969137  0.07938530  1
  Te  Te82  1  0.43141109  0.10257484  0.36582194  1
  Te  Te83  1  0.40749666  0.08426257  0.73246768  1
  Te  Te84  1  0.43629231  0.40086945  0.10269613  1
  Te  Te85  1  0.39892181  0.43366768  0.44019646  1
  Te  Te86  1  0.40666012  0.42877146  0.76288071  1
  Te  Te87  1  0.44395204  0.71693994  0.08851450  1
  Te  Te88  1  0.44183868  0.75360466  0.38905053  1
  Te  Te89  1  0.39965992  0.71190446  0.74125370  1
  Te  Te90  1  0.74194815  0.09615379  0.08121512  1
  Te  Te91  1  0.77418746  0.06586244  0.43380559  1
  Te  Te92  1  0.75029199  0.08439072  0.75195282  1
  Te  Te93  1  0.76209336  0.42785047  0.08705405  1
  Te  Te94  1  0.75145596  0.41053208  0.39693698  1
  Te  Te95  1  0.75055352  0.41215010  0.74116127  1
  Te  Te96  1  0.72594947  0.73544402  0.08553615  1
  Te  Te97  1  0.74884228  0.72423512  0.41935033  1
  Te  Te98  1  0.75699850  0.75389898  0.76605625  1
  Te  Te99  1  0.08326502  0.25515071  0.25129717  1
  Te  Te100  1  0.08272026  0.27589704  0.59831346  1
  Te  Te101  1  0.05811878  0.27041027  0.87795592  1
  Te  Te102  1  0.07409148  0.58106457  0.26062368  1
  Te  Te103  1  0.09805284  0.56700072  0.61777393  1
  Te  Te104  1  0.08346055  0.54585629  0.88898582  1
  Te  Te105  1  0.09050527  0.91558563  0.23679160  1
  Te  Te106  1  0.06622447  0.94281026  0.61055582  1
  Te  Te107  1  0.09284621  0.90747146  0.92995117  1
  Te  Te108  1  0.43736139  0.26480264  0.23346900  1
  Te  Te109  1  0.41084042  0.25047098  0.57902459  1
  Te  Te110  1  0.43078394  0.26026609  0.90687749  1
  Te  Te111  1  0.41876579  0.59051324  0.25887068  1
  Te  Te112  1  0.39202454  0.58482219  0.57709462  1
  Te  Te113  1  0.41532350  0.56552467  0.93052012  1
  Te  Te114  1  0.41921470  0.91406819  0.25400851  1
  Te  Te115  1  0.43011864  0.91637689  0.57170472  1
  Te  Te116  1  0.41587438  0.91621789  0.90312754  1
  Te  Te117  1  0.71325760  0.22632433  0.26032106  1
  Te  Te118  1  0.73491450  0.25887821  0.59213674  1
  Te  Te119  1  0.76714583  0.26192512  0.90639704  1
  Te  Te120  1  0.74241869  0.58323738  0.25532781  1
  Te  Te121  1  0.76767679  0.57445835  0.57400372  1
  Te  Te122  1  0.75625213  0.57550775  0.94206781  1
  Te  Te123  1  0.75727659  0.89674429  0.23844534  1
  Te  Te124  1  0.76037011  0.91421710  0.58237629  1
  Te  Te125  1  0.74199997  0.91967187  0.92929797  1
  Te  Te126  1  0.25623739  0.23724529  0.06358101  1
  Te  Te127  1  0.24189536  0.25943815  0.41793637  1
  Te  Te128  1  0.22874318  0.28047855  0.75826752  1
  Te  Te129  1  0.23183125  0.55677990  0.07190365  1
  Te  Te130  1  0.26101812  0.59769049  0.41633615  1
  Te  Te131  1  0.20893912  0.58862431  0.72689734  1
  Te  Te132  1  0.23925589  0.87673566  0.06619689  1
  Te  Te133  1  0.27569893  0.94085529  0.40290906  1
  Te  Te134  1  0.24722454  0.90644878  0.75217588  1
  Te  Te135  1  0.60135410  0.25352751  0.10438778  1
  Te  Te136  1  0.58968897  0.24702740  0.39049197  1
  Te  Te137  1  0.57417202  0.28363163  0.76889940  1
  Te  Te138  1  0.55418232  0.60702298  0.06569536  1
  Te  Te139  1  0.59234134  0.58699041  0.41550784  1
  Te  Te140  1  0.58679440  0.57963616  0.74993679  1
  Te  Te141  1  0.59540957  0.91386549  0.08522886  1
  Te  Te142  1  0.58625425  0.90374816  0.39208295  1
  Te  Te143  1  0.58993399  0.89823999  0.77336725  1
  Te  Te144  1  0.91718247  0.27045496  0.07940245  1
  Te  Te145  1  0.89758519  0.24869356  0.41592538  1
  Te  Te146  1  0.93676358  0.25536597  0.76409316  1
  Te  Te147  1  0.91361014  0.58893902  0.08286163  1
  Te  Te148  1  0.90899846  0.60660857  0.45501521  1
  Te  Te149  1  0.94567892  0.60487119  0.73931439  1
  Te  Te150  1  0.92982423  0.94087548  0.06778534  1
  Te  Te151  1  0.92269311  0.91959958  0.42742259  1
  Te  Te152  1  0.91044215  0.91140961  0.74452497  1
  Te  Te153  1  0.25147856  0.05492173  0.22453765  1
  Te  Te154  1  0.23228914  0.09786868  0.57264176  1
  Te  Te155  1  0.24932195  0.08454595  0.90771603  1
  Te  Te156  1  0.24734708  0.40985186  0.24524269  1
  Te  Te157  1  0.22586601  0.45703524  0.60629232  1
  Te  Te158  1  0.23936567  0.42044627  0.91511149  1
  Te  Te159  1  0.26656596  0.73843329  0.25179642  1
  Te  Te160  1  0.25964826  0.75393144  0.58607591  1
  Te  Te161  1  0.22032244  0.72906651  0.91709468  1
  Te  Te162  1  0.61805369  0.09870905  0.23456392  1
  Te  Te163  1  0.57840880  0.07924869  0.57994516  1
  Te  Te164  1  0.60218800  0.07889683  0.93285366  1
  Te  Te165  1  0.59147647  0.41846368  0.23929787  1
  Te  Te166  1  0.58443582  0.40259267  0.59404946  1
  Te  Te167  1  0.57020551  0.42646381  0.93111688  1
  Te  Te168  1  0.54435056  0.72049182  0.27246124  1
  Te  Te169  1  0.58221284  0.75333167  0.60028173  1
  Te  Te170  1  0.60289685  0.74096302  0.92255853  1
  Te  Te171  1  0.89999055  0.10885313  0.25775156  1
  Te  Te172  1  0.91469233  0.08636568  0.58043251  1
  Te  Te173  1  0.94454737  0.08850989  0.91487436  1
  Te  Te174  1  0.91260110  0.41194716  0.25115590  1
  Te  Te175  1  0.94307190  0.40404067  0.59282442  1
  Te  Te176  1  0.94687884  0.46668066  0.91676782  1
  Te  Te177  1  0.93658559  0.73767863  0.27122488  1
  Te  Te178  1  0.93437170  0.71084522  0.57203352  1
  Te  Te179  1  0.90837318  0.75109673  0.92894891  1
