# generated using pymatgen
data_In2Te3
_symmetry_space_group_name_H-M   'P 1'
_cell_length_a   18.83454488
_cell_length_b   18.83090671
_cell_length_c   18.83023651
_cell_angle_alpha   89.96850754
_cell_angle_beta   90.00500358
_cell_angle_gamma   90.02750184
_symmetry_Int_Tables_number   1
_chemical_formula_structural   In2Te3
_chemical_formula_sum   'In72 Te108'
_cell_volume   6678.54751086
_cell_formula_units_Z   36
loop_
 _symmetry_equiv_pos_site_id
 _symmetry_equiv_pos_as_xyz
  1  'x, y, z'
loop_
 _atom_site_type_symbol
 _atom_site_label
 _atom_site_symmetry_multiplicity
 _atom_site_fract_x
 _atom_site_fract_y
 _atom_site_fract_z
 _atom_site_occupancy
  In  In0  1  0.51424087  0.49846299  0.65148332  1
  In  In1  1  0.01910606  0.67319335  0.64751133  1
  In  In2  1  0.67166182  0.49062461  0.49118157  1
  In  In3  1  0.15407106  0.30382698  0.84847439  1
  In  In4  1  0.00391745  0.33585012  -0.00401626  1
  In  In5  1  0.34350295  0.17161153  0.49027830  1
  In  In6  1  0.66932926  0.49797400  0.86862893  1
  In  In7  1  0.16126154  0.48379966  0.30985745  1
  In  In8  1  -0.01358520  -0.00828805  0.67747936  1
  In  In9  1  0.19797095  0.80198181  0.64657303  1
  In  In10  1  0.83034356  0.34301844  0.18895851  1
  In  In11  1  0.67594074  0.00718811  0.34872443  1
  In  In12  1  0.83814285  0.16687253  -0.01684605  1
  In  In13  1  0.34039212  0.32541655  0.00050998  1
  In  In14  1  0.34646211  0.34451832  0.66035548  1
  In  In15  1  0.15799263  0.01645847  0.50124080  1
  In  In16  1  0.84096282  0.83380119  0.35007910  1
  In  In17  1  0.16448762  0.00297844  0.16707888  1
  In  In18  1  -0.01215911  0.47146918  0.83661420  1
  In  In19  1  0.17623975  0.66590491  0.83885827  1
  In  In20  1  0.49225693  0.47932347  0.31533627  1
  In  In21  1  -0.02591013  0.30798215  0.66554784  1
  In  In22  1  0.81310439  0.29447574  0.81283355  1
  In  In23  1  0.66692643  0.00913137  -0.01901884  1
  In  In24  1  0.47611716  0.67331956  0.83211868  1
  In  In25  1  0.47900723  0.20012847  0.31074476  1
  In  In26  1  0.68139510  0.83779253  0.19848918  1
  In  In27  1  0.66227818  0.52280452  0.17178467  1
  In  In28  1  0.17437155  0.83129599  -0.01342147  1
  In  In29  1  0.31433844  -0.00237024  0.33501059  1
  In  In30  1  0.50674736  0.31142180  0.52108444  1
  In  In31  1  0.50760703  0.01587702  0.53412097  1
  In  In32  1  0.18121232  0.17640047  0.32769764  1
  In  In33  1  0.66529654  0.31557292  0.34518998  1
  In  In34  1  0.17141679  0.00734936  0.84221642  1
  In  In35  1  -0.02785055  0.12478696  0.17786077  1
  In  In36  1  0.83099574  0.48285476  0.66001566  1
  In  In37  1  0.50001214  0.15951070  -0.01785596  1
  In  In38  1  0.34525553  0.51078137  0.48348023  1
  In  In39  1  0.69396663  0.68177470  0.35440866  1
  In  In40  1  0.35745802  0.68381157  0.34532536  1
  In  In41  1  0.48691674  0.84059620  0.35994995  1
  In  In42  1  0.67128004  0.17065850  0.15374695  1
  In  In43  1  0.66617374  0.88149617  0.79943724  1
  In  In44  1  0.50843366  0.84979136  -0.03224622  1
  In  In45  1  0.66854948  0.32935822  0.00613408  1
  In  In46  1  0.34520684  0.49602398  0.81402892  1
  In  In47  1  -0.01762358  0.88411561  0.15099075  1
  In  In48  1  0.18040287  0.65527477  0.17846891  1
  In  In49  1  0.50626127  0.68785942  0.49533206  1
  In  In50  1  0.84102469  0.67421841  0.84081260  1
  In  In51  1  -0.00119803  0.33763294  0.33689013  1
  In  In52  1  0.00499997  0.15750282  0.49173144  1
  In  In53  1  0.84086464  0.65949355  0.16925225  1
  In  In54  1  0.80680481  0.00730801  0.52417820  1
  In  In55  1  0.66813896  0.65987321  0.64767070  1
  In  In56  1  0.65642514  0.67427554  0.02107084  1
  In  In57  1  0.49298925  0.01421738  0.14060096  1
  In  In58  1  -0.01171142  0.87232050  0.82143478  1
  In  In59  1  0.16964764  0.15734676  0.65141166  1
  In  In60  1  -0.01481199  0.65303808  0.35786664  1
  In  In61  1  0.50399431  0.65443798  0.16235385  1
  In  In62  1  0.00123918  0.67090780  0.01833201  1
  In  In63  1  0.17606166  0.49443756  0.02241569  1
  In  In64  1  0.85505026  0.85639142  0.67230289  1
  In  In65  1  0.00433198  0.83208043  0.48465317  1
  In  In66  1  0.32771789  0.82076661  0.15325057  1
  In  In67  1  0.16094733  0.51434749  0.66008342  1
  In  In68  1  0.35062357  0.13384532  0.81618096  1
  In  In69  1  0.34494878  0.85333949  0.82454442  1
  In  In70  1  0.17519858  0.32309278  0.15165969  1
  In  In71  1  0.82162925  0.31744988  0.51997013  1
  Te  Te72  1  0.07953790  0.09085987  0.08393827  1
  Te  Te73  1  0.08031702  0.07751761  0.38608186  1
  Te  Te74  1  0.07900978  0.08972711  0.75260940  1
  Te  Te75  1  0.06889331  0.42395544  0.10194358  1
  Te  Te76  1  0.09106407  0.41714400  0.42058718  1
  Te  Te77  1  0.08564527  0.40367096  0.74036081  1
  Te  Te78  1  0.09432687  0.76260802  0.09779004  1
  Te  Te79  1  0.09201054  0.73727673  0.41492473  1
  Te  Te80  1  0.08362847  0.76154436  0.76135965  1
  Te  Te81  1  0.40010160  0.10889156  0.07994883  1
  Te  Te82  1  0.42706718  0.07212516  0.40805543  1
  Te  Te83  1  0.43151401  0.04317551  0.72988928  1
  Te  Te84  1  0.39844872  0.39321627  0.11874128  1
  Te  Te85  1  0.42275608  0.39460596  0.42119779  1
  Te  Te86  1  0.45178574  0.40359979  0.75326100  1
  Te  Te87  1  0.43615631  0.75435026  0.07071134  1
  Te  Te88  1  0.38337942  0.78702740  0.46453397  1
  Te  Te89  1  0.40903593  0.75642274  0.73116061  1
  Te  Te90  1  0.76135712  0.07127962  0.08401795  1
  Te  Te91  1  0.74411876  0.10686758  0.43312941  1
  Te  Te92  1  0.72047336  0.11085437  0.72114086  1
  Te  Te93  1  0.75018988  0.42694959  0.08985155  1
  Te  Te94  1  0.76748036  0.40856617  0.40808991  1
  Te  Te95  1  0.73734230  0.41574438  0.75660061  1
  Te  Te96  1  0.76036311  0.76312917  0.09072540  1
  Te  Te97  1  0.73798204  0.78720499  0.44512284  1
  Te  Te98  1  0.75521479  0.75258651  0.74359373  1
  Te  Te99  1  0.07189593  0.24207538  0.23925419  1
  Te  Te100  1  0.08828391  0.25685950  0.57135172  1
  Te  Te101  1  0.05878213  0.21968525  0.92295218  1
  Te  Te102  1  0.06459761  0.58354256  0.24377551  1
  Te  Te103  1  0.08418111  0.58153398  0.55324752  1
  Te  Te104  1  0.07721797  0.57602899  0.91297981  1
  Te  Te105  1  0.08093570  0.91742673  0.25368244  1
  Te  Te106  1  0.08513345  0.90877649  0.59325304  1
  Te  Te107  1  0.07479062  0.93270482  0.93399968  1
  Te  Te108  1  0.38859944  0.28518367  0.23074301  1
  Te  Te109  1  0.42428062  0.22246753  0.61201874  1
  Te  Te110  1  0.41658697  0.25093512  0.88899689  1
  Te  Te111  1  0.40094724  0.57766154  0.24314709  1
  Te  Te112  1  0.42065691  0.59585640  0.58506839  1
  Te  Te113  1  0.41052834  0.57490438  0.92001734  1
  Te  Te114  1  0.41963164  0.91399625  0.24365717  1
  Te  Te115  1  0.42890037  0.92537335  0.62472085  1
  Te  Te116  1  0.40874119  0.94639318  0.92077151  1
  Te  Te117  1  0.76022327  0.22821645  0.26220274  1
  Te  Te118  1  0.75397488  0.23988635  0.62850451  1
  Te  Te119  1  0.71778567  0.22237896  0.90832236  1
  Te  Te120  1  0.76396855  0.57654638  0.27254243  1
  Te  Te121  1  0.77210053  0.58979302  0.55597124  1
  Te  Te122  1  0.76431952  0.59142343  0.94233964  1
  Te  Te123  1  0.78031824  0.94456860  0.24799757  1
  Te  Te124  1  0.73162180  0.91815451  0.61645347  1
  Te  Te125  1  0.73937051  0.89189752  0.92625249  1
  Te  Te126  1  0.23021872  0.23677293  0.04458097  1
  Te  Te127  1  0.24914428  0.26291539  0.42484939  1
  Te  Te128  1  0.25394369  0.24960364  0.74386212  1
  Te  Te129  1  0.26867514  0.59308824  0.07858886  1
  Te  Te130  1  0.25073988  0.58363961  0.39169563  1
  Te  Te131  1  0.26380078  0.59842124  0.73403144  1
  Te  Te132  1  0.25965336  0.92684948  0.07019801  1
  Te  Te133  1  0.23649038  0.91517369  0.42766336  1
  Te  Te134  1  0.23860116  0.92079274  0.73788906  1
  Te  Te135  1  0.56408823  0.25246749  0.08803716  1
  Te  Te136  1  0.58111202  0.21895881  0.42653350  1
  Te  Te137  1  0.61730252  0.21920394  0.70819737  1
  Te  Te138  1  0.56315379  0.55767632  0.06073116  1
  Te  Te139  1  0.57462348  0.57465727  0.40805187  1
  Te  Te140  1  0.59184820  0.58142628  0.75581256  1
  Te  Te141  1  0.59179384  0.90698373  0.09287245  1
  Te  Te142  1  0.58761186  0.92095547  0.43920528  1
  Te  Te143  1  0.53378802  0.92356113  0.74785571  1
  Te  Te144  1  0.90794983  0.24931084  0.09291509  1
  Te  Te145  1  0.90581096  0.24243552  0.41563135  1
  Te  Te146  1  0.93389934  0.21757867  0.77448492  1
  Te  Te147  1  0.91091723  0.56994241  0.07453823  1
  Te  Te148  1  0.88478664  0.59502156  0.44477123  1
  Te  Te149  1  0.92122126  0.58254258  0.74445192  1
  Te  Te150  1  0.90134006  0.95979919  0.05437774  1
  Te  Te151  1  0.91639623  0.94213365  0.42743977  1
  Te  Te152  1  0.87360768  0.96840014  0.78134245  1
  Te  Te153  1  0.27203434  0.10064677  0.23288213  1
  Te  Te154  1  0.27376407  0.07075502  0.58388407  1
  Te  Te155  1  0.25540566  0.09842470  0.92311755  1
  Te  Te156  1  0.26900176  0.40448089  0.23746031  1
  Te  Te157  1  0.25390106  0.42548898  0.57324342  1
  Te  Te158  1  0.23840908  0.42077315  0.90218671  1
  Te  Te159  1  0.24967175  0.76109777  0.26734443  1
  Te  Te160  1  0.26018133  0.72587530  0.54030625  1
  Te  Te161  1  0.27713621  0.74390628  0.91937084  1
  Te  Te162  1  0.57995022  0.08276187  0.24762847  1
  Te  Te163  1  0.61481103  0.09320915  0.60499273  1
  Te  Te164  1  0.57651778  0.07624483  0.88616521  1
  Te  Te165  1  0.59567426  0.39964310  0.23869334  1
  Te  Te166  1  0.61133787  0.39608260  0.59308496  1
  Te  Te167  1  0.57115536  0.40234119  0.92128760  1
  Te  Te168  1  0.57412560  0.74351953  0.26663218  1
  Te  Te169  1  0.58300764  0.76558142  0.59312449  1
  Te  Te170  1  0.59855078  0.74683131  0.89877129  1
  Te  Te171  1  0.89671386  0.04642153  0.27557529  1
  Te  Te172  1  0.91172485  0.09559272  0.59447076  1
  Te  Te173  1  0.91172328  0.05062556  0.92834688  1
  Te  Te174  1  0.91948633  0.43585073  0.25929104  1
  Te  Te175  1  0.93034728  0.41641217  0.56737058  1
  Te  Te176  1  0.88745410  0.39292169  0.91529781  1
  Te  Te177  1  0.92589470  0.76313624  0.24470324  1
  Te  Te178  1  0.91089176  0.75199911  0.57559071  1
  Te  Te179  1  0.93089991  0.76637312  0.92114089  1
