# generated using pymatgen
data_In2Te3
_symmetry_space_group_name_H-M   'P 1'
_cell_length_a   18.82597248
_cell_length_b   18.81605918
_cell_length_c   18.82565000
_cell_angle_alpha   89.83329749
_cell_angle_beta   89.98375732
_cell_angle_gamma   89.94329210
_symmetry_Int_Tables_number   1
_chemical_formula_structural   In2Te3
_chemical_formula_sum   'In72 Te108'
_cell_volume   6668.58977454
_cell_formula_units_Z   36
loop_
 _symmetry_equiv_pos_site_id
 _symmetry_equiv_pos_as_xyz
  1  'x, y, z'
loop_
 _atom_site_type_symbol
 _atom_site_label
 _atom_site_symmetry_multiplicity
 _atom_site_fract_x
 _atom_site_fract_y
 _atom_site_fract_z
 _atom_site_occupancy
  In  In0  1  0.82640557  0.15078239  0.66159852  1
  In  In1  1  0.83287150  0.13975874  0.02422549  1
  In  In2  1  0.30848467  0.68802437  0.34446610  1
  In  In3  1  0.15594383  0.84190671  0.64472041  1
  In  In4  1  0.34517327  0.86064819  0.84654400  1
  In  In5  1  0.00612848  0.51776926  0.48469658  1
  In  In6  1  0.33918174  0.03120897  0.64530832  1
  In  In7  1  -0.00307334  0.29288892  0.33390883  1
  In  In8  1  0.34757291  0.83100838  0.19349545  1
  In  In9  1  0.33691392  0.68253959  0.64157890  1
  In  In10  1  0.66320008  0.17014409  0.49768036  1
  In  In11  1  0.81042449  0.51236009  -0.03118006  1
  In  In12  1  0.82298555  0.34472140  0.83534053  1
  In  In13  1  0.83904914  0.33223656  0.48538896  1
  In  In14  1  0.82973779  0.85185934  0.00428570  1
  In  In15  1  0.16778745  0.66180919  0.84055136  1
  In  In16  1  0.81056236  0.50135817  0.66990964  1
  In  In17  1  0.14776278  0.83063889  0.03248083  1
  In  In18  1  0.18440928  0.31834946  0.50594310  1
  In  In19  1  0.33319462  0.33426434  0.65876115  1
  In  In20  1  -0.02170469  0.50590720  0.15900367  1
  In  In21  1  0.67250922  0.34669338  -0.01289785  1
  In  In22  1  0.81958727  0.84057311  0.68204119  1
  In  In23  1  0.48025058  0.33014681  0.17045164  1
  In  In24  1  0.33699537  0.01504320  -0.01151615  1
  In  In25  1  0.31801948  0.14578379  0.18925925  1
  In  In26  1  0.83816629  0.13969512  0.31611352  1
  In  In27  1  0.52452109  0.01286678  0.82960307  1
  In  In28  1  0.48491783  0.67351216  0.48233893  1
  In  In29  1  0.18162669  0.15945890  0.64881243  1
  In  In30  1  0.53502082  0.67051425  0.16567739  1
  In  In31  1  0.83349468  0.50964094  0.33294542  1
  In  In32  1  0.81309632  0.69586321  0.17152947  1
  In  In33  1  0.00023774  0.48634393  0.84818598  1
  In  In34  1  0.34182180  0.50845055  0.17342300  1
  In  In35  1  0.17661573  0.01400579  0.83700835  1
  In  In36  1  0.32768536  0.14603105  0.48856889  1
  In  In37  1  0.34365322  0.29801462  -0.01152178  1
  In  In38  1  0.48922925  0.48879275  0.34144304  1
  In  In39  1  0.14974352  0.48860355  -0.02158157  1
  In  In40  1  0.14567147  0.32081716  0.19208861  1
  In  In41  1  0.51705508  -0.02230468  0.47587948  1
  In  In42  1  0.00700668  0.16495523  0.84384599  1
  In  In43  1  0.82270068  -0.00247763  0.49368881  1
  In  In44  1  0.68269412  0.71002058  0.33652688  1
  In  In45  1  -0.00149508  0.65591574  0.66390230  1
  In  In46  1  -0.00173926  -0.01019700  0.01505476  1
  In  In47  1  0.52748951  0.51956517  -0.00037498  1
  In  In48  1  -0.00494806  0.68600074  0.32513919  1
  In  In49  1  0.67669549  0.83401997  0.85485522  1
  In  In50  1  0.35239604  0.32364790  0.36318484  1
  In  In51  1  0.15726106  -0.00054292  0.16971445  1
  In  In52  1  0.02338917  0.33786763  0.66787433  1
  In  In53  1  0.63901162  0.33296784  0.32764059  1
  In  In54  1  0.18074085  0.50790215  0.34932927  1
  In  In55  1  0.67641514  0.00523873  0.66803307  1
  In  In56  1  -0.03780048  0.83861405  0.83684275  1
  In  In57  1  0.49593342  0.81574589  0.64108714  1
  In  In58  1  0.83214105  0.31615851  0.13347464  1
  In  In59  1  0.15829837  0.69510493  0.16137633  1
  In  In60  1  0.50554194  0.18510905  0.69181651  1
  In  In61  1  0.53045701  0.66657706  0.83842960  1
  In  In62  1  0.35070842  0.49433899  0.81076310  1
  In  In63  1  0.66983023  0.14919823  0.16366908  1
  In  In64  1  0.52974091  -0.01658508  0.18351006  1
  In  In65  1  0.01563283  0.01455772  0.33059749  1
  In  In66  1  0.65553588  0.67177432  0.66267271  1
  In  In67  1  -0.00401238  0.82412984  0.49007554  1
  In  In68  1  0.14364007  0.32797937  0.82016493  1
  In  In69  1  0.63563041  0.49155639  0.53270424  1
  In  In70  1  0.50315344  0.16425439  -0.01681538  1
  In  In71  1  0.33994895  0.67684559  0.02995386  1
  Te  Te72  1  0.10428099  0.08154557  0.05968744  1
  Te  Te73  1  0.10504973  0.06410966  0.43576859  1
  Te  Te74  1  0.08241272  0.08298832  0.73883011  1
  Te  Te75  1  0.07563777  0.41108051  0.08846507  1
  Te  Te76  1  0.07736941  0.40333173  0.40986621  1
  Te  Te77  1  0.09993133  0.44883533  0.73831149  1
  Te  Te78  1  0.04160560  0.74290217  0.08507355  1
  Te  Te79  1  0.09139396  0.72518949  0.43083716  1
  Te  Te80  1  0.08211794  0.75785757  0.75426999  1
  Te  Te81  1  0.42744261  0.08787219  0.09166791  1
  Te  Te82  1  0.41715215  0.06192938  0.40290962  1
  Te  Te83  1  0.40906867  0.09094195  0.76740217  1
  Te  Te84  1  0.41241166  0.42473528  0.06752517  1
  Te  Te85  1  0.41451644  0.42393903  0.45053324  1
  Te  Te86  1  0.44070812  0.41814858  0.72042168  1
  Te  Te87  1  0.44236731  0.76993192  0.08844457  1
  Te  Te88  1  0.41173053  0.78325888  0.40360494  1
  Te  Te89  1  0.41458419  0.75226971  0.76262722  1
  Te  Te90  1  0.74844117  0.03862450  0.10062551  1
  Te  Te91  1  0.72727137  0.07181239  0.39858146  1
  Te  Te92  1  0.73756014  0.09593543  0.76555180  1
  Te  Te93  1  0.74641717  0.43102256  0.08989623  1
  Te  Te94  1  0.73612617  0.42456631  0.41972740  1
  Te  Te95  1  0.72107454  0.42065636  0.75719507  1
  Te  Te96  1  0.72045018  0.78807292  0.09230388  1
  Te  Te97  1  0.79400250  0.78884032  0.39554692  1
  Te  Te98  1  0.75442566  0.72260131  0.76968718  1
  Te  Te99  1  0.07695059  0.20339787  0.24902076  1
  Te  Te100  1  0.07369991  0.23418387  0.56912743  1
  Te  Te101  1  0.08133443  0.25604004  0.93157271  1
  Te  Te102  1  0.08434099  0.57409723  0.25012568  1
  Te  Te103  1  0.09641065  0.59554267  0.57076989  1
  Te  Te104  1  0.05990425  0.60225360  0.93061304  1
  Te  Te105  1  0.08809960  0.90376031  0.25991405  1
  Te  Te106  1  0.06480059  0.93109026  0.56865984  1
  Te  Te107  1  0.09118591  0.90903764  0.90872270  1
  Te  Te108  1  0.42348810  0.22889532  0.26666294  1
  Te  Te109  1  0.41439406  0.23432098  0.57695662  1
  Te  Te110  1  0.44718888  0.26554629  0.89043556  1
  Te  Te111  1  0.41850610  0.60882120  0.25512616  1
  Te  Te112  1  0.44008835  0.58749504  0.59446522  1
  Te  Te113  1  0.40609250  0.59275013  0.92143623  1
  Te  Te114  1  0.40547999  0.94956013  0.26340080  1
  Te  Te115  1  0.40348933  0.91299533  0.56836311  1
  Te  Te116  1  0.45000364  0.92608079  0.93407837  1
  Te  Te117  1  0.75438800  0.25774923  0.25709731  1
  Te  Te118  1  0.74919908  0.26057352  0.58600851  1
  Te  Te119  1  0.75952954  0.23891172  0.92604055  1
  Te  Te120  1  0.73495196  0.59040570  0.25180714  1
  Te  Te121  1  0.74673220  0.59228136  0.56590445  1
  Te  Te122  1  0.74944356  0.60841610  0.87804535  1
  Te  Te123  1  0.71866074  0.86011303  0.28722742  1
  Te  Te124  1  0.73243212  0.90198302  0.57171541  1
  Te  Te125  1  0.76044014  0.94234981  0.90702834  1
  Te  Te126  1  0.25216299  0.25208031  0.09926575  1
  Te  Te127  1  0.23661781  0.23046640  0.39556324  1
  Te  Te128  1  0.25153879  0.24458744  0.75298920  1
  Te  Te129  1  0.23298448  0.57431398  0.08421219  1
  Te  Te130  1  0.28211653  0.57213066  0.43323015  1
  Te  Te131  1  0.25547277  0.59209275  0.73862853  1
  Te  Te132  1  0.26901687  0.91160866  0.08075919  1
  Te  Te133  1  0.29119891  0.86546093  0.44945012  1
  Te  Te134  1  0.25930145  0.92133477  0.73448610  1
  Te  Te135  1  0.58799357  0.25812530  0.08905203  1
  Te  Te136  1  0.56451488  0.25540017  0.42747843  1
  Te  Te137  1  0.61356227  0.27866356  0.72711492  1
  Te  Te138  1  0.62459539  0.60790375  0.06563843  1
  Te  Te139  1  0.58970282  0.58142558  0.41015003  1
  Te  Te140  1  0.57162284  0.57225200  0.73386960  1
  Te  Te141  1  0.63551002  0.92093802  0.09707836  1
  Te  Te142  1  0.59796048  0.89078728  0.38524341  1
  Te  Te143  1  0.58150991  0.89593804  0.73964736  1
  Te  Te144  1  0.93459720  0.21939254  0.09705047  1
  Te  Te145  1  0.91289291  0.21067038  0.43077186  1
  Te  Te146  1  0.91846139  0.25948503  0.74696308  1
  Te  Te147  1  0.88503953  0.59334531  0.08000366  1
  Te  Te148  1  0.90158397  0.60981644  0.42285735  1
  Te  Te149  1  0.91117460  0.57445466  0.75890381  1
  Te  Te150  1  0.91167089  0.91813234  0.11345376  1
  Te  Te151  1  0.90977423  0.91466779  0.39920234  1
  Te  Te152  1  0.91412806  0.93714141  0.73930614  1
  Te  Te153  1  0.25415110  0.04244000  0.27553679  1
  Te  Te154  1  0.21938725  0.04684375  0.54219763  1
  Te  Te155  1  0.25408609  0.11233566  0.91480414  1
  Te  Te156  1  0.26362893  0.40646896  0.25529369  1
  Te  Te157  1  0.24244619  0.42589880  0.58524815  1
  Te  Te158  1  0.25995387  0.41058659  0.90689440  1
  Te  Te159  1  0.21811753  0.78709368  0.26623187  1
  Te  Te160  1  0.24154479  0.75860205  0.55017317  1
  Te  Te161  1  0.25384133  0.75798380  0.92443304  1
  Te  Te162  1  0.58842599  0.08850104  0.27021295  1
  Te  Te163  1  0.56657580  0.07740714  0.59024484  1
  Te  Te164  1  0.61134653  0.08250818  0.92599126  1
  Te  Te165  1  0.57669022  0.43329225  0.22902718  1
  Te  Te166  1  0.58063673  0.37784944  0.60957378  1
  Te  Te167  1  0.57470540  0.41915844  0.90343804  1
  Te  Te168  1  0.56311690  0.77723750  0.27080608  1
  Te  Te169  1  0.59835988  0.75540820  0.54745997  1
  Te  Te170  1  0.58318147  0.75746810  0.94076897  1
  Te  Te171  1  0.91361723  0.05047569  0.22537772  1
  Te  Te172  1  0.91796292  0.07228087  0.57868675  1
  Te  Te173  1  0.91357510  0.06740945  0.91390865  1
  Te  Te174  1  0.91478082  0.40415937  0.25752768  1
  Te  Te175  1  0.91939344  0.42220628  0.58170567  1
  Te  Te176  1  0.91594235  0.40263344  0.94182718  1
  Te  Te177  1  0.92184480  0.77727393  0.23408912  1
  Te  Te178  1  0.90456677  0.75033498  0.59108146  1
  Te  Te179  1  0.88970157  0.74290139  0.92077238  1
