# generated using pymatgen
data_In2Te3
_symmetry_space_group_name_H-M   'P 1'
_cell_length_a   19.00239916
_cell_length_b   18.99893374
_cell_length_c   19.01697683
_cell_angle_alpha   90.04464015
_cell_angle_beta   89.69551642
_cell_angle_gamma   90.03997510
_symmetry_Int_Tables_number   1
_chemical_formula_structural   In2Te3
_chemical_formula_sum   'In72 Te108'
_cell_volume   6865.50951224
_cell_formula_units_Z   36
loop_
 _symmetry_equiv_pos_site_id
 _symmetry_equiv_pos_as_xyz
  1  'x, y, z'
loop_
 _atom_site_type_symbol
 _atom_site_label
 _atom_site_symmetry_multiplicity
 _atom_site_fract_x
 _atom_site_fract_y
 _atom_site_fract_z
 _atom_site_occupancy
  In  In0  1  0.17907232  0.00415808  0.20787960  1
  In  In1  1  0.81599031  0.33854393  0.49326361  1
  In  In2  1  0.50926122  0.68661711  0.16484274  1
  In  In3  1  0.65247651  0.51580639  0.45003514  1
  In  In4  1  0.82722895  0.47822305  0.02238681  1
  In  In5  1  0.47986494  0.51923843  -0.01222782  1
  In  In6  1  0.32825529  0.17640253  0.81990107  1
  In  In7  1  0.02252322  0.66140202  0.65343013  1
  In  In8  1  0.17488411  0.50133615  0.34620902  1
  In  In9  1  0.51322900  -0.03823611  0.16485716  1
  In  In10  1  0.50930944  0.31287458  0.83876467  1
  In  In11  1  0.33226420  0.16225934  0.50313601  1
  In  In12  1  0.82786461  0.15808045  0.33363148  1
  In  In13  1  -0.03281216  0.31641324  -0.02796528  1
  In  In14  1  0.65573544  0.67089022  0.67492399  1
  In  In15  1  0.17676586  0.81235606  0.66967888  1
  In  In16  1  0.50048641  0.84156477  0.67120898  1
  In  In17  1  -0.01395761  0.15619552  0.85325983  1
  In  In18  1  0.15201077  0.51816942  0.65335388  1
  In  In19  1  0.78332069  0.31680794  0.16346393  1
  In  In20  1  0.33281511  0.34716403  0.63729155  1
  In  In21  1  0.52197799  0.33192612  0.13695620  1
  In  In22  1  0.68203770  0.83719027  0.83455290  1
  In  In23  1  0.68379233  0.86088431  0.51193823  1
  In  In24  1  0.51141970  0.84277227  -0.00920599  1
  In  In25  1  0.68315022  0.48415061  0.85943627  1
  In  In26  1  0.34294710  0.35060298  -0.01057909  1
  In  In27  1  0.49943369  0.31319588  0.48927105  1
  In  In28  1  0.68265198  0.70083421  0.03067076  1
  In  In29  1  -0.01164958  0.32985027  0.70314138  1
  In  In30  1  0.81242629  0.00830340  0.14963325  1
  In  In31  1  0.33245118  0.83396436  0.14434015  1
  In  In32  1  0.17672125  0.64902652  0.83543857  1
  In  In33  1  0.84935777  -0.03434339  0.82301916  1
  In  In34  1  0.01188546  -0.00893278  0.03387060  1
  In  In35  1  0.37764609  0.15335447  0.15921585  1
  In  In36  1  0.81646628  0.51186514  0.67961028  1
  In  In37  1  0.83155606  0.67179583  0.81946398  1
  In  In38  1  -0.01967267  0.83453542  0.18819877  1
  In  In39  1  0.34866752  0.35593924  0.32326894  1
  In  In40  1  0.00551558  0.51913231  0.53043153  1
  In  In41  1  -0.00133875  -0.00956702  0.37930297  1
  In  In42  1  0.67254674  0.14855396  0.49689821  1
  In  In43  1  -0.01850105  0.18736725  0.19874135  1
  In  In44  1  0.16055936  0.32862295  0.16691777  1
  In  In45  1  0.82238506  0.52107456  0.29619099  1
  In  In46  1  0.36084808  0.57474782  0.49205187  1
  In  In47  1  0.34296263  0.00131846  0.68041109  1
  In  In48  1  0.18938542  0.81076120  0.39692948  1
  In  In49  1  0.02631854  0.51028339  0.15824624  1
  In  In50  1  0.17409144  0.32760587  0.53246210  1
  In  In51  1  0.84943943  0.66076022  0.49390640  1
  In  In52  1  0.50806800  -0.00644761  0.50062504  1
  In  In53  1  0.50720698  0.47315239  0.65596221  1
  In  In54  1  0.16497407  0.67246379  0.17733280  1
  In  In55  1  0.12129190  -0.01776268  0.52301456  1
  In  In56  1  0.69644473  0.00396879  0.68030947  1
  In  In57  1  0.50159944  0.52165628  0.30000758  1
  In  In58  1  0.13999337  0.17218923  0.67505837  1
  In  In59  1  0.16863117  0.82990977  -0.02351475  1
  In  In60  1  0.65784610  0.00728229  0.33350772  1
  In  In61  1  0.83272160  0.82979119  0.33069013  1
  In  In62  1  0.48333469  0.67386375  0.81425220  1
  In  In63  1  -0.01790924  0.35354958  0.33802390  1
  In  In64  1  0.18357882  0.50309925  0.01003379  1
  In  In65  1  0.13916379  0.00427873  0.80253528  1
  In  In66  1  0.35072085  -0.00664169  0.33452574  1
  In  In67  1  0.67189232  0.30221861  0.66002409  1
  In  In68  1  0.34066431  0.00021368  -0.02157779  1
  In  In69  1  0.76002063  0.11163488  -0.05087751  1
  In  In70  1  0.15717332  0.17850226  0.00485960  1
  In  In71  1  -0.00974351  0.68178635  -0.01834062  1
  Te  Te72  1  0.08737987  0.10165794  0.11640931  1
  Te  Te73  1  0.10611774  0.09016235  0.41785013  1
  Te  Te74  1  0.03070637  0.07996008  0.72851234  1
  Te  Te75  1  0.06773889  0.39397556  0.06859050  1
  Te  Te76  1  0.08340305  0.41503504  0.43464281  1
  Te  Te77  1  0.09293422  0.42194314  0.74486393  1
  Te  Te78  1  0.07926936  0.76539074  0.08337193  1
  Te  Te79  1  0.05476805  0.75157418  0.42730710  1
  Te  Te80  1  0.08116993  0.74391955  0.76676008  1
  Te  Te81  1  0.44864984  0.06216006  0.06310073  1
  Te  Te82  1  0.43356446  0.09293352  0.41415522  1
  Te  Te83  1  0.42369005  0.07477905  0.77761233  1
  Te  Te84  1  0.41411503  0.43042346  0.09332525  1
  Te  Te85  1  0.43681888  0.43227678  0.41926410  1
  Te  Te86  1  0.41615491  0.40056525  0.75162695  1
  Te  Te87  1  0.41624293  0.74538467  0.05681661  1
  Te  Te88  1  0.35586229  0.72024706  0.45417306  1
  Te  Te89  1  0.39984722  0.74305700  0.71598878  1
  Te  Te90  1  0.71364260  0.10157972  0.09359265  1
  Te  Te91  1  0.76922133  0.05369710  0.42602177  1
  Te  Te92  1  0.77929927  0.08581503  0.77245496  1
  Te  Te93  1  0.71585966  0.43748394  0.11157967  1
  Te  Te94  1  0.74763834  0.41826058  0.38426668  1
  Te  Te95  1  0.74816466  0.39773196  0.75305634  1
  Te  Te96  1  0.77247673  0.71628370  0.14596004  1
  Te  Te97  1  0.74784894  0.74793163  0.42675350  1
  Te  Te98  1  0.75997517  0.76886096  0.72384671  1
  Te  Te99  1  0.08840475  0.25850665  0.27926894  1
  Te  Te100  1  0.05292179  0.25445132  0.58405251  1
  Te  Te101  1  0.08918642  0.25952098  0.89929106  1
  Te  Te102  1  0.07743011  0.59268748  0.27370667  1
  Te  Te103  1  0.10357311  0.63468055  0.51705064  1
  Te  Te104  1  0.07883374  0.57395533  0.92462352  1
  Te  Te105  1  0.08375219  0.90807370  0.27117152  1
  Te  Te106  1  0.05506680  0.88591871  0.61862184  1
  Te  Te107  1  0.06903792  0.92202368  0.91104759  1
  Te  Te108  1  0.43885085  0.26061313  0.24703327  1
  Te  Te109  1  0.42692714  0.23486771  0.59695428  1
  Te  Te110  1  0.41547894  0.23312319  0.93093591  1
  Te  Te111  1  0.40253412  0.61315810  0.23938362  1
  Te  Te112  1  0.45302159  0.59936624  0.60374744  1
  Te  Te113  1  0.39885944  0.57574261  0.88160163  1
  Te  Te114  1  0.42119664  0.88356779  0.25818805  1
  Te  Te115  1  0.40423953  0.91255576  0.57413070  1
  Te  Te116  1  0.41708589  0.90492536  0.89908489  1
  Te  Te117  1  0.72199710  0.23408277  0.26758116  1
  Te  Te118  1  0.77505056  0.22217765  0.58253143  1
  Te  Te119  1  0.71846584  0.26055854  0.95400872  1
  Te  Te120  1  0.71573341  0.61215133  0.24536966  1
  Te  Te121  1  0.72980237  0.57548537  0.57165856  1
  Te  Te122  1  0.75752490  0.59535739  0.93062130  1
  Te  Te123  1  0.74109269  0.91493938  0.24549045  1
  Te  Te124  1  0.78494236  0.93732348  0.58342923  1
  Te  Te125  1  0.74004176  0.94301575  0.92098056  1
  Te  Te126  1  0.26372519  0.24351389  0.09199915  1
  Te  Te127  1  0.26505523  0.27169304  0.42345938  1
  Te  Te128  1  0.24297133  0.26573324  0.73392867  1
  Te  Te129  1  0.25695101  0.59801886  0.09143726  1
  Te  Te130  1  0.28439015  0.60359694  0.36471394  1
  Te  Te131  1  0.25433450  0.59343174  0.72274870  1
  Te  Te132  1  0.23900976  0.94078984  0.08249797  1
  Te  Te133  1  0.24589654  0.94664776  0.43223132  1
  Te  Te134  1  0.24918181  0.91055453  0.76003741  1
  Te  Te135  1  0.60974524  0.23289163  0.06517344  1
  Te  Te136  1  0.60152244  0.24359535  0.40994576  1
  Te  Te137  1  0.58901484  0.22248956  0.75195569  1
  Te  Te138  1  0.58364872  0.59336974  0.07075959  1
  Te  Te139  1  0.56444884  0.62032926  0.39440529  1
  Te  Te140  1  0.59580889  0.55751335  0.75704777  1
  Te  Te141  1  0.61076426  0.87862432  0.09058523  1
  Te  Te142  1  0.57954584  0.89937886  0.40768532  1
  Te  Te143  1  0.58852382  0.92737809  0.75836610  1
  Te  Te144  1  0.89645211  0.24767356  0.09122990  1
  Te  Te145  1  0.91460308  0.24653905  0.42072896  1
  Te  Te146  1  0.89586677  0.24994039  0.78315005  1
  Te  Te147  1  0.92282074  0.58425720  0.07835346  1
  Te  Te148  1  0.91707145  0.55826282  0.40850605  1
  Te  Te149  1  0.92914223  0.57832434  0.75125338  1
  Te  Te150  1  0.89832925  0.90123259  0.08105099  1
  Te  Te151  1  0.94272982  0.85872524  0.42976255  1
  Te  Te152  1  0.94721414  0.91755942  0.72706511  1
  Te  Te153  1  0.27537583  0.10599984  0.26277076  1
  Te  Te154  1  0.24279666  0.08687166  0.60141364  1
  Te  Te155  1  0.22565013  0.08515843  0.90609027  1
  Te  Te156  1  0.24995883  0.42925603  0.23473557  1
  Te  Te157  1  0.26060548  0.45355722  0.55684450  1
  Te  Te158  1  0.24215754  0.41523125  0.90925832  1
  Te  Te159  1  0.24264594  0.77745320  0.25323542  1
  Te  Te160  1  0.22924771  0.75707525  0.53879786  1
  Te  Te161  1  0.26157327  0.73610732  0.91911378  1
  Te  Te162  1  0.56324110  0.07360758  0.24481385  1
  Te  Te163  1  0.58695062  0.07511649  0.59740935  1
  Te  Te164  1  0.61774895  0.15653203  0.91337535  1
  Te  Te165  1  0.59090065  0.42426215  0.23133876  1
  Te  Te166  1  0.60680806  0.40269114  0.56494034  1
  Te  Te167  1  0.57449035  0.41095440  0.93377916  1
  Te  Te168  1  0.60887837  0.72212866  0.26692526  1
  Te  Te169  1  0.58627293  0.76042233  0.57630684  1
  Te  Te170  1  0.59614608  0.73175659  0.90140566  1
  Te  Te171  1  0.91877765  0.05896762  0.25171005  1
  Te  Te172  1  0.98625249  0.05603929  0.51509760  1
  Te  Te173  1  0.91655921  0.08675439  0.96618041  1
  Te  Te174  1  0.91384618  0.42052101  0.22324864  1
  Te  Te175  1  0.90450559  0.41871935  0.58850783  1
  Te  Te176  1  0.90075679  0.42754721  0.90647695  1
  Te  Te177  1  0.90349057  0.72407069  0.24987866  1
  Te  Te178  1  0.89757724  0.72920924  0.61338627  1
  Te  Te179  1  0.89599858  0.76678639  0.91023666  1
