# generated using pymatgen
data_In2Te3
_symmetry_space_group_name_H-M   'P 1'
_cell_length_a   18.76710017
_cell_length_b   18.77936113
_cell_length_c   18.76681924
_cell_angle_alpha   89.97413584
_cell_angle_beta   89.99489885
_cell_angle_gamma   89.98379469
_symmetry_Int_Tables_number   1
_chemical_formula_structural   In2Te3
_chemical_formula_sum   'In72 Te108'
_cell_volume   6614.06704840
_cell_formula_units_Z   36
loop_
 _symmetry_equiv_pos_site_id
 _symmetry_equiv_pos_as_xyz
  1  'x, y, z'
loop_
 _atom_site_type_symbol
 _atom_site_label
 _atom_site_symmetry_multiplicity
 _atom_site_fract_x
 _atom_site_fract_y
 _atom_site_fract_z
 _atom_site_occupancy
  In  In0  1  0.50204717  0.66328629  0.48813811  1
  In  In1  1  0.18382619  0.36526433  0.51726322  1
  In  In2  1  0.15165586  0.04851777  0.16877183  1
  In  In3  1  0.32473978  0.65029154  0.65525730  1
  In  In4  1  0.16478745  0.83144095  0.01085962  1
  In  In5  1  0.84393947  -0.00550351  0.18223089  1
  In  In6  1  0.00545777  0.49298226  0.16381293  1
  In  In7  1  0.15880478  0.86460996  0.33668574  1
  In  In8  1  0.66638148  0.50246808  0.82594193  1
  In  In9  1  0.50728860  -0.00971615  0.86213452  1
  In  In10  1  0.66607555  0.32688814  0.67521237  1
  In  In11  1  0.49652658  0.32518285  0.47078043  1
  In  In12  1  0.84210885  0.18034477  0.00870031  1
  In  In13  1  -0.02341245  0.84112124  0.83628024  1
  In  In14  1  0.17721997  0.65728310  0.14623130  1
  In  In15  1  0.67290584  0.47097774  0.17321541  1
  In  In16  1  0.53145194  0.82912857  0.00771041  1
  In  In17  1  0.33552355  0.33392414  0.32342304  1
  In  In18  1  -0.00054029  0.66621519  0.64626333  1
  In  In19  1  0.83822695  -0.00994545  0.50469454  1
  In  In20  1  0.50785080  0.83158058  0.67600668  1
  In  In21  1  0.81218663  0.82442141  0.34435993  1
  In  In22  1  0.49963265  0.01050647  0.51143125  1
  In  In23  1  0.82315409  0.67421315  0.15717986  1
  In  In24  1  0.49557991  0.49463877  -0.01887833  1
  In  In25  1  0.17864417  0.18383678  0.68482483  1
  In  In26  1  0.67464968  0.51802446  0.49820841  1
  In  In27  1  0.00243730  0.66127382  -0.02116174  1
  In  In28  1  0.32083488  0.17992219  0.48393550  1
  In  In29  1  0.51856257  0.81834082  0.33187111  1
  In  In30  1  0.33861334  0.82317302  0.81427169  1
  In  In31  1  0.65147157  0.17475654  0.48450558  1
  In  In32  1  0.81696167  0.20421349  0.31472207  1
  In  In33  1  0.18730748  0.02276539  0.84230322  1
  In  In34  1  0.34305217  0.63614594  0.00067386  1
  In  In35  1  0.83886063  0.82292399  0.68269882  1
  In  In36  1  0.50156571  0.65588160  0.18601468  1
  In  In37  1  0.33995552  0.01057180  0.65641896  1
  In  In38  1  0.00035155  0.83056270  0.52656456  1
  In  In39  1  0.85069701  0.32953590  0.49076165  1
  In  In40  1  0.34830403  0.03616554  0.00704679  1
  In  In41  1  0.67657638  0.81945148  0.49382939  1
  In  In42  1  0.32898571  0.84141158  0.17401074  1
  In  In43  1  0.83858860  0.48665306  0.32910607  1
  In  In44  1  0.00964859  0.50329355  0.84019829  1
  In  In45  1  -0.00441931  0.35301630  0.65831314  1
  In  In46  1  0.67157827  0.82788956  0.85297096  1
  In  In47  1  0.00579887  0.02098225  0.32125667  1
  In  In48  1  0.17975168  0.63359279  0.82396679  1
  In  In49  1  0.80341864  0.13936803  0.69808526  1
  In  In50  1  0.33041567  0.17574175  0.84713696  1
  In  In51  1  0.67640914  0.67131843  -0.00211845  1
  In  In52  1  0.83151958  0.66255964  0.84343763  1
  In  In53  1  0.67676758  0.34817615  0.00167352  1
  In  In54  1  0.34505044  0.64766919  0.33152142  1
  In  In55  1  0.64830915  0.04050218  0.30878977  1
  In  In56  1  -0.01275279  0.01113539  0.01435725  1
  In  In57  1  0.33035782  0.00659820  0.33795431  1
  In  In58  1  0.17107704  0.48122639  0.32851660  1
  In  In59  1  0.30499788  0.32535158  0.00540172  1
  In  In60  1  0.00635404  0.17786963  0.85337168  1
  In  In61  1  0.50411910  0.18441339  0.65089402  1
  In  In62  1  0.83150236  0.34853514  0.83176633  1
  In  In63  1  0.50512092  0.33408442  0.16532201  1
  In  In64  1  0.48449832  0.47745219  0.68532755  1
  In  In65  1  -0.00454805  0.15460395  0.48441099  1
  In  In66  1  -0.03175905  0.65856439  0.34655966  1
  In  In67  1  0.51171652  0.17348239  0.02635425  1
  In  In68  1  0.16152667  0.64952457  0.50794669  1
  In  In69  1  0.67353448  -0.00598130  0.00703612  1
  In  In70  1  0.01801065  0.32341769  0.01217516  1
  In  In71  1  0.13481870  0.82588233  0.64769532  1
  Te  Te72  1  0.06644828  0.12697758  0.06688745  1
  Te  Te73  1  0.10287364  0.08499445  0.41085253  1
  Te  Te74  1  0.08064976  0.08651732  0.75318967  1
  Te  Te75  1  0.10934403  0.40776792  0.09706203  1
  Te  Te76  1  0.07957956  0.41780068  0.42560773  1
  Te  Te77  1  0.08661991  0.39445375  0.76993059  1
  Te  Te78  1  0.06677233  0.74716424  0.09036052  1
  Te  Te79  1  0.08127984  0.74867143  0.41793426  1
  Te  Te80  1  0.07872646  0.73905312  0.76891658  1
  Te  Te81  1  0.42118650  0.09774440  0.12261876  1
  Te  Te82  1  0.43126362  0.10171245  0.41309065  1
  Te  Te83  1  0.42257110  0.08094298  0.76285239  1
  Te  Te84  1  0.41031352  0.41585188  0.07960199  1
  Te  Te85  1  0.40553811  0.42733778  0.41469998  1
  Te  Te86  1  0.38461079  0.39615417  0.75852791  1
  Te  Te87  1  0.41312510  0.74929334  0.08545495  1
  Te  Te88  1  0.40532408  0.75967747  0.41523514  1
  Te  Te89  1  0.42693587  0.72142910  0.74685352  1
  Te  Te90  1  0.75636027  0.08739059  0.09681432  1
  Te  Te91  1  0.76504489  0.08738796  0.41005992  1
  Te  Te92  1  0.71471422  0.04875353  0.76816684  1
  Te  Te93  1  0.77870020  0.40809269  0.09104971  1
  Te  Te94  1  0.74154743  0.40466918  0.41593140  1
  Te  Te95  1  0.76265511  0.43411519  0.72536623  1
  Te  Te96  1  0.73591947  0.77265668  0.08643472  1
  Te  Te97  1  0.74169180  0.71031967  0.41281905  1
  Te  Te98  1  0.73432574  0.73277538  0.74972985  1
  Te  Te99  1  0.12010617  0.19609601  0.20720957  1
  Te  Te100  1  0.08148784  0.24974852  0.58289897  1
  Te  Te101  1  0.10898763  0.28341745  0.89468611  1
  Te  Te102  1  0.08151496  0.59397444  0.26075521  1
  Te  Te103  1  0.09055367  0.55955272  0.60132085  1
  Te  Te104  1  0.11182482  0.56128407  0.94012477  1
  Te  Te105  1  0.07532632  0.92296473  0.22561816  1
  Te  Te106  1  0.08175482  0.94309740  0.57573498  1
  Te  Te107  1  0.08868325  0.92401416  0.91382132  1
  Te  Te108  1  0.42553096  0.23756746  0.24966203  1
  Te  Te109  1  0.40114803  0.26824405  0.57886859  1
  Te  Te110  1  0.42669391  0.25740129  0.93292993  1
  Te  Te111  1  0.40720746  0.55472091  0.23634412  1
  Te  Te112  1  0.42007912  0.56580596  0.57202229  1
  Te  Te113  1  0.40636793  0.56752294  0.88718999  1
  Te  Te114  1  0.42964225  0.91884728  0.25510909  1
  Te  Te115  1  0.41447814  0.90257567  0.57759738  1
  Te  Te116  1  0.39632713  0.90701492  0.92866587  1
  Te  Te117  1  0.70355859  0.26945458  0.24691408  1
  Te  Te118  1  0.75874767  0.24120172  0.58001985  1
  Te  Te119  1  0.74714339  0.24730244  0.90728791  1
  Te  Te120  1  0.74614788  0.58174830  0.25064954  1
  Te  Te121  1  0.77110376  0.61792915  0.55027078  1
  Te  Te122  1  0.75916856  0.56163284  0.93194203  1
  Te  Te123  1  0.73183846  0.92147314  0.25680833  1
  Te  Te124  1  0.74572673  0.91122020  0.59477483  1
  Te  Te125  1  0.76367366  0.93160625  0.90416423  1
  Te  Te126  1  0.23591180  0.26240489  0.12355841  1
  Te  Te127  1  0.22295578  0.26537781  0.40628696  1
  Te  Te128  1  0.27798332  0.27984343  0.74793321  1
  Te  Te129  1  0.25545293  0.55020526  0.08313677  1
  Te  Te130  1  0.25754896  0.56403220  0.42464252  1
  Te  Te131  1  0.24471367  0.54056500  0.72489633  1
  Te  Te132  1  0.24708602  0.93743440  0.08651961  1
  Te  Te133  1  0.25374080  0.92069110  0.43280337  1
  Te  Te134  1  0.24173952  0.91581351  0.74091061  1
  Te  Te135  1  0.62357298  0.24492463  0.10686224  1
  Te  Te136  1  0.59678788  0.26036071  0.37571786  1
  Te  Te137  1  0.57392761  0.25105441  0.76166692  1
  Te  Te138  1  0.58678439  0.57250622  0.07820846  1
  Te  Te139  1  0.58252547  0.57849605  0.39805138  1
  Te  Te140  1  0.58817949  0.57501835  0.72461551  1
  Te  Te141  1  0.56724512  0.93907055  0.09595434  1
  Te  Te142  1  0.59407969  0.92987787  0.41931239  1
  Te  Te143  1  0.59604733  0.93019378  0.75228342  1
  Te  Te144  1  0.91140213  0.27117491  0.10511145  1
  Te  Te145  1  0.94162166  0.26070911  0.38851446  1
  Te  Te146  1  0.91251676  0.24692535  0.74574359  1
  Te  Te147  1  0.91521207  0.58145500  0.07684151  1
  Te  Te148  1  0.92261112  0.55085655  0.43701860  1
  Te  Te149  1  0.91665063  0.58182496  0.74727015  1
  Te  Te150  1  0.91464785  0.90625125  0.08705747  1
  Te  Te151  1  0.92630661  0.91108043  0.40628644  1
  Te  Te152  1  0.92492959  0.93191959  0.73322011  1
  Te  Te153  1  0.26059411  0.11022589  0.25498010  1
  Te  Te154  1  0.23861519  0.08935490  0.57723656  1
  Te  Te155  1  0.23217650  0.11925435  0.95117209  1
  Te  Te156  1  0.23150527  0.38885095  0.22394169  1
  Te  Te157  1  0.27291104  0.43025517  0.61492894  1
  Te  Te158  1  0.24439855  0.38746871  0.88581726  1
  Te  Te159  1  0.24134952  0.74636254  0.25618851  1
  Te  Te160  1  0.25044687  0.75612051  0.57413627  1
  Te  Te161  1  0.24830663  0.74476809  0.91647061  1
  Te  Te162  1  0.54162126  0.10318263  0.22998099  1
  Te  Te163  1  0.60408521  0.08137276  0.59656953  1
  Te  Te164  1  0.59488409  0.09827992  0.92218174  1
  Te  Te165  1  0.57154136  0.42070103  0.26806864  1
  Te  Te166  1  0.58295673  0.40607376  0.57387410  1
  Te  Te167  1  0.57830071  0.39903257  0.89531691  1
  Te  Te168  1  0.60514593  0.74859886  0.23498502  1
  Te  Te169  1  0.59079493  0.73692254  0.58972280  1
  Te  Te170  1  0.56675436  0.72570247  0.90420399  1
  Te  Te171  1  0.91832133  0.11508595  0.23930390  1
  Te  Te172  1  0.91124435  0.08960129  0.59362000  1
  Te  Te173  1  0.90145649  0.07953204  0.90737996  1
  Te  Te174  1  0.92277711  0.39746316  0.24293530  1
  Te  Te175  1  0.90771041  0.43897569  0.57514492  1
  Te  Te176  1  0.92173707  0.41754662  0.93111909  1
  Te  Te177  1  0.91337147  0.76078760  0.24768535  1
  Te  Te178  1  0.88536981  0.73135770  0.56039141  1
  Te  Te179  1  0.89450249  0.76392904  0.93814606  1
