# generated using pymatgen
data_In2Te3
_symmetry_space_group_name_H-M   'P 1'
_cell_length_a   18.76849383
_cell_length_b   18.76269458
_cell_length_c   18.75514729
_cell_angle_alpha   89.96736453
_cell_angle_beta   89.99822580
_cell_angle_gamma   90.00272783
_symmetry_Int_Tables_number   1
_chemical_formula_structural   In2Te3
_chemical_formula_sum   'In72 Te108'
_cell_volume   6604.57747451
_cell_formula_units_Z   36
loop_
 _symmetry_equiv_pos_site_id
 _symmetry_equiv_pos_as_xyz
  1  'x, y, z'
loop_
 _atom_site_type_symbol
 _atom_site_label
 _atom_site_symmetry_multiplicity
 _atom_site_fract_x
 _atom_site_fract_y
 _atom_site_fract_z
 _atom_site_occupancy
  In  In0  1  0.86058023  0.86526949  0.01816279  1
  In  In1  1  0.00610371  0.50704491  0.14519842  1
  In  In2  1  0.82924391  0.49402750  0.29472916  1
  In  In3  1  0.18097641  0.82821785  0.34514973  1
  In  In4  1  0.67063194  0.31773501  0.33685552  1
  In  In5  1  0.48393071  0.32718755  0.81298321  1
  In  In6  1  0.48875121  0.15865584  0.67769627  1
  In  In7  1  0.18709286  0.64854493  0.13101301  1
  In  In8  1  0.49693339  0.31471222  0.48795620  1
  In  In9  1  0.00055607  -0.00413945  0.33964440  1
  In  In10  1  0.82531296  0.31286505  0.14166129  1
  In  In11  1  0.49373840  0.49759168  -0.00108058  1
  In  In12  1  0.15534490  0.83485544  -0.01152291  1
  In  In13  1  0.67342494  0.00205108  0.32432728  1
  In  In14  1  0.83125014  0.32799341  0.52307834  1
  In  In15  1  0.68555377  0.83864422  0.83576109  1
  In  In16  1  -0.00332530  0.68421094  -0.00024984  1
  In  In17  1  0.83907704  0.17693992  0.66838629  1
  In  In18  1  0.82611464  0.66649242  0.16690963  1
  In  In19  1  0.17201937  0.86152469  0.68358811  1
  In  In20  1  0.49501644  0.65974445  0.16677202  1
  In  In21  1  0.50408477  0.84549095  0.66796633  1
  In  In22  1  0.15158465  0.31755857  0.17351742  1
  In  In23  1  0.82489150  0.85739602  0.32287498  1
  In  In24  1  0.15211291  0.65850590  0.49822757  1
  In  In25  1  0.85843592  0.01323709  0.84874441  1
  In  In26  1  0.34755065  0.16452368  0.16275454  1
  In  In27  1  0.47452860  0.50371698  0.68549238  1
  In  In28  1  0.15448957  -0.00009407  0.84432603  1
  In  In29  1  0.17640880  0.68056195  0.83762972  1
  In  In30  1  0.14784939  0.16551981  0.00831168  1
  In  In31  1  0.49176891  0.33069982  0.13812430  1
  In  In32  1  0.00196653  0.32082641  -0.01499313  1
  In  In33  1  0.16180373  0.00050948  0.15307573  1
  In  In34  1  0.65995510  0.69933668  0.67476523  1
  In  In35  1  0.65648713  0.31685513  -0.00316774  1
  In  In36  1  0.48637854  0.50752933  0.33344792  1
  In  In37  1  0.63867623  0.50497033  0.48968259  1
  In  In38  1  0.34466988  0.65992927  0.66711084  1
  In  In39  1  0.00487557  0.67224825  0.66623670  1
  In  In40  1  0.66964899  0.49819920  0.15291477  1
  In  In41  1  0.31721877  0.18245001  0.82332640  1
  In  In42  1  0.02192471  0.48954163  0.82072796  1
  In  In43  1  0.00699859  0.16595618  0.50000182  1
  In  In44  1  0.00124750  0.01065035  0.69148142  1
  In  In45  1  0.83946900  0.14186662  0.32686167  1
  In  In46  1  0.32928434  0.33038498  0.33683182  1
  In  In47  1  0.50960702  0.00458841  0.16436822  1
  In  In48  1  0.02130917  0.32497207  0.67877569  1
  In  In49  1  0.66151147  0.83871751  0.13663325  1
  In  In50  1  0.67147645  -0.01737333  0.67060892  1
  In  In51  1  0.47481758  -0.00004206  0.50564997  1
  In  In52  1  0.01244893  0.53843173  0.49948845  1
  In  In53  1  0.34169403  0.48575993  0.84973465  1
  In  In54  1  0.83729173  0.51108765  0.68477159  1
  In  In55  1  0.51302494  0.67013769  0.82057225  1
  In  In56  1  0.83284407  0.68888634  0.51315759  1
  In  In57  1  0.70522908  0.52028502  0.86283368  1
  In  In58  1  0.29983182  0.81495976  0.15566274  1
  In  In59  1  0.17021761  0.49601075  0.34803068  1
  In  In60  1  0.65520467  0.31156398  0.68272000  1
  In  In61  1  0.03386628  0.30508898  0.31585924  1
  In  In62  1  -0.00138409  0.69233900  0.33262314  1
  In  In63  1  0.48219218  0.86016953  -0.02305460  1
  In  In64  1  0.83070663  0.30402394  0.86521978  1
  In  In65  1  0.30371774  0.14237548  0.50657797  1
  In  In66  1  0.34463699  0.83597145  0.50458278  1
  In  In67  1  0.67206558  0.82766029  0.51692902  1
  In  In68  1  0.48384354  0.82434110  0.34212140  1
  In  In69  1  0.18805491  0.33218810  0.52653861  1
  In  In70  1  0.33135163  -0.00506177  0.33595947  1
  In  In71  1  0.49542619  0.16187166  -0.02155836  1
  Te  Te72  1  0.05990631  0.04044639  0.04431639  1
  Te  Te73  1  0.09206685  0.09562208  0.40210325  1
  Te  Te74  1  0.08776604  0.10639476  0.76519401  1
  Te  Te75  1  0.09618499  0.41436582  0.06604150  1
  Te  Te76  1  0.07437963  0.40907068  0.43099741  1
  Te  Te77  1  0.12736462  0.39585873  0.76138189  1
  Te  Te78  1  0.08397146  0.75660033  0.10204478  1
  Te  Te79  1  0.07043604  0.77433130  0.43845768  1
  Te  Te80  1  0.07789136  0.76885786  0.76134340  1
  Te  Te81  1  0.41049014  0.06702770  0.06435553  1
  Te  Te82  1  0.41655915  0.09918874  0.40625330  1
  Te  Te83  1  0.40541299  0.07330010  0.76785442  1
  Te  Te84  1  0.39411404  0.43091281  0.08823894  1
  Te  Te85  1  0.40419166  0.42270794  0.43261316  1
  Te  Te86  1  0.37408816  0.38774263  0.71591807  1
  Te  Te87  1  0.41726082  0.75798637  0.07692719  1
  Te  Te88  1  0.38901045  0.73321912  0.40775668  1
  Te  Te89  1  0.40962081  0.76291734  0.75826573  1
  Te  Te90  1  0.80750311  0.11471794  0.04146205  1
  Te  Te91  1  0.76131003  0.06454711  0.42548196  1
  Te  Te92  1  0.75661279  0.08098993  0.75274108  1
  Te  Te93  1  0.75654665  0.41788818  0.05599220  1
  Te  Te94  1  0.75438835  0.42215396  0.42098305  1
  Te  Te95  1  0.75951706  0.39621151  0.75530960  1
  Te  Te96  1  0.75336158  0.74564449  0.05710489  1
  Te  Te97  1  0.74494174  0.75276750  0.40533978  1
  Te  Te98  1  0.77245277  0.75304041  0.75085542  1
  Te  Te99  1  0.07339077  0.19957971  0.22060220  1
  Te  Te100  1  0.10622059  0.22445866  0.60041442  1
  Te  Te101  1  0.09508507  0.24700899  0.89452441  1
  Te  Te102  1  0.07856449  0.58416575  0.25632163  1
  Te  Te103  1  0.10386099  0.56705575  0.61655723  1
  Te  Te104  1  0.08628774  0.58728255  0.92090492  1
  Te  Te105  1  0.09035624  0.90589384  0.24989263  1
  Te  Te106  1  0.10034040  0.95395285  0.58853162  1
  Te  Te107  1  0.05154582  0.92016588  0.92139238  1
  Te  Te108  1  0.43209384  0.25130199  0.25648754  1
  Te  Te109  1  0.40141136  0.23665408  0.58006438  1
  Te  Te110  1  0.40165733  0.27069370  0.92617648  1
  Te  Te111  1  0.39689941  0.57467992  0.23680930  1
  Te  Te112  1  0.43006734  0.58602692  0.57160031  1
  Te  Te113  1  0.41596345  0.60198986  0.91712625  1
  Te  Te114  1  0.40686586  0.90860832  0.23440898  1
  Te  Te115  1  0.38981972  0.93494357  0.61372845  1
  Te  Te116  1  0.39873023  0.93075784  0.87622977  1
  Te  Te117  1  0.74483357  0.22680711  0.23783400  1
  Te  Te118  1  0.72689420  0.22968422  0.57524141  1
  Te  Te119  1  0.73748715  0.20360033  0.93171748  1
  Te  Te120  1  0.72239986  0.59799879  0.25678403  1
  Te  Te121  1  0.74573382  0.57834670  0.58222822  1
  Te  Te122  1  0.77041187  0.61880594  0.94548140  1
  Te  Te123  1  0.75256568  0.93669630  0.21099872  1
  Te  Te124  1  0.77041609  0.90948453  0.58882900  1
  Te  Te125  1  0.75430456  0.93624095  0.93185282  1
  Te  Te126  1  0.25536828  0.25214842  0.07959257  1
  Te  Te127  1  0.23043124  0.24102157  0.40998657  1
  Te  Te128  1  0.23840627  0.28297623  0.74820025  1
  Te  Te129  1  0.26213214  0.55275793  0.04911778  1
  Te  Te130  1  0.25739321  0.57754684  0.43438661  1
  Te  Te131  1  0.25580046  0.57627614  0.75822771  1
  Te  Te132  1  0.25885181  0.92663591  0.06118300  1
  Te  Te133  1  0.24093430  0.93234028  0.44103528  1
  Te  Te134  1  0.26575193  0.90874198  0.79370227  1
  Te  Te135  1  0.58639274  0.22011143  0.09168513  1
  Te  Te136  1  0.59605604  0.22567567  0.42488287  1
  Te  Te137  1  0.59433015  0.21618757  0.78654995  1
  Te  Te138  1  0.59159779  0.59493862  0.06522486  1
  Te  Te139  1  0.57818071  0.60392301  0.39996384  1
  Te  Te140  1  0.60442278  0.56868227  0.74674006  1
  Te  Te141  1  0.59112937  0.94418998  0.05064025  1
  Te  Te142  1  0.57609934  0.91559053  0.42404776  1
  Te  Te143  1  0.57459164  0.92828025  0.77528946  1
  Te  Te144  1  0.92855203  0.22324057  0.07751314  1
  Te  Te145  1  0.91015933  0.25983479  0.41030214  1
  Te  Te146  1  0.93311508  0.23893772  0.77061794  1
  Te  Te147  1  0.89777107  0.57609611  0.06441769  1
  Te  Te148  1  0.90349527  0.58879044  0.40389446  1
  Te  Te149  1  0.92079791  0.59910811  0.77352599  1
  Te  Te150  1  0.93244351  0.96198484  0.10607330  1
  Te  Te151  1  0.91055016  0.91667082  0.42750431  1
  Te  Te152  1  0.90825835  0.91237739  0.75166646  1
  Te  Te153  1  0.24656611  0.08698577  0.24792145  1
  Te  Te154  1  0.23153736  0.04518717  0.59068704  1
  Te  Te155  1  0.25156833  0.08839221  0.92644405  1
  Te  Te156  1  0.24688503  0.41763552  0.24242178  1
  Te  Te157  1  0.27025840  0.42550407  0.60274667  1
  Te  Te158  1  0.24193224  0.43646806  0.94570700  1
  Te  Te159  1  0.24494354  0.71897416  0.26003030  1
  Te  Te160  1  0.23973098  0.75386745  0.59246612  1
  Te  Te161  1  0.26375173  0.74876535  0.93545288  1
  Te  Te162  1  0.57876202  0.09428153  0.25780941  1
  Te  Te163  1  0.57978250  0.07548701  0.58681114  1
  Te  Te164  1  0.59479699  0.09756868  0.89131416  1
  Te  Te165  1  0.58426502  0.40976049  0.24609347  1
  Te  Te166  1  0.57420988  0.40572521  0.59498465  1
  Te  Te167  1  0.58083618  0.41631689  0.89890789  1
  Te  Te168  1  0.58267810  0.76226276  0.24262879  1
  Te  Te169  1  0.55762902  0.73950832  0.56994772  1
  Te  Te170  1  0.58539851  0.75792078  0.92063825  1
  Te  Te171  1  0.92208774  0.06434667  0.22747307  1
  Te  Te172  1  0.91108874  0.07876034  0.57803874  1
  Te  Te173  1  0.92600308  0.10492609  0.94844812  1
  Te  Te174  1  0.93264254  0.39826420  0.23020730  1
  Te  Te175  1  0.92975581  0.42174867  0.59571852  1
  Te  Te176  1  0.91568344  0.42371719  0.91147730  1
  Te  Te177  1  0.91605919  0.77121275  0.23187779  1
  Te  Te178  1  0.93100090  0.77138638  0.58468883  1
  Te  Te179  1  0.92195242  0.77840447  0.91358034  1
