# generated using pymatgen
data_In2Te3
_symmetry_space_group_name_H-M   'P 1'
_cell_length_a   19.10115856
_cell_length_b   19.08019312
_cell_length_c   19.06562123
_cell_angle_alpha   89.71198380
_cell_angle_beta   90.06924404
_cell_angle_gamma   89.86892430
_symmetry_Int_Tables_number   1
_chemical_formula_structural   In2Te3
_chemical_formula_sum   'In72 Te108'
_cell_volume   6948.42684961
_cell_formula_units_Z   36
loop_
 _symmetry_equiv_pos_site_id
 _symmetry_equiv_pos_as_xyz
  1  'x, y, z'
loop_
 _atom_site_type_symbol
 _atom_site_label
 _atom_site_symmetry_multiplicity
 _atom_site_fract_x
 _atom_site_fract_y
 _atom_site_fract_z
 _atom_site_occupancy
  In  In0  1  0.84584382  0.16560049  -0.00814172  1
  In  In1  1  0.80779932  0.33769361  0.50245384  1
  In  In2  1  0.16925358  -0.01785758  0.48541867  1
  In  In3  1  0.85335397  0.84877902  0.64740349  1
  In  In4  1  0.50369164  0.50671221  0.33270970  1
  In  In5  1  0.01064605  0.52386343  0.51001858  1
  In  In6  1  0.52957405  0.69942592  0.82211173  1
  In  In7  1  0.50144165  0.01403717  0.16545772  1
  In  In8  1  0.82907412  0.20429957  0.69149306  1
  In  In9  1  0.65666344  0.32198072  0.00951544  1
  In  In10  1  0.49275299  0.33827627  0.50286926  1
  In  In11  1  0.48203216  0.80131322  0.33557149  1
  In  In12  1  0.83477286  0.00958761  0.84971509  1
  In  In13  1  0.33821342  0.83027897  0.86147482  1
  In  In14  1  0.16683551  0.81149976  0.00392221  1
  In  In15  1  0.66250188  -0.01246692  0.64267008  1
  In  In16  1  0.34934548  0.48470917  0.83552783  1
  In  In17  1  0.34212695  -0.00175770  0.68409581  1
  In  In18  1  0.14808817  0.37868061  0.82315686  1
  In  In19  1  0.49547816  0.49221144  0.01535505  1
  In  In20  1  0.16747166  0.16991507  0.35282571  1
  In  In21  1  0.18986856  0.18605243  0.66595008  1
  In  In22  1  0.32708336  0.49715906  0.49734331  1
  In  In23  1  0.80845054  0.51622009  0.34432079  1
  In  In24  1  -0.01143311  0.50950651  0.16012527  1
  In  In25  1  -0.01235935  0.33479725  0.33615220  1
  In  In26  1  0.32773737  0.49902056  0.18205854  1
  In  In27  1  -0.03830480  0.67752723  0.02800374  1
  In  In28  1  0.83819134  -0.00585123  0.46980381  1
  In  In29  1  0.80739052  0.15179627  0.32162695  1
  In  In30  1  0.83821758  0.49489819  0.65896372  1
  In  In31  1  0.01939392  -0.02790953  0.33419440  1
  In  In32  1  0.35822644  -0.01330948  0.01234211  1
  In  In33  1  0.47762246  0.18994318  0.31895964  1
  In  In34  1  0.64791707  0.17181182  0.15794405  1
  In  In35  1  0.66809751  0.17970052  0.83504781  1
  In  In36  1  0.87776107  0.37712824  0.83574371  1
  In  In37  1  0.68345613  0.02312151  -0.00513417  1
  In  In38  1  0.49859406  0.65823266  0.16487542  1
  In  In39  1  0.33425997  0.18068154  0.48729364  1
  In  In40  1  0.74274372  0.77913176  0.22072318  1
  In  In41  1  0.51932360  0.83034703  0.64099758  1
  In  In42  1  0.68450114  0.52198905  0.82977957  1
  In  In43  1  0.82299912  0.31661499  0.15767187  1
  In  In44  1  0.52991187  0.82670690  0.01347964  1
  In  In45  1  0.85153186  0.66018093  0.81804597  1
  In  In46  1  0.15324101  0.19356069  -0.00130109  1
  In  In47  1  0.03451712  0.82489560  0.82324595  1
  In  In48  1  0.63901572  0.50322118  0.49441030  1
  In  In49  1  0.30703079  0.14065567  0.17055196  1
  In  In50  1  0.20390751  0.80216681  0.66072082  1
  In  In51  1  0.03729677  0.78067505  0.47621218  1
  In  In52  1  0.14375423  0.60182288  0.82152630  1
  In  In53  1  0.67834868  0.69123710  0.64563116  1
  In  In54  1  0.32751570  0.63452975  -0.00324680  1
  In  In55  1  0.50878745  0.32483494  0.82011239  1
  In  In56  1  0.14602730  0.51207033  0.03003084  1
  In  In57  1  0.83587398  0.69363797  0.48661011  1
  In  In58  1  0.00171692  0.15943722  0.15361509  1
  In  In59  1  0.83949682  -0.02945232  0.18177534  1
  In  In60  1  0.36533184  0.17008450  0.82991771  1
  In  In61  1  -0.00629078  0.18895868  0.53303335  1
  In  In62  1  0.48629304  -0.02793013  0.49356650  1
  In  In63  1  0.34869405  0.65909109  0.63863337  1
  In  In64  1  0.15590667  0.51934166  0.32693763  1
  In  In65  1  0.31821099  -0.02771230  0.32065484  1
  In  In66  1  0.65957174  0.50047484  0.16800979  1
  In  In67  1  0.30861810  0.80001829  0.17854221  1
  In  In68  1  0.02020462  0.00684251  0.64682361  1
  In  In69  1  -0.02665950  0.81767342  0.17949210  1
  In  In70  1  0.34060717  0.34725759  0.66247032  1
  In  In71  1  0.16084666  0.02371058  0.84084242  1
  Te  Te72  1  0.09186765  0.08262436  0.07100528  1
  Te  Te73  1  0.06774506  0.08492734  0.43994706  1
  Te  Te74  1  0.08303335  0.10561378  0.74100095  1
  Te  Te75  1  0.09134996  0.41224446  0.12207406  1
  Te  Te76  1  0.07616196  0.42093443  0.41828417  1
  Te  Te77  1  0.05977210  0.46867848  0.74245105  1
  Te  Te78  1  0.08086041  0.73602620  0.09866819  1
  Te  Te79  1  0.09179337  0.73634667  0.34665718  1
  Te  Te80  1  0.10002327  0.72153315  0.73722296  1
  Te  Te81  1  0.42350095  0.10554842  0.07666861  1
  Te  Te82  1  0.39583953  0.07154505  0.40318691  1
  Te  Te83  1  0.44305400  0.07083260  0.75695373  1
  Te  Te84  1  0.37948156  0.42349387  0.06706877  1
  Te  Te85  1  0.40854414  0.41248853  0.40236854  1
  Te  Te86  1  0.44375826  0.43197408  0.73218572  1
  Te  Te87  1  0.40702613  0.74538337  0.06736703  1
  Te  Te88  1  0.36373803  0.76928896  0.41320128  1
  Te  Te89  1  0.40896086  0.75679366  0.75050334  1
  Te  Te90  1  0.77024239  0.09728048  0.10456101  1
  Te  Te91  1  0.73175346  0.08128203  0.42296965  1
  Te  Te92  1  0.75050494  0.07993485  0.74700628  1
  Te  Te93  1  0.74974283  0.41957249  0.07592400  1
  Te  Te94  1  0.71937929  0.41051394  0.40488960  1
  Te  Te95  1  0.75499153  0.41282516  0.75333670  1
  Te  Te96  1  0.81605844  0.73861584  0.09386717  1
  Te  Te97  1  0.76714181  0.76440595  0.37568049  1
  Te  Te98  1  0.76984531  0.76326822  0.74004496  1
  Te  Te99  1  0.07687168  0.24427494  0.25669112  1
  Te  Te100  1  0.09595471  0.27263181  0.59287551  1
  Te  Te101  1  0.07896730  0.27946823  0.90561211  1
  Te  Te102  1  0.05398360  0.60162643  0.25627495  1
  Te  Te103  1  0.11423972  0.53602925  0.61518595  1
  Te  Te104  1  0.04201944  0.57089286  0.93250418  1
  Te  Te105  1  0.08837159  0.89230352  0.23584183  1
  Te  Te106  1  0.09684327  0.89109394  0.58683337  1
  Te  Te107  1  0.09173259  0.91846292  0.92584912  1
  Te  Te108  1  0.36278949  0.24889897  0.25409972  1
  Te  Te109  1  0.41694659  0.23540696  0.59725598  1
  Te  Te110  1  0.41492422  0.27431233  0.91796962  1
  Te  Te111  1  0.40344780  0.60020481  0.26456084  1
  Te  Te112  1  0.43468208  0.57660351  0.55737087  1
  Te  Te113  1  0.43897419  0.59434502  0.90267044  1
  Te  Te114  1  0.41394080  0.90533158  0.22433468  1
  Te  Te115  1  0.39384055  0.89649518  0.58655509  1
  Te  Te116  1  0.44917282  0.91476165  0.91610500  1
  Te  Te117  1  0.72583391  0.26053703  0.25673724  1
  Te  Te118  1  0.73640944  0.24343001  0.58726362  1
  Te  Te119  1  0.76374730  0.26651658  0.91462931  1
  Te  Te120  1  0.70727055  0.59216984  0.27186525  1
  Te  Te121  1  0.75982292  0.58459867  0.56376345  1
  Te  Te122  1  0.79106357  0.56998161  0.91951907  1
  Te  Te123  1  0.74315893  0.91779820  0.27508887  1
  Te  Te124  1  0.74863253  0.90179624  0.55381861  1
  Te  Te125  1  0.75517848  0.91683115  0.92690810  1
  Te  Te126  1  0.24870747  0.25070074  0.09102235  1
  Te  Te127  1  0.22510500  0.26648886  0.44582981  1
  Te  Te128  1  0.25807295  0.27180427  0.76985919  1
  Te  Te129  1  0.23685330  0.60139540  0.11056276  1
  Te  Te130  1  0.22917838  0.59011092  0.43438972  1
  Te  Te131  1  0.27194954  0.57908439  0.74697358  1
  Te  Te132  1  0.25251668  0.90675091  0.08478021  1
  Te  Te133  1  0.25142514  0.87717128  0.41775559  1
  Te  Te134  1  0.24091023  0.90994669  0.76848355  1
  Te  Te135  1  0.56185982  0.28442528  0.11564732  1
  Te  Te136  1  0.56538583  0.24190197  0.42066718  1
  Te  Te137  1  0.59561037  0.25101283  0.73059149  1
  Te  Te138  1  0.59300525  0.59494074  0.06619907  1
  Te  Te139  1  0.57289292  0.60732782  0.41435457  1
  Te  Te140  1  0.59661712  0.59817895  0.73276458  1
  Te  Te141  1  0.60273079  0.93363417  0.09010935  1
  Te  Te142  1  0.56883264  0.89761977  0.40073292  1
  Te  Te143  1  0.60102428  0.89703828  0.73956285  1
  Te  Te144  1  0.93189684  0.26472140  0.06947225  1
  Te  Te145  1  0.90007399  0.23927551  0.41668460  1
  Te  Te146  1  0.93857951  0.27046207  0.75721015  1
  Te  Te147  1  0.87377174  0.59717156  0.11767582  1
  Te  Te148  1  0.91977906  0.59301879  0.41034224  1
  Te  Te149  1  0.93782566  0.57537497  0.73265546  1
  Te  Te150  1  0.92125055  0.91190728  0.07921121  1
  Te  Te151  1  0.93839454  0.88898001  0.42754220  1
  Te  Te152  1  0.94090290  0.92391219  0.74763104  1
  Te  Te153  1  0.21253138  0.06011826  0.25876148  1
  Te  Te154  1  0.24550679  0.06775984  0.58275231  1
  Te  Te155  1  0.27913655  0.07573659  0.91580501  1
  Te  Te156  1  0.22674147  0.41684139  0.24992491  1
  Te  Te157  1  0.23816158  0.43829844  0.60421783  1
  Te  Te158  1  0.23748761  0.44189921  0.92715514  1
  Te  Te159  1  0.23887440  0.75033767  0.29805010  1
  Te  Te160  1  0.23275925  0.70411014  0.55475379  1
  Te  Te161  1  0.23643234  0.71889538  0.90661717  1
  Te  Te162  1  0.58268435  0.08806642  0.26485479  1
  Te  Te163  1  0.55684863  0.06503774  0.58063270  1
  Te  Te164  1  0.58727763  0.11493609  0.93722964  1
  Te  Te165  1  0.55155709  0.41795136  0.22459990  1
  Te  Te166  1  0.58790015  0.40732615  0.58991899  1
  Te  Te167  1  0.59170646  0.42706816  0.91339917  1
  Te  Te168  1  0.58356430  0.75921454  0.23150039  1
  Te  Te169  1  0.58526840  0.74338517  0.54496042  1
  Te  Te170  1  0.61724988  0.75066199  0.92541600  1
  Te  Te171  1  0.93054386  0.07446947  0.26500642  1
  Te  Te172  1  0.90239244  0.07813729  0.58475007  1
  Te  Te173  1  0.93833685  0.08581875  0.91467886  1
  Te  Te174  1  0.89192477  0.41875364  0.25303415  1
  Te  Te175  1  0.92085867  0.41028367  0.56677590  1
  Te  Te176  1  0.92489790  0.46817972  0.93672916  1
  Te  Te177  1  0.88176874  0.74304481  0.27067213  1
  Te  Te178  1  0.93817456  0.73907372  0.58730480  1
  Te  Te179  1  0.92659670  0.75940790  0.90441981  1
