# generated using pymatgen
data_In2Te3
_symmetry_space_group_name_H-M   'P 1'
_cell_length_a   18.90593577
_cell_length_b   18.90685506
_cell_length_c   18.88990654
_cell_angle_alpha   90.08704393
_cell_angle_beta   89.98492262
_cell_angle_gamma   89.95174589
_symmetry_Int_Tables_number   1
_chemical_formula_structural   In2Te3
_chemical_formula_sum   'In72 Te108'
_cell_volume   6752.22043267
_cell_formula_units_Z   36
loop_
 _symmetry_equiv_pos_site_id
 _symmetry_equiv_pos_as_xyz
  1  'x, y, z'
loop_
 _atom_site_type_symbol
 _atom_site_label
 _atom_site_symmetry_multiplicity
 _atom_site_fract_x
 _atom_site_fract_y
 _atom_site_fract_z
 _atom_site_occupancy
  In  In0  1  0.83985876  -0.01087023  0.50648121  1
  In  In1  1  0.51169900  0.49129811  0.30657355  1
  In  In2  1  0.01970722  0.49105434  0.18093224  1
  In  In3  1  0.64887061  0.47781221  0.49635502  1
  In  In4  1  0.48224244  0.67996321  0.83933453  1
  In  In5  1  0.51596732  0.50604004  0.00602270  1
  In  In6  1  0.31420557  0.01157489  0.64827647  1
  In  In7  1  0.33259803  0.32887257  -0.00987958  1
  In  In8  1  0.63675069  0.66706132  0.69054747  1
  In  In9  1  0.66360115  0.18746285  0.14405506  1
  In  In10  1  0.32270627  0.49747360  0.81548055  1
  In  In11  1  0.48706170  0.30571023  0.50795420  1
  In  In12  1  0.01645903  -0.01304627  0.31438831  1
  In  In13  1  0.16880880  0.48138866  0.67141317  1
  In  In14  1  0.64666277  0.69441703  0.00330091  1
  In  In15  1  0.03486739  0.29554260  0.65859888  1
  In  In16  1  0.85875967  0.16773347  0.00607269  1
  In  In17  1  0.07707074  0.43755856  0.48879816  1
  In  In18  1  0.17275893  0.14988989  0.33508151  1
  In  In19  1  -0.00015170  0.85422963  0.83796736  1
  In  In20  1  0.50082254  -0.02611767  0.83314490  1
  In  In21  1  0.18590412  0.51910591  0.01601843  1
  In  In22  1  0.82436351  0.01367351  0.84059026  1
  In  In23  1  0.02605486  0.81577066  0.14238217  1
  In  In24  1  0.84400987  0.49272057  0.66027034  1
  In  In25  1  0.31841538  0.31854840  0.34130425  1
  In  In26  1  0.00304350  0.66570348  0.69134286  1
  In  In27  1  0.65754351  0.14829375  0.49820430  1
  In  In28  1  0.67831426  0.34567006  0.31134945  1
  In  In29  1  0.84997411  0.52397961  0.30431685  1
  In  In30  1  0.47833918  0.64804158  0.49145891  1
  In  In31  1  0.17318348  0.00110553  0.82111869  1
  In  In32  1  0.81909106  0.81350177  0.67273622  1
  In  In33  1  0.17792641  0.69546558  0.85938553  1
  In  In34  1  0.32871371  0.84803120  0.16981068  1
  In  In35  1  0.48863689  0.00020468  0.17177355  1
  In  In36  1  0.17035306  0.28594641  0.81988515  1
  In  In37  1  0.32604227  0.49876532  0.50185315  1
  In  In38  1  0.68196244  0.16001208  0.83799006  1
  In  In39  1  0.81395913  -0.01636775  0.19202007  1
  In  In40  1  0.49448525  0.15230158  0.66504867  1
  In  In41  1  0.32248549  0.83855884  0.48398608  1
  In  In42  1  0.63934180  0.84605170  0.47020871  1
  In  In43  1  0.32307632  0.68715325  0.33211913  1
  In  In44  1  0.00536465  0.85255303  0.50756868  1
  In  In45  1  0.80829164  0.66335164  0.48902942  1
  In  In46  1  0.34728716  0.00147697  0.00192758  1
  In  In47  1  0.01527504  0.01649198  0.01043484  1
  In  In48  1  0.02600315  0.00534016  0.65332089  1
  In  In49  1  0.32180315  0.52816375  0.14484844  1
  In  In50  1  0.49098885  0.13862979  0.34624179  1
  In  In51  1  0.48397773  0.83974562  0.66719089  1
  In  In52  1  0.85289212  0.66828502  0.14879964  1
  In  In53  1  0.16416198  0.16751448  -0.00225673  1
  In  In54  1  0.18335932  0.32719004  0.18204428  1
  In  In55  1  0.63966719  0.70864240  0.30394629  1
  In  In56  1  0.64234370  -0.01098050  0.01104474  1
  In  In57  1  0.85737838  0.31775050  0.48314440  1
  In  In58  1  0.32583254  0.68411152  0.00899760  1
  In  In59  1  0.16841972  0.67193183  0.51250156  1
  In  In60  1  0.83407438  0.83658379  -0.01302027  1
  In  In61  1  0.65557407  0.34175554  0.65376640  1
  In  In62  1  0.86210958  0.16631935  0.34073500  1
  In  In63  1  0.85642761  0.36480525  0.10275553  1
  In  In64  1  0.47494175  0.35154320  0.82998725  1
  In  In65  1  0.31051938  0.01466281  0.35351587  1
  In  In66  1  0.84166566  0.15628448  0.67637964  1
  In  In67  1  0.50368665  0.32068163  0.18538855  1
  In  In68  1  0.85806980  0.35067712  0.86660712  1
  In  In69  1  -0.00977721  0.66725841  0.33761525  1
  In  In70  1  0.66542276  0.51332710  0.84520046  1
  In  In71  1  0.83555505  0.64276652  0.85541254  1
  Te  Te72  1  0.09772254  0.09036486  0.10604289  1
  Te  Te73  1  0.09534779  0.05339905  0.42158286  1
  Te  Te74  1  0.07739587  0.09726534  0.75693204  1
  Te  Te75  1  0.10420416  0.40959589  0.08223662  1
  Te  Te76  1  0.09815157  0.38239372  0.35549221  1
  Te  Te77  1  0.07903238  0.40086350  0.76010137  1
  Te  Te78  1  0.09109268  0.71401312  0.05788103  1
  Te  Te79  1  0.08431015  0.75709003  0.41937680  1
  Te  Te80  1  0.09243217  0.77130989  0.74934755  1
  Te  Te81  1  0.43712898  0.09571822  0.07331197  1
  Te  Te82  1  0.39134803  0.09986105  0.44554701  1
  Te  Te83  1  0.40929416  0.06751210  0.75745225  1
  Te  Te84  1  0.41555488  0.41652599  0.09324558  1
  Te  Te85  1  0.42842620  0.41492044  0.40922424  1
  Te  Te86  1  0.38426123  0.39991693  0.72372645  1
  Te  Te87  1  0.42211503  0.74667385  0.10694789  1
  Te  Te88  1  0.43342242  0.76263178  0.40492134  1
  Te  Te89  1  0.39627855  0.75159312  0.74479807  1
  Te  Te90  1  0.75511334  0.07230091  0.07438114  1
  Te  Te91  1  0.75984787  0.07743615  0.41147722  1
  Te  Te92  1  0.73231103  0.06621545  0.72921377  1
  Te  Te93  1  0.72363441  0.42364884  0.09173398  1
  Te  Te94  1  0.76501802  0.42250007  0.41446541  1
  Te  Te95  1  0.74961171  0.41515966  0.75507607  1
  Te  Te96  1  0.75061401  0.76651273  0.09078301  1
  Te  Te97  1  0.75070517  0.76437476  0.39547361  1
  Te  Te98  1  0.74166114  0.73529535  0.77742277  1
  Te  Te99  1  0.08438762  0.25361336  0.26683653  1
  Te  Te100  1  0.12306681  0.22735663  0.56135444  1
  Te  Te101  1  0.07282400  0.25846581  0.92536057  1
  Te  Te102  1  0.09027436  0.58635142  0.26787244  1
  Te  Te103  1  0.07301862  0.57679553  0.58761267  1
  Te  Te104  1  0.09219265  0.59564251  0.92825786  1
  Te  Te105  1  0.10735366  0.89516241  0.23927823  1
  Te  Te106  1  0.11496263  0.90547328  0.59180730  1
  Te  Te107  1  0.09916047  0.91698663  0.93202214  1
  Te  Te108  1  0.40665980  0.22834331  0.25554472  1
  Te  Te109  1  0.39191489  0.24306682  0.60298693  1
  Te  Te110  1  0.40369923  0.24263046  0.89552271  1
  Te  Te111  1  0.41393747  0.59168018  0.25074860  1
  Te  Te112  1  0.39331519  0.59042815  0.59640749  1
  Te  Te113  1  0.39923373  0.57091391  0.92653511  1
  Te  Te114  1  0.40817487  0.92530078  0.27631176  1
  Te  Te115  1  0.41651636  0.92820300  0.56413013  1
  Te  Te116  1  0.43281818  0.89445430  0.93991346  1
  Te  Te117  1  0.76432461  0.24095821  0.24591901  1
  Te  Te118  1  0.75326438  0.25042209  0.57973008  1
  Te  Te119  1  0.75772558  0.25425471  0.92993921  1
  Te  Te120  1  0.74513598  0.61088074  0.24224010  1
  Te  Te121  1  0.73291914  0.57641355  0.59650158  1
  Te  Te122  1  0.74191072  0.58111204  0.95695381  1
  Te  Te123  1  0.70553160  0.92083253  0.26885205  1
  Te  Te124  1  0.73976602  0.89981596  0.57702105  1
  Te  Te125  1  0.73194887  0.91549258  0.90807088  1
  Te  Te126  1  0.26636365  0.23836845  0.09133427  1
  Te  Te127  1  0.24452785  0.23344581  0.43836609  1
  Te  Te128  1  0.26504651  0.24074126  0.71660935  1
  Te  Te129  1  0.21551353  0.63944466  0.11577772  1
  Te  Te130  1  0.24102262  0.58435297  0.41011567  1
  Te  Te131  1  0.22910398  0.59562668  0.74947953  1
  Te  Te132  1  0.24636887  0.95163472  0.10060180  1
  Te  Te133  1  0.21771207  0.94021734  0.44653295  1
  Te  Te134  1  0.26601730  0.91392286  0.74701287  1
  Te  Te135  1  0.55671722  0.25118651  0.06702609  1
  Te  Te136  1  0.59553077  0.26021111  0.40699107  1
  Te  Te137  1  0.58684648  0.24838978  0.75162497  1
  Te  Te138  1  0.56345853  0.61264892  0.09527526  1
  Te  Te139  1  0.59747242  0.58581549  0.40193517  1
  Te  Te140  1  0.55070838  0.56470845  0.75986119  1
  Te  Te141  1  0.58676411  0.89784050  0.11626374  1
  Te  Te142  1  0.59551191  0.94510694  0.37229974  1
  Te  Te143  1  0.59271574  0.90122245  0.74353494  1
  Te  Te144  1  0.94648785  0.24865686  0.08924330  1
  Te  Te145  1  0.96304628  0.23691891  0.42115649  1
  Te  Te146  1  0.91366803  0.26174485  0.75380388  1
  Te  Te147  1  0.93517453  0.56647301  0.08062785  1
  Te  Te148  1  0.91610248  0.57205572  0.43295408  1
  Te  Te149  1  0.92867229  0.55805324  0.76945280  1
  Te  Te150  1  0.91622090  0.92187952  0.08305757  1
  Te  Te151  1  0.91359894  0.90909974  0.40078900  1
  Te  Te152  1  0.90680216  0.92252769  0.73666051  1
  Te  Te153  1  0.24408144  0.06850605  0.23117801  1
  Te  Te154  1  0.20404925  0.12003416  0.63927872  1
  Te  Te155  1  0.25991831  0.08879942  0.90939118  1
  Te  Te156  1  0.26714865  0.43209874  0.25330613  1
  Te  Te157  1  0.21690582  0.40579859  0.54996073  1
  Te  Te158  1  0.23535241  0.41366726  0.90837723  1
  Te  Te159  1  0.23257407  0.78623238  0.26917521  1
  Te  Te160  1  0.28128748  0.73594533  0.58297202  1
  Te  Te161  1  0.27279576  0.78947912  0.92178031  1
  Te  Te162  1  0.59248907  0.09461430  0.24294148  1
  Te  Te163  1  0.57297001  0.06245794  0.57868724  1
  Te  Te164  1  0.57556488  0.08589367  0.91509793  1
  Te  Te165  1  0.61798225  0.43779791  0.20495321  1
  Te  Te166  1  0.54568577  0.42536305  0.59162374  1
  Te  Te167  1  0.58876737  0.40482569  0.91935785  1
  Te  Te168  1  0.54734814  0.77064672  0.20648330  1
  Te  Te169  1  0.58145583  0.73849214  0.56932106  1
  Te  Te170  1  0.55834223  0.77962799  0.91896173  1
  Te  Te171  1  0.92496420  0.07898845  0.23330064  1
  Te  Te172  1  0.93100144  0.09249704  0.57143522  1
  Te  Te173  1  0.93783534  0.09178006  0.90019010  1
  Te  Te174  1  0.91426789  0.40307474  0.24740228  1
  Te  Te175  1  0.93848690  0.40039156  0.58379741  1
  Te  Te176  1  0.90596519  0.43785858  0.97577336  1
  Te  Te177  1  0.92198073  0.76435427  0.24269768  1
  Te  Te178  1  0.91580131  0.73876116  0.58106070  1
  Te  Te179  1  0.93120083  0.74275869  0.91864786  1
