# generated using pymatgen
data_In2Te3
_symmetry_space_group_name_H-M   'P 1'
_cell_length_a   18.86667135
_cell_length_b   18.87803521
_cell_length_c   18.86402663
_cell_angle_alpha   89.91903684
_cell_angle_beta   90.00707706
_cell_angle_gamma   90.04860358
_symmetry_Int_Tables_number   1
_chemical_formula_structural   In2Te3
_chemical_formula_sum   'In72 Te108'
_cell_volume   6718.70981082
_cell_formula_units_Z   36
loop_
 _symmetry_equiv_pos_site_id
 _symmetry_equiv_pos_as_xyz
  1  'x, y, z'
loop_
 _atom_site_type_symbol
 _atom_site_label
 _atom_site_symmetry_multiplicity
 _atom_site_fract_x
 _atom_site_fract_y
 _atom_site_fract_z
 _atom_site_occupancy
  In  In0  1  0.65864987  0.68832052  -0.03040872  1
  In  In1  1  0.17294104  0.14991207  0.68406973  1
  In  In2  1  0.84241789  0.32728865  0.80876777  1
  In  In3  1  -0.01527679  0.00541271  0.33720778  1
  In  In4  1  0.81997390  0.50125121  0.64597541  1
  In  In5  1  0.50172228  0.48587772  0.01117076  1
  In  In6  1  0.32707391  0.67569502  0.32489494  1
  In  In7  1  0.33245570  0.33415628  0.31618022  1
  In  In8  1  0.16137541  0.35054272  0.48750207  1
  In  In9  1  0.65096240  0.15975774  0.79770504  1
  In  In10  1  0.50289764  0.84843290  0.32147572  1
  In  In11  1  0.20069096  0.30132997  0.15152487  1
  In  In12  1  -0.00053210  0.67512955  0.68141457  1
  In  In13  1  0.33386510  0.68518232  0.01695661  1
  In  In14  1  0.50486123  0.30449107  0.17620218  1
  In  In15  1  0.67231352  0.34269913  0.34408598  1
  In  In16  1  0.01922049  0.17541787  0.83401299  1
  In  In17  1  0.63041900  0.65044609  0.35779672  1
  In  In18  1  0.01200212  0.81703004  0.52061313  1
  In  In19  1  0.50092565  0.68410297  0.82617446  1
  In  In20  1  0.48892490  -0.00094087  0.83158561  1
  In  In21  1  0.47957060  0.31961912  0.83697827  1
  In  In22  1  0.81263956  0.64701585  0.17257515  1
  In  In23  1  0.64987887  0.32755816  0.01715621  1
  In  In24  1  0.34902521  0.67463326  0.63520424  1
  In  In25  1  0.83291938  0.66702384  0.82785215  1
  In  In26  1  0.67104529  0.66894737  0.64152603  1
  In  In27  1  0.50123596  0.83854133  0.67714714  1
  In  In28  1  0.67304153  0.48073747  0.17299581  1
  In  In29  1  -0.01580104  0.33770246  0.65035956  1
  In  In30  1  0.51114687  0.30623020  0.49677779  1
  In  In31  1  0.18058113  0.32657007  0.84046786  1
  In  In32  1  0.49528386  0.67082216  0.16948935  1
  In  In33  1  0.16928796  0.65774168  0.50376488  1
  In  In34  1  0.83430805  0.01498415  0.83304931  1
  In  In35  1  0.52017628  0.02682150  0.51421021  1
  In  In36  1  0.82278109  0.83534851  0.33292808  1
  In  In37  1  0.15375273  0.48291158  0.65705211  1
  In  In38  1  0.69723473  0.49273295  0.81397693  1
  In  In39  1  0.34515396  0.50061752  0.51117937  1
  In  In40  1  0.63446842  0.84323642  0.84500095  1
  In  In41  1  0.85381794  0.64255401  0.45906230  1
  In  In42  1  0.16599461  0.50374300  0.00538207  1
  In  In43  1  0.17151470  0.66297108  0.85418933  1
  In  In44  1  0.33508069  0.14020565  0.85398892  1
  In  In45  1  0.34665444  0.85796051  0.49027451  1
  In  In46  1  0.65035656  0.00413822  0.32657359  1
  In  In47  1  -0.03233110  0.17967768  0.50400203  1
  In  In48  1  0.35366519  0.16009512  0.49630639  1
  In  In49  1  0.17346155  0.15121634  0.30686874  1
  In  In50  1  0.01252582  0.83275051  0.16875577  1
  In  In51  1  0.31545061  0.50969249  0.83324937  1
  In  In52  1  0.03658355  0.85722175  0.86554015  1
  In  In53  1  0.02652496  0.66135144  0.02869537  1
  In  In54  1  0.20047086  0.88207785  0.70023534  1
  In  In55  1  -0.02177403  0.33590726  0.35642586  1
  In  In56  1  -0.00194395  0.33470879  -0.01910548  1
  In  In57  1  0.82131427  0.17263801  -0.00889969  1
  In  In58  1  0.20332171  0.00187848  0.15239651  1
  In  In59  1  0.16304225  -0.01345005  0.49882257  1
  In  In60  1  0.82448967  0.86216210  0.66304320  1
  In  In61  1  0.52315533  0.47073802  0.64937544  1
  In  In62  1  0.82247962  0.31400750  0.18691787  1
  In  In63  1  0.79857096  0.04647138  0.52175087  1
  In  In64  1  0.01378798  0.51151645  0.18735212  1
  In  In65  1  0.47822480  -0.00483732  0.14754027  1
  In  In66  1  0.00725747  0.14461400  0.18251180  1
  In  In67  1  0.18287619  0.83549119  0.35157676  1
  In  In68  1  0.65703333  0.00450578  0.00652662  1
  In  In69  1  0.33052401  0.49939489  0.17476862  1
  In  In70  1  0.84413902  0.00762637  0.17599733  1
  In  In71  1  0.85343752  0.83027575  0.01346222  1
  Te  Te72  1  0.09844027  0.08261013  0.08564103  1
  Te  Te73  1  0.08038462  0.09324743  0.42188502  1
  Te  Te74  1  0.08531661  0.06078669  0.76484119  1
  Te  Te75  1  0.08356588  0.40615167  0.08878541  1
  Te  Te76  1  0.06657209  0.43897972  0.41772151  1
  Te  Te77  1  0.07614323  0.40188637  0.75895151  1
  Te  Te78  1  0.10952087  0.77249201  0.07480495  1
  Te  Te79  1  0.07809975  0.73820252  0.40842870  1
  Te  Te80  1  0.10061412  0.76342296  0.75275149  1
  Te  Te81  1  0.38447151  0.08491745  0.06824767  1
  Te  Te82  1  0.43421101  0.07687755  0.40435959  1
  Te  Te83  1  0.42550266  0.09968177  0.74340808  1
  Te  Te84  1  0.41040914  0.39998717  0.09343192  1
  Te  Te85  1  0.41867368  0.40458226  0.41948712  1
  Te  Te86  1  0.41336364  0.43012553  0.74940432  1
  Te  Te87  1  0.39877547  0.77283813  0.11929633  1
  Te  Te88  1  0.42354181  0.75237849  0.41409223  1
  Te  Te89  1  0.39179405  0.75951325  0.75486946  1
  Te  Te90  1  0.74483514  0.09210151  0.09491394  1
  Te  Te91  1  0.72184123  0.10901928  0.40777140  1
  Te  Te92  1  0.75779075  0.08341875  0.72444382  1
  Te  Te93  1  0.76299959  0.40826230  0.07526451  1
  Te  Te94  1  0.78248065  0.39006188  0.43222823  1
  Te  Te95  1  0.74013862  0.38787628  0.71311723  1
  Te  Te96  1  0.74331176  0.75082992  0.08041053  1
  Te  Te97  1  0.74347973  0.74165597  0.41998256  1
  Te  Te98  1  0.73459919  0.75827542  0.75633396  1
  Te  Te99  1  0.07626986  0.25929273  0.25868305  1
  Te  Te100  1  0.09086923  0.24719975  0.58476000  1
  Te  Te101  1  0.10867439  0.23815603  0.94111603  1
  Te  Te102  1  0.06606128  0.61846071  0.27011224  1
  Te  Te103  1  0.06295457  0.57886392  0.58048784  1
  Te  Te104  1  0.06916176  0.56741327  0.90803922  1
  Te  Te105  1  0.09158020  0.93037105  0.25979502  1
  Te  Te106  1  0.07955663  0.91966041  0.60705354  1
  Te  Te107  1  0.11837758  0.94656537  0.94626376  1
  Te  Te108  1  0.41901093  0.22433218  0.26830694  1
  Te  Te109  1  0.41832966  0.24645469  0.59606096  1
  Te  Te110  1  0.39796956  0.24713494  0.93879282  1
  Te  Te111  1  0.42590285  0.57444058  0.26499488  1
  Te  Te112  1  0.46064962  0.59259569  0.56631489  1
  Te  Te113  1  0.41844003  0.58483160  0.92280304  1
  Te  Te114  1  0.39648141  0.90018042  0.23330630  1
  Te  Te115  1  0.41890751  0.93808714  0.59495992  1
  Te  Te116  1  0.39029119  0.92937539  0.91864183  1
  Te  Te117  1  0.70098257  0.24768851  0.23303898  1
  Te  Te118  1  0.75417515  0.17804728  0.59139165  1
  Te  Te119  1  0.73334312  0.25418819  0.89738706  1
  Te  Te120  1  0.73829616  0.56780452  0.27889181  1
  Te  Te121  1  0.73794869  0.57572028  0.54287563  1
  Te  Te122  1  0.75634832  0.57934562  0.92639350  1
  Te  Te123  1  0.73902615  0.91625981  0.23567386  1
  Te  Te124  1  0.73205670  0.92032515  0.56687128  1
  Te  Te125  1  0.75622742  0.91211901  0.91903819  1
  Te  Te126  1  0.29030446  0.21024813  0.07875118  1
  Te  Te127  1  0.24198539  0.24360642  0.41427322  1
  Te  Te128  1  0.26936689  0.24496360  0.75186390  1
  Te  Te129  1  0.23982089  0.59588718  0.09976335  1
  Te  Te130  1  0.25264602  0.57070079  0.41248079  1
  Te  Te131  1  0.24633195  0.59156540  0.72275280  1
  Te  Te132  1  0.29761601  0.95402095  0.04408104  1
  Te  Te133  1  0.27087978  0.95144022  0.39649800  1
  Te  Te134  1  0.29205852  0.95655407  0.79221262  1
  Te  Te135  1  0.56458036  0.22178910  0.06906920  1
  Te  Te136  1  0.60316057  0.22227415  0.41134252  1
  Te  Te137  1  0.55525217  0.24947632  0.72843618  1
  Te  Te138  1  0.59417726  0.58570173  0.08061636  1
  Te  Te139  1  0.55523935  0.56090083  0.44510266  1
  Te  Te140  1  0.58700147  0.58478646  0.75032710  1
  Te  Te141  1  0.57740140  0.90691258  0.07997565  1
  Te  Te142  1  0.58612753  0.91366043  0.43115282  1
  Te  Te143  1  0.59856457  0.94059639  0.73680478  1
  Te  Te144  1  0.92225786  0.24248066  0.08590492  1
  Te  Te145  1  0.86639150  0.25902723  0.42510282  1
  Te  Te146  1  0.91902214  0.22431847  0.72968595  1
  Te  Te147  1  0.91604682  0.57392612  0.08651907  1
  Te  Te148  1  0.95502400  0.57796702  0.37348206  1
  Te  Te149  1  0.91406429  0.56642961  0.74751781  1
  Te  Te150  1  0.93818992  0.93595829  0.08099263  1
  Te  Te151  1  0.92123937  0.90185894  0.42780719  1
  Te  Te152  1  0.92089642  0.90585575  0.77044289  1
  Te  Te153  1  0.28911188  0.10373770  0.22612168  1
  Te  Te154  1  0.25547092  0.07323622  0.58250573  1
  Te  Te155  1  0.21119712  0.05552076  0.88497797  1
  Te  Te156  1  0.22575844  0.41863629  0.24970934  1
  Te  Te157  1  0.26254622  0.40007422  0.59130213  1
  Te  Te158  1  0.26477263  0.41092341  0.93679600  1
  Te  Te159  1  0.24384820  0.76210262  0.23946490  1
  Te  Te160  1  0.24469341  0.77161819  0.57468596  1
  Te  Te161  1  0.25233339  0.76310619  0.92206864  1
  Te  Te162  1  0.54722866  0.07890436  0.25013292  1
  Te  Te163  1  0.60965161  0.13952692  0.56661050  1
  Te  Te164  1  0.57681523  0.09397149  0.91445434  1
  Te  Te165  1  0.56580553  0.41843591  0.25715220  1
  Te  Te166  1  0.61149513  0.39963434  0.55757518  1
  Te  Te167  1  0.58766979  0.42290074  0.90258785  1
  Te  Te168  1  0.59710919  0.75130055  0.24889527  1
  Te  Te169  1  0.57532261  0.75958015  0.57729678  1
  Te  Te170  1  0.53702666  0.77691543  0.94196441  1
  Te  Te171  1  0.89186493  0.10968704  0.27832680  1
  Te  Te172  1  0.93400911  0.05991831  0.58091897  1
  Te  Te173  1  0.92841349  0.08763327  0.92624988  1
  Te  Te174  1  0.90466144  0.42132294  0.25261530  1
  Te  Te175  1  0.90225922  0.41561493  0.55339164  1
  Te  Te176  1  0.90403006  0.41791495  0.90585751  1
  Te  Te177  1  0.90578700  0.74908211  0.23967201  1
  Te  Te178  1  0.89518133  0.73741823  0.58857114  1
  Te  Te179  1  0.93286586  0.73931039  0.91868816  1
