# generated using pymatgen
data_In2Te3
_symmetry_space_group_name_H-M   'P 1'
_cell_length_a   18.77815095
_cell_length_b   18.79250013
_cell_length_c   18.78689407
_cell_angle_alpha   90.02497978
_cell_angle_beta   90.02733525
_cell_angle_gamma   90.06230309
_symmetry_Int_Tables_number   1
_chemical_formula_structural   In2Te3
_chemical_formula_sum   'In72 Te108'
_cell_volume   6629.67176233
_cell_formula_units_Z   36
loop_
 _symmetry_equiv_pos_site_id
 _symmetry_equiv_pos_as_xyz
  1  'x, y, z'
loop_
 _atom_site_type_symbol
 _atom_site_label
 _atom_site_symmetry_multiplicity
 _atom_site_fract_x
 _atom_site_fract_y
 _atom_site_fract_z
 _atom_site_occupancy
  In  In0  1  0.35429759  0.66184433  0.65012034  1
  In  In1  1  -0.00908527  0.14349463  0.51259667  1
  In  In2  1  0.51020719  -0.00188246  0.15943868  1
  In  In3  1  0.50687047  -0.01412485  0.80721646  1
  In  In4  1  -0.00427635  0.67922369  0.65635826  1
  In  In5  1  -0.00148699  0.47866470  0.82884777  1
  In  In6  1  0.83046975  0.50130324  -0.00560296  1
  In  In7  1  0.67237683  -0.02180181  0.34091261  1
  In  In8  1  -0.00570664  0.33853571  0.31394381  1
  In  In9  1  0.84802024  0.34288343  0.15593696  1
  In  In10  1  -0.00770257  0.33537899  0.68466529  1
  In  In11  1  0.80051549  0.32377184  0.50149972  1
  In  In12  1  0.15846135  -0.01285531  0.49267918  1
  In  In13  1  -0.00106764  -0.00322688  0.64447927  1
  In  In14  1  0.64779849  0.81741680  0.51579632  1
  In  In15  1  0.16809014  0.18039713  -0.01446669  1
  In  In16  1  0.01519786  0.67400151  0.02332403  1
  In  In17  1  0.18113303  0.50515824  0.01799313  1
  In  In18  1  0.33462543  0.01360294  0.34193035  1
  In  In19  1  0.66364932  0.35454228  0.33122291  1
  In  In20  1  0.65629040  0.52137365  0.47649772  1
  In  In21  1  0.50157253  0.67643088  0.17814210  1
  In  In22  1  0.33774822  0.49871923  0.84524992  1
  In  In23  1  0.49339465  0.79768807  0.35168220  1
  In  In24  1  0.64424027  0.18295634  0.14118215  1
  In  In25  1  0.17799426  0.33476045  0.14751159  1
  In  In26  1  0.81972002  0.84483253  -0.00175318  1
  In  In27  1  0.65585938  0.67053079  -0.00939016  1
  In  In28  1  0.33344007  0.33588180  0.67675919  1
  In  In29  1  0.35676976  0.51902064  0.16584289  1
  In  In30  1  0.84048735  0.85108114  0.35490960  1
  In  In31  1  0.81054124  0.82409179  0.66593443  1
  In  In32  1  0.19523120  -0.00730257  0.81046997  1
  In  In33  1  0.33322191  0.81852053  0.17149704  1
  In  In34  1  0.17028504  -0.00062364  0.19824597  1
  In  In35  1  -0.00144908  0.82114857  0.14326890  1
  In  In36  1  0.51274809  0.33643297  0.15943642  1
  In  In37  1  0.49160738  0.17550773  0.33818659  1
  In  In38  1  0.17999561  0.81491494  0.33270170  1
  In  In39  1  0.49032847  0.51097766  0.66028794  1
  In  In40  1  0.80447461  0.67767859  0.81478215  1
  In  In41  1  0.18390797  0.17659864  0.69612546  1
  In  In42  1  0.18929910  0.67202710  0.84078927  1
  In  In43  1  0.00221467  -0.00418114  0.00590240  1
  In  In44  1  0.36535540  0.49551473  0.48614038  1
  In  In45  1  -0.02159781  0.16266040  0.18649635  1
  In  In46  1  0.65054907  0.15218423  0.50079539  1
  In  In47  1  0.18517293  0.16766526  0.37040871  1
  In  In48  1  0.66156555  0.15419011  0.83471409  1
  In  In49  1  0.50767074  0.50399523  -0.00487650  1
  In  In50  1  0.17239147  0.66200404  0.51272520  1
  In  In51  1  0.00562361  0.80855121  0.82684198  1
  In  In52  1  0.00432208  0.19742906  0.83937699  1
  In  In53  1  0.65212879  0.34734055  0.67925128  1
  In  In54  1  0.80655918  0.50338414  0.64773086  1
  In  In55  1  0.02550423  0.66357076  0.31559243  1
  In  In56  1  0.65564790  0.00017049  0.00345029  1
  In  In57  1  0.19407836  0.32954043  0.51249092  1
  In  In58  1  -0.00027625  0.52333578  0.49416149  1
  In  In59  1  0.17897995  0.81330463  -0.00496290  1
  In  In60  1  0.32493835  0.17408766  0.51478212  1
  In  In61  1  0.82388296  0.15470020  0.33336203  1
  In  In62  1  0.36686010  -0.02793534  0.64912010  1
  In  In63  1  0.50977861  0.65770293  0.82756784  1
  In  In64  1  0.82315785  0.17991263  0.02071732  1
  In  In65  1  0.81342929  0.01284181  0.82502350  1
  In  In66  1  0.80227248  0.64016120  0.19158275  1
  In  In67  1  0.82329226  0.66685396  0.49932908  1
  In  In68  1  0.16997391  0.49897533  0.32701336  1
  In  In69  1  0.66437061  0.34710886  -0.01063894  1
  In  In70  1  0.50686760  0.16412129  0.66296682  1
  In  In71  1  0.36594729  -0.00534692  0.00294382  1
  Te  Te72  1  0.08766062  0.08725640  0.09347654  1
  Te  Te73  1  0.06835643  0.07017618  0.40077571  1
  Te  Te74  1  0.07617032  0.07888641  0.75926014  1
  Te  Te75  1  0.07774758  0.43100625  0.09596092  1
  Te  Te76  1  0.08544579  0.40883450  0.42740490  1
  Te  Te77  1  0.10139470  0.41137759  0.74689527  1
  Te  Te78  1  0.12230994  0.73473524  0.11289019  1
  Te  Te79  1  0.07868399  0.75072202  0.42917434  1
  Te  Te80  1  0.10837089  0.75090094  0.73356307  1
  Te  Te81  1  0.41698728  0.09476140  0.09844870  1
  Te  Te82  1  0.42546291  0.08297887  0.44273059  1
  Te  Te83  1  0.40442422  0.08510211  0.74425960  1
  Te  Te84  1  0.41245244  0.41248350  0.07077535  1
  Te  Te85  1  0.40903799  0.38182104  0.40574081  1
  Te  Te86  1  0.43355897  0.41229337  0.76382773  1
  Te  Te87  1  0.42865850  0.75908974  0.07734560  1
  Te  Te88  1  0.40545619  0.74946572  0.46198696  1
  Te  Te89  1  0.42886175  0.75331462  0.74234768  1
  Te  Te90  1  0.74768494  0.07661113  0.10169716  1
  Te  Te91  1  0.75763111  0.06459559  0.43647792  1
  Te  Te92  1  0.71271163  0.06351393  0.72739712  1
  Te  Te93  1  0.73706737  0.42816672  0.09560193  1
  Te  Te94  1  0.76707632  0.43846617  0.40856281  1
  Te  Te95  1  0.76308948  0.41120776  0.75296844  1
  Te  Te96  1  0.75067005  0.74302015  0.08762300  1
  Te  Te97  1  0.73565370  0.74880665  0.40717782  1
  Te  Te98  1  0.70282429  0.76960283  0.75491153  1
  Te  Te99  1  0.09807394  0.24199940  0.25691475  1
  Te  Te100  1  0.09204723  0.23884572  0.58377553  1
  Te  Te101  1  0.09415529  0.28714938  0.91360625  1
  Te  Te102  1  0.08119050  0.55981429  0.22481003  1
  Te  Te103  1  0.09060920  0.56955175  0.60635551  1
  Te  Te104  1  0.07710751  0.59104136  0.91018866  1
  Te  Te105  1  0.07539961  0.89761065  0.25582669  1
  Te  Te106  1  0.08582881  0.89624854  0.58352891  1
  Te  Te107  1  0.08963208  0.91304045  0.91214975  1
  Te  Te108  1  0.41761822  0.25148720  0.23631416  1
  Te  Te109  1  0.42810029  0.26636122  0.58024278  1
  Te  Te110  1  0.34025788  0.22711546  0.92014858  1
  Te  Te111  1  0.42800534  0.59023735  0.27955643  1
  Te  Te112  1  0.45695926  0.60687465  0.54228969  1
  Te  Te113  1  0.40869288  0.60096474  0.93166274  1
  Te  Te114  1  0.41878985  0.91657691  0.25972203  1
  Te  Te115  1  0.43050384  0.87280884  0.55685345  1
  Te  Te116  1  0.42659439  0.90334540  0.90436325  1
  Te  Te117  1  0.75008133  0.25271343  0.24152482  1
  Te  Te118  1  0.73154181  0.23826660  0.60222093  1
  Te  Te119  1  0.75434419  0.25259144  0.90757663  1
  Te  Te120  1  0.70050402  0.57995638  0.28142827  1
  Te  Te121  1  0.71370357  0.61077489  0.59075845  1
  Te  Te122  1  0.73349375  0.57299357  0.90046610  1
  Te  Te123  1  0.74951061  0.89697049  0.24589967  1
  Te  Te124  1  0.75685993  0.90975399  0.55908742  1
  Te  Te125  1  0.72635954  0.91124305  0.89984366  1
  Te  Te126  1  0.27527899  0.25284662  0.06533891  1
  Te  Te127  1  0.28949083  0.28287672  0.39942878  1
  Te  Te128  1  0.26076147  0.26443477  0.79003973  1
  Te  Te129  1  0.26974228  0.60437238  0.08125515  1
  Te  Te130  1  0.25924277  0.58484053  0.41439468  1
  Te  Te131  1  0.26011857  0.57982475  0.74211214  1
  Te  Te132  1  0.24326417  0.92634446  0.08507200  1
  Te  Te133  1  0.26543877  0.90487305  0.42282056  1
  Te  Te134  1  0.26932333  0.89432331  0.73118607  1
  Te  Te135  1  0.55757375  0.24697271  0.03633608  1
  Te  Te136  1  0.58168323  0.26553121  0.42524687  1
  Te  Te137  1  0.56650934  0.25487756  0.76990840  1
  Te  Te138  1  0.59203703  0.57961660  0.09523225  1
  Te  Te139  1  0.57151239  0.58431384  0.36978129  1
  Te  Te140  1  0.59731756  0.57584054  0.73966548  1
  Te  Te141  1  0.58364552  0.89683686  0.08203422  1
  Te  Te142  1  0.56391953  0.91489823  0.42574003  1
  Te  Te143  1  0.59625764  0.89887157  0.72252628  1
  Te  Te144  1  0.94363202  0.25886487  0.07203187  1
  Te  Te145  1  0.91585564  0.25264696  0.41838114  1
  Te  Te146  1  0.90156360  0.23408841  0.74065683  1
  Te  Te147  1  0.91027881  0.58703670  0.09273005  1
  Te  Te148  1  0.91094108  0.59434502  0.39641427  1
  Te  Te149  1  0.90775755  0.58854963  0.74403212  1
  Te  Te150  1  0.89952026  0.92982270  0.09648002  1
  Te  Te151  1  0.93171797  0.95716855  0.40046020  1
  Te  Te152  1  0.91222117  0.90842988  0.76022440  1
  Te  Te153  1  0.26295191  0.10990517  0.24853297  1
  Te  Te154  1  0.23951398  0.07334595  0.59234453  1
  Te  Te155  1  0.26452803  0.08080423  0.91315810  1
  Te  Te156  1  0.26547475  0.41800984  0.24144234  1
  Te  Te157  1  0.26327352  0.43987116  0.58987205  1
  Te  Te158  1  0.25075179  0.41122500  0.92751329  1
  Te  Te159  1  0.27069933  0.72083216  0.26404638  1
  Te  Te160  1  0.26445564  0.75896570  0.57901926  1
  Te  Te161  1  0.28379469  0.76872757  0.90203153  1
  Te  Te162  1  0.59724751  0.09265775  0.26020089  1
  Te  Te163  1  0.58782663  0.05714783  0.59781592  1
  Te  Te164  1  0.55790621  0.08077800  0.91926948  1
  Te  Te165  1  0.56786837  0.43805550  0.25510250  1
  Te  Te166  1  0.58032985  0.42476106  0.56861691  1
  Te  Te167  1  0.58009281  0.42292918  0.89469691  1
  Te  Te168  1  0.59234331  0.77520075  0.24474606  1
  Te  Te169  1  0.54743686  0.78636619  0.62767821  1
  Te  Te170  1  0.56303350  0.76226739  0.92161491  1
  Te  Te171  1  0.91317275  0.05366118  0.26605720  1
  Te  Te172  1  0.88964070  0.08541734  0.60215795  1
  Te  Te173  1  0.90917083  0.08592454  0.92473399  1
  Te  Te174  1  0.90773323  0.43885352  0.25146229  1
  Te  Te175  1  0.91373097  0.41856478  0.57120656  1
  Te  Te176  1  0.90744785  0.40255260  0.91553687  1
  Te  Te177  1  0.91205471  0.74490539  0.24564064  1
  Te  Te178  1  0.91586538  0.76939464  0.56466030  1
  Te  Te179  1  0.90621130  0.73980701  0.92432073  1
