# generated using pymatgen
data_In2Te3
_symmetry_space_group_name_H-M   'P 1'
_cell_length_a   18.93115308
_cell_length_b   18.92246490
_cell_length_c   18.94100988
_cell_angle_alpha   90.22375720
_cell_angle_beta   89.98059537
_cell_angle_gamma   90.11853244
_symmetry_Int_Tables_number   1
_chemical_formula_structural   In2Te3
_chemical_formula_sum   'In72 Te108'
_cell_volume   6785.05920085
_cell_formula_units_Z   36
loop_
 _symmetry_equiv_pos_site_id
 _symmetry_equiv_pos_as_xyz
  1  'x, y, z'
loop_
 _atom_site_type_symbol
 _atom_site_label
 _atom_site_symmetry_multiplicity
 _atom_site_fract_x
 _atom_site_fract_y
 _atom_site_fract_z
 _atom_site_occupancy
  In  In0  1  0.15727468  0.47401716  0.01419973  1
  In  In1  1  -0.01071741  0.17448632  0.16791066  1
  In  In2  1  0.16202625  0.82406808  0.64024401  1
  In  In3  1  0.33479580  0.79968482  0.15059509  1
  In  In4  1  0.69159840  0.47548082  0.87315228  1
  In  In5  1  0.53648914  0.49596778  0.01409962  1
  In  In6  1  0.49630276  0.48505281  0.32094259  1
  In  In7  1  0.66756105  0.67285559  0.65580510  1
  In  In8  1  0.33702377  0.85329818  0.50425676  1
  In  In9  1  0.83318122  0.35078415  0.48334858  1
  In  In10  1  0.13828793  0.31967475  0.85235784  1
  In  In11  1  0.84495961  0.84296814  0.31503940  1
  In  In12  1  0.50098392  0.16559943  0.67529099  1
  In  In13  1  0.34454260  0.34347962  0.66582417  1
  In  In14  1  0.65536512  0.83213110  0.47262734  1
  In  In15  1  0.65833489  0.83926949  0.80850812  1
  In  In16  1  0.50945970  0.33202791  0.16338362  1
  In  In17  1  0.66916010  0.33133880  0.69602006  1
  In  In18  1  -0.01557560  0.67565509  0.66781825  1
  In  In19  1  0.49498715  0.64754985  0.48764280  1
  In  In20  1  0.49316639  0.82782552  0.00089684  1
  In  In21  1  0.68660704  -0.01554183  0.33164490  1
  In  In22  1  0.16560654  0.01141676  0.47204965  1
  In  In23  1  0.17539018  -0.00510021  0.17051809  1
  In  In24  1  0.00826679  0.01703999  0.32832662  1
  In  In25  1  0.15079416  0.64222819  0.17424508  1
  In  In26  1  0.64589404  0.20838529  0.47533769  1
  In  In27  1  0.65089155  0.03264508  -0.02845772  1
  In  In28  1  0.85431565  0.02431232  0.86541977  1
  In  In29  1  -0.00891930  0.02327787  0.67923330  1
  In  In30  1  0.51746792  -0.01351395  0.17364299  1
  In  In31  1  0.50600597  0.49763342  0.68529609  1
  In  In32  1  0.16428824  0.64955266  0.85912069  1
  In  In33  1  0.34085808  0.47991246  0.48492317  1
  In  In34  1  0.34214740  0.01994618  -0.01851660  1
  In  In35  1  0.81051766  0.67026251  0.86360228  1
  In  In36  1  0.81046020  0.34519746  0.16389004  1
  In  In37  1  0.15353003  0.17348263  0.02652707  1
  In  In38  1  0.35234256  0.20179149  0.86057661  1
  In  In39  1  -0.01355584  0.83433871  0.15131716  1
  In  In40  1  0.81054667  0.80764230  0.00641796  1
  In  In41  1  0.16261411  0.83002318  -0.01941414  1
  In  In42  1  0.35495989  0.82819438  0.84244889  1
  In  In43  1  -0.00407856  0.32886921  0.69137043  1
  In  In44  1  0.66766103  0.68365103  0.04027019  1
  In  In45  1  0.33820944  0.49185584  0.83642460  1
  In  In46  1  0.82706473  0.01483750  0.52633037  1
  In  In47  1  0.83831689  0.18231101  0.32109677  1
  In  In48  1  0.15299597  0.48009623  0.30755597  1
  In  In49  1  0.32470376  0.18817779  0.46141956  1
  In  In50  1  0.82903649  0.16829651  0.68575413  1
  In  In51  1  0.31594832  0.48857933  0.16952775  1
  In  In52  1  0.15875900  0.69113450  0.49437140  1
  In  In53  1  -0.01960255  0.83997642  0.82405794  1
  In  In54  1  0.83034270  0.50946951  0.31229800  1
  In  In55  1  0.00267108  0.49469609  0.46681550  1
  In  In56  1  0.66724289  0.01337660  0.66921551  1
  In  In57  1  0.16628488  0.32965185  0.17607617  1
  In  In58  1  0.34143022  0.17759048  0.18211527  1
  In  In59  1  0.16746406  0.16704946  0.65490641  1
  In  In60  1  0.01256982  0.82152286  0.47898921  1
  In  In61  1  0.18238346  0.50763333  0.66854301  1
  In  In62  1  0.49685845  0.66080031  0.82009434  1
  In  In63  1  0.82823477  0.52474654  0.65986365  1
  In  In64  1  0.64879866  0.49647191  0.49559303  1
  In  In65  1  -0.03737839  0.46790366  0.87366352  1
  In  In66  1  0.65197428  0.81141088  0.17687915  1
  In  In67  1  0.15010864  0.00043433  0.82059188  1
  In  In68  1  0.67075832  0.15571208  0.15343348  1
  In  In69  1  0.32423419  0.65958078  0.34588675  1
  In  In70  1  0.35195497  -0.01642527  0.66618401  1
  In  In71  1  0.33395964  -0.01063968  0.33301736  1
  Te  Te72  1  0.07024388  0.06378165  0.08862118  1
  Te  Te73  1  0.07742159  0.11285672  0.41598219  1
  Te  Te74  1  0.07244858  0.11799523  0.76530326  1
  Te  Te75  1  0.06259921  0.39613872  0.09495048  1
  Te  Te76  1  0.09038947  0.39184941  0.40912302  1
  Te  Te77  1  0.08610632  0.43801488  0.76405133  1
  Te  Te78  1  0.08675200  0.74420453  0.07703379  1
  Te  Te79  1  0.06513763  0.72099105  0.38415484  1
  Te  Te80  1  0.09275394  0.74940349  0.76078769  1
  Te  Te81  1  0.42239059  0.07746123  0.09676140  1
  Te  Te82  1  0.41366163  0.08142210  0.41518865  1
  Te  Te83  1  0.39631679  0.09443105  0.76049416  1
  Te  Te84  1  0.41644499  0.42086723  0.08004841  1
  Te  Te85  1  0.45228290  0.39468284  0.43306401  1
  Te  Te86  1  0.43841086  0.39383673  0.77438066  1
  Te  Te87  1  0.44646265  0.72452039  0.09291571  1
  Te  Te88  1  0.41744913  0.75589205  0.41387344  1
  Te  Te89  1  0.43082849  0.76018588  0.73717613  1
  Te  Te90  1  0.75905698  0.10383207  0.04409693  1
  Te  Te91  1  0.74961024  0.09787073  0.42548797  1
  Te  Te92  1  0.74460975  0.08684326  0.77941746  1
  Te  Te93  1  0.74250122  0.40371764  0.04361564  1
  Te  Te94  1  0.73150936  0.41749451  0.39677423  1
  Te  Te95  1  0.77839383  0.41774897  0.75854806  1
  Te  Te96  1  0.79112748  0.71203174  0.13926700  1
  Te  Te97  1  0.74395174  0.75133031  0.37969786  1
  Te  Te98  1  0.76475037  0.75158749  0.74219193  1
  Te  Te99  1  0.09433144  0.22870231  0.25521418  1
  Te  Te100  1  0.08380763  0.26806199  0.59030399  1
  Te  Te101  1  0.04989340  0.25104723  0.95080847  1
  Te  Te102  1  0.05231185  0.54186766  0.21885731  1
  Te  Te103  1  0.08113718  0.59032173  0.58644524  1
  Te  Te104  1  0.06539908  0.56765840  0.93704244  1
  Te  Te105  1  0.08164220  0.90915563  0.25217929  1
  Te  Te106  1  0.07882536  0.93734867  0.58596061  1
  Te  Te107  1  0.06261492  0.92663947  0.92000350  1
  Te  Te108  1  0.44660875  0.24187185  0.26642595  1
  Te  Te109  1  0.41415379  0.24279507  0.57808750  1
  Te  Te110  1  0.45548428  0.22598698  0.96253881  1
  Te  Te111  1  0.40821463  0.58413683  0.24557574  1
  Te  Te112  1  0.41247580  0.56781625  0.58878918  1
  Te  Te113  1  0.43377814  0.57264856  0.92364564  1
  Te  Te114  1  0.41378669  0.89782501  0.23905936  1
  Te  Te115  1  0.44353518  0.93490844  0.56414153  1
  Te  Te116  1  0.44311781  0.93522635  0.90549703  1
  Te  Te117  1  0.72465461  0.25536321  0.25565347  1
  Te  Te118  1  0.75395169  0.26031401  0.58339502  1
  Te  Te119  1  0.78735770  0.29010807  0.87260457  1
  Te  Te120  1  0.75234367  0.57509356  0.20402921  1
  Te  Te121  1  0.75056333  0.59687654  0.55314516  1
  Te  Te122  1  0.77018935  0.56678327  0.97402255  1
  Te  Te123  1  0.75541314  0.91655576  0.21590976  1
  Te  Te124  1  0.73553281  0.90884783  0.58186960  1
  Te  Te125  1  0.74635584  0.91341820  0.90929862  1
  Te  Te126  1  0.26451107  0.26098001  0.08139911  1
  Te  Te127  1  0.24633123  0.28970938  0.39352875  1
  Te  Te128  1  0.24828855  0.26142187  0.75357584  1
  Te  Te129  1  0.24748948  0.58264873  0.07257062  1
  Te  Te130  1  0.22906612  0.56796212  0.42062401  1
  Te  Te131  1  0.26625259  0.59917105  0.75649842  1
  Te  Te132  1  0.26343432  0.91686576  0.06744325  1
  Te  Te133  1  0.23220562  0.89539227  0.40356669  1
  Te  Te134  1  0.24589076  0.90300302  0.75348581  1
  Te  Te135  1  0.58354189  0.24189559  0.06808304  1
  Te  Te136  1  0.54862323  0.27713454  0.39095850  1
  Te  Te137  1  0.59350426  0.22984577  0.77370439  1
  Te  Te138  1  0.60565693  0.57442084  0.12620159  1
  Te  Te139  1  0.59376310  0.58870855  0.38876753  1
  Te  Te140  1  0.61751094  0.57242316  0.75934981  1
  Te  Te141  1  0.60369982  0.91399392  0.06833168  1
  Te  Te142  1  0.57089485  0.92725706  0.40003344  1
  Te  Te143  1  0.56814621  0.93426202  0.74407165  1
  Te  Te144  1  0.87444948  0.22828624  0.09094104  1
  Te  Te145  1  0.92366828  0.26593822  0.40622094  1
  Te  Te146  1  0.91039794  0.24803702  0.78825945  1
  Te  Te147  1  0.88520339  0.62984752  0.05160572  1
  Te  Te148  1  0.90693379  0.58853447  0.41230515  1
  Te  Te149  1  0.91506319  0.58731346  0.77287929  1
  Te  Te150  1  0.89972033  0.91127589  0.06112769  1
  Te  Te151  1  0.91189103  0.93302043  0.42695906  1
  Te  Te152  1  0.89192351  0.93079094  0.74341331  1
  Te  Te153  1  0.24469420  0.09236230  0.26329430  1
  Te  Te154  1  0.25752937  0.07155326  0.57871370  1
  Te  Te155  1  0.23242107  0.09917038  0.91225337  1
  Te  Te156  1  0.28174165  0.39056383  0.28047029  1
  Te  Te157  1  0.24108945  0.40465858  0.57410877  1
  Te  Te158  1  0.25098400  0.39970170  0.92024752  1
  Te  Te159  1  0.23821540  0.74151133  0.25128433  1
  Te  Te160  1  0.27166499  0.73799690  0.58436241  1
  Te  Te161  1  0.27140759  0.73681980  0.92926350  1
  Te  Te162  1  0.59051864  0.08322268  0.26168236  1
  Te  Te163  1  0.59129962  0.10245771  0.56889641  1
  Te  Te164  1  0.56199535  0.12806712  0.90346284  1
  Te  Te165  1  0.59821570  0.43466749  0.22560450  1
  Te  Te166  1  0.58104740  0.40205050  0.59376927  1
  Te  Te167  1  0.57751253  0.39413963  0.91461413  1
  Te  Te168  1  0.61055352  0.74385941  0.29896410  1
  Te  Te169  1  0.56996164  0.75001809  0.57307832  1
  Te  Te170  1  0.59711717  0.73835643  0.91442565  1
  Te  Te171  1  0.89825571  0.06957608  0.24001485  1
  Te  Te172  1  0.92701612  0.11727554  0.57948033  1
  Te  Te173  1  0.95546821  0.12150486  0.90515914  1
  Te  Te174  1  0.91580801  0.40720766  0.24805559  1
  Te  Te175  1  0.92455104  0.42917347  0.59101361  1
  Te  Te176  1  0.87162030  0.38113006  0.96102237  1
  Te  Te177  1  0.94220541  0.74374983  0.26116488  1
  Te  Te178  1  0.91774212  0.76776944  0.57687500  1
  Te  Te179  1  0.93106589  0.74114527  0.92884271  1
