# generated using pymatgen
data_In2Te3
_symmetry_space_group_name_H-M   'P 1'
_cell_length_a   18.77934922
_cell_length_b   18.78500110
_cell_length_c   18.78333479
_cell_angle_alpha   90.06705178
_cell_angle_beta   89.99130878
_cell_angle_gamma   89.99103693
_symmetry_Int_Tables_number   1
_chemical_formula_structural   In2Te3
_chemical_formula_sum   'In72 Te108'
_cell_volume   6626.19411484
_cell_formula_units_Z   36
loop_
 _symmetry_equiv_pos_site_id
 _symmetry_equiv_pos_as_xyz
  1  'x, y, z'
loop_
 _atom_site_type_symbol
 _atom_site_label
 _atom_site_symmetry_multiplicity
 _atom_site_fract_x
 _atom_site_fract_y
 _atom_site_fract_z
 _atom_site_occupancy
  In  In0  1  0.86786820  0.81886477  0.30380044  1
  In  In1  1  0.85180080  0.50435640  0.01673645  1
  In  In2  1  0.83982808  0.02580369  0.50631054  1
  In  In3  1  0.30719286  0.01576990  -0.00959752  1
  In  In4  1  0.69248160  0.49424418  0.84250588  1
  In  In5  1  0.68175963  0.63690507  0.30983746  1
  In  In6  1  0.15113665  0.01090109  0.14185546  1
  In  In7  1  0.50555140  0.67132806  0.81592247  1
  In  In8  1  -0.01356817  0.66385352  0.30701288  1
  In  In9  1  -0.01511388  0.51352184  0.83620162  1
  In  In10  1  0.47988744  0.33911110  0.84747756  1
  In  In11  1  0.83988005  0.65875670  0.49313453  1
  In  In12  1  0.67184578  0.33655737  0.67478733  1
  In  In13  1  0.50553774  0.48550140  0.34390643  1
  In  In14  1  0.85937123  0.48120050  0.30755103  1
  In  In15  1  0.16503094  0.84500305  0.32142492  1
  In  In16  1  0.85341853  0.31261325  0.83285966  1
  In  In17  1  0.31124021  0.17674204  0.51171048  1
  In  In18  1  0.16131000  0.83177239  0.68997878  1
  In  In19  1  0.32752774  0.68784137  0.33076174  1
  In  In20  1  0.31675939  0.00693559  0.69772245  1
  In  In21  1  0.30125626  0.30848475  0.69344800  1
  In  In22  1  0.32753437  0.00005082  0.31633128  1
  In  In23  1  0.32440360  0.31187792  0.33753297  1
  In  In24  1  0.30176997  0.46782809  0.86366986  1
  In  In25  1  0.67224645  0.32001475  0.31449823  1
  In  In26  1  0.50624755  0.83804243  -0.00733441  1
  In  In27  1  0.68053254  0.17467180  0.83422923  1
  In  In28  1  0.69017051  0.81752011  0.83362143  1
  In  In29  1  0.50941946  0.49645837  0.00828373  1
  In  In30  1  0.00208812  0.32132138  0.68519077  1
  In  In31  1  0.67262878  0.48484363  0.52641490  1
  In  In32  1  0.66250429  0.00582478  0.67083506  1
  In  In33  1  0.15056746  0.64614474  0.53061431  1
  In  In34  1  0.16144046  0.16979038  -0.01049303  1
  In  In35  1  0.13277236  0.68576362  0.13580634  1
  In  In36  1  0.86531719  -0.01852266  0.13876947  1
  In  In37  1  0.65006464  0.81548635  0.49416567  1
  In  In38  1  0.14149331  0.33764985  0.13864986  1
  In  In39  1  0.67732870  0.16116345  0.50768889  1
  In  In40  1  -0.00651613  0.18220284  0.51466459  1
  In  In41  1  0.01278121  0.33460883  0.31978032  1
  In  In42  1  0.14678224  0.48646674  0.33652282  1
  In  In43  1  0.02259072  0.83487889  0.50005051  1
  In  In44  1  0.48808744  0.18821663  -0.00051276  1
  In  In45  1  0.16248635  0.49793191  0.67051403  1
  In  In46  1  0.33142398  0.49750071  0.51252382  1
  In  In47  1  0.70808538  0.80294654  0.13189628  1
  In  In48  1  0.46294611  0.64742731  0.48460775  1
  In  In49  1  0.51387204  0.17823970  0.33339333  1
  In  In50  1  0.87572866  0.18289659  0.00611400  1
  In  In51  1  0.66958765  -0.02492885  -0.00285212  1
  In  In52  1  -0.00964201  0.01235708  0.31790257  1
  In  In53  1  0.69327219  0.48362944  0.17447007  1
  In  In54  1  0.00232277  0.82509981  0.85904331  1
  In  In55  1  0.33347806  0.49275618  0.13845716  1
  In  In56  1  0.15709336  0.00152197  0.50604448  1
  In  In57  1  0.68044857  0.67009420  0.68774062  1
  In  In58  1  0.66989423  0.17039690  0.15612907  1
  In  In59  1  0.32120223  0.67013424  0.66285215  1
  In  In60  1  0.32528912  0.67893123  -0.01960608  1
  In  In61  1  0.84216135  0.34444749  0.50890274  1
  In  In62  1  0.33250987  0.14861503  0.16586570  1
  In  In63  1  0.50935683  0.65812009  0.15666995  1
  In  In64  1  0.85294973  0.02301976  0.86202850  1
  In  In65  1  0.84325528  0.84295695  0.68538617  1
  In  In66  1  0.14221196  0.66622370  0.86226877  1
  In  In67  1  0.47751418  0.84153252  0.30745145  1
  In  In68  1  0.48306607  0.83707871  0.67622421  1
  In  In69  1  0.49723562  0.00393137  0.51171848  1
  In  In70  1  0.47176506  0.02067531  0.83292857  1
  In  In71  1  0.67571886  0.01853835  0.31881216  1
  Te  Te72  1  0.05605972  0.10801587  0.07842844  1
  Te  Te73  1  0.07544164  0.09183563  0.41587854  1
  Te  Te74  1  0.08712771  0.17098020  0.72092842  1
  Te  Te75  1  0.08778066  0.44334504  0.04877910  1
  Te  Te76  1  0.07258701  0.40832419  0.43477985  1
  Te  Te77  1  0.08856312  0.41507090  0.77331823  1
  Te  Te78  1  0.06447297  0.77685998  0.03326668  1
  Te  Te79  1  0.08905630  0.73590355  0.40261350  1
  Te  Te80  1  0.06376208  0.73075698  0.74741308  1
  Te  Te81  1  0.42564180  0.07025096  0.07311422  1
  Te  Te82  1  0.41423303  0.09003615  0.41271283  1
  Te  Te83  1  0.40811176  0.11645113  0.74235073  1
  Te  Te84  1  0.41275450  0.39708069  0.06088859  1
  Te  Te85  1  0.41480786  0.39930345  0.42916625  1
  Te  Te86  1  0.39277627  0.42070333  0.75142265  1
  Te  Te87  1  0.41542996  0.75151780  0.08276033  1
  Te  Te88  1  0.40701199  0.77607763  0.42868635  1
  Te  Te89  1  0.38964979  0.76003212  0.76791728  1
  Te  Te90  1  0.76125246  0.07788029  0.06559670  1
  Te  Te91  1  0.76960560  0.10787267  0.39732489  1
  Te  Te92  1  0.76724759  0.08443954  0.74709429  1
  Te  Te93  1  0.77262938  0.39479072  0.08578372  1
  Te  Te94  1  0.74684818  0.42997360  0.40250142  1
  Te  Te95  1  0.78092768  0.41573402  0.74649387  1
  Te  Te96  1  0.78625878  0.73636281  0.02517901  1
  Te  Te97  1  0.76087547  0.74806607  0.39670834  1
  Te  Te98  1  0.80058264  0.72070423  0.77680949  1
  Te  Te99  1  0.09464380  0.24047465  0.23884288  1
  Te  Te100  1  0.10140688  0.25881410  0.58721500  1
  Te  Te101  1  0.10026618  0.28095991  0.90843814  1
  Te  Te102  1  0.08223271  0.57248637  0.22885955  1
  Te  Te103  1  0.04915836  0.56738217  0.60133041  1
  Te  Te104  1  0.06394368  0.57283344  0.95120879  1
  Te  Te105  1  0.06545425  0.91183464  0.23118327  1
  Te  Te106  1  0.07098255  0.92903813  0.60907094  1
  Te  Te107  1  0.08254509  0.91313035  0.95534602  1
  Te  Te108  1  0.42257407  0.25258161  0.23659737  1
  Te  Te109  1  0.40230389  0.25294015  0.59900584  1
  Te  Te110  1  0.38689534  0.24019795  0.90630302  1
  Te  Te111  1  0.41949741  0.58421576  0.25907477  1
  Te  Te112  1  0.42476230  0.57034026  0.60954604  1
  Te  Te113  1  0.42048209  0.57803880  0.91076112  1
  Te  Te114  1  0.39486506  0.91815560  0.21392924  1
  Te  Te115  1  0.39428305  0.92456045  0.59077006  1
  Te  Te116  1  0.40220699  0.91368633  0.91229706  1
  Te  Te117  1  0.77218955  0.25175697  0.22999956  1
  Te  Te118  1  0.76841196  0.24399992  0.59803056  1
  Te  Te119  1  0.75692473  0.25482893  0.93626024  1
  Te  Te120  1  0.79706439  0.59749083  0.21620193  1
  Te  Te121  1  0.76846847  0.57711026  0.60044197  1
  Te  Te122  1  0.75729301  0.59085457  0.93586132  1
  Te  Te123  1  0.75712608  0.91430811  0.24192748  1
  Te  Te124  1  0.74682657  0.91534728  0.58044891  1
  Te  Te125  1  0.78111034  0.90268412  0.92349963  1
  Te  Te126  1  0.25637079  0.24892625  0.08238543  1
  Te  Te127  1  0.22074165  0.24466466  0.41646675  1
  Te  Te128  1  0.20488564  0.24570427  0.79168507  1
  Te  Te129  1  0.24051492  0.59164538  0.07266953  1
  Te  Te130  1  0.24871910  0.58406384  0.41496521  1
  Te  Te131  1  0.24624826  0.58721668  0.76817780  1
  Te  Te132  1  0.23573727  0.91236288  0.07040396  1
  Te  Te133  1  0.25321047  0.91746550  0.42223498  1
  Te  Te134  1  0.21969344  0.93204759  0.78295621  1
  Te  Te135  1  0.58717035  0.26418380  0.07712452  1
  Te  Te136  1  0.59120601  0.26392480  0.43298075  1
  Te  Te137  1  0.57553085  0.25273330  0.75892030  1
  Te  Te138  1  0.61461739  0.58114662  0.08125066  1
  Te  Te139  1  0.59282345  0.58871677  0.43028698  1
  Te  Te140  1  0.58949614  0.56212612  0.74895422  1
  Te  Te141  1  0.59029390  0.90248153  0.10301185  1
  Te  Te142  1  0.58052404  0.93148528  0.40415518  1
  Te  Te143  1  0.58645566  0.91076953  0.76462380  1
  Te  Te144  1  0.90894020  0.28371285  0.10964534  1
  Te  Te145  1  0.91170945  0.25535556  0.40716822  1
  Te  Te146  1  0.94059814  0.20715127  0.77107230  1
  Te  Te147  1  0.91701597  0.60091115  0.11337312  1
  Te  Te148  1  0.93194692  0.56710662  0.41286809  1
  Te  Te149  1  0.89994629  0.59992041  0.75372517  1
  Te  Te150  1  0.95565587  0.90584961  0.04848537  1
  Te  Te151  1  0.91464129  0.91474209  0.42224993  1
  Te  Te152  1  0.93666560  0.93062756  0.76852479  1
  Te  Te153  1  0.22243227  0.09088690  0.25488349  1
  Te  Te154  1  0.22666996  0.09127802  0.60694965  1
  Te  Te155  1  0.22178757  0.07863613  0.88468871  1
  Te  Te156  1  0.25190517  0.41655439  0.24462137  1
  Te  Te157  1  0.23928432  0.40089803  0.58178135  1
  Te  Te158  1  0.20132903  0.39797952  0.94962359  1
  Te  Te159  1  0.24152577  0.75423762  0.22469649  1
  Te  Te160  1  0.23845605  0.76239583  0.57442860  1
  Te  Te161  1  0.23014232  0.77269618  0.91869024  1
  Te  Te162  1  0.56857002  0.07937206  0.23049774  1
  Te  Te163  1  0.56903280  0.10387523  0.60147955  1
  Te  Te164  1  0.59030342  0.07720778  0.91525397  1
  Te  Te165  1  0.57303423  0.40676906  0.23382286  1
  Te  Te166  1  0.56957830  0.40288008  0.58974967  1
  Te  Te167  1  0.59793997  0.40465030  0.92274859  1
  Te  Te168  1  0.58816535  0.74973185  0.25327887  1
  Te  Te169  1  0.56735779  0.73642433  0.59860501  1
  Te  Te170  1  0.59468984  0.73539619  0.92181095  1
  Te  Te171  1  0.90576557  0.09248103  0.22816471  1
  Te  Te172  1  0.93162861  0.08143111  0.60555532  1
  Te  Te173  1  0.96782944  0.08925969  0.93285010  1
  Te  Te174  1  0.93946002  0.40566308  0.20548114  1
  Te  Te175  1  0.93014160  0.42251197  0.59718111  1
  Te  Te176  1  0.92871060  0.40213083  0.92914047  1
  Te  Te177  1  0.93180782  0.74466714  0.19056245  1
  Te  Te178  1  0.91911045  0.75614857  0.58136313  1
  Te  Te179  1  0.92707679  0.73459454  0.95287499  1
