# generated using pymatgen
data_In2Te3
_symmetry_space_group_name_H-M   'P 1'
_cell_length_a   18.91817973
_cell_length_b   18.93082692
_cell_length_c   18.93791758
_cell_angle_alpha   90.02865549
_cell_angle_beta   90.00946857
_cell_angle_gamma   90.06650562
_symmetry_Int_Tables_number   1
_chemical_formula_structural   In2Te3
_chemical_formula_sum   'In72 Te108'
_cell_volume   6782.35942778
_cell_formula_units_Z   36
loop_
 _symmetry_equiv_pos_site_id
 _symmetry_equiv_pos_as_xyz
  1  'x, y, z'
loop_
 _atom_site_type_symbol
 _atom_site_label
 _atom_site_symmetry_multiplicity
 _atom_site_fract_x
 _atom_site_fract_y
 _atom_site_fract_z
 _atom_site_occupancy
  In  In0  1  0.32721497  0.04113901  -0.03173773  1
  In  In1  1  0.80062036  0.51853487  0.30332180  1
  In  In2  1  0.82642688  0.83212706  0.01923106  1
  In  In3  1  0.17343477  0.33999269  0.49692906  1
  In  In4  1  0.84597482  0.66772304  0.87725112  1
  In  In5  1  0.15806259  -0.00565337  0.16214577  1
  In  In6  1  0.01317969  0.84638789  0.52410525  1
  In  In7  1  0.00739639  0.49278135  0.84060649  1
  In  In8  1  0.50957476  0.17494532  0.02597599  1
  In  In9  1  0.82846726  0.00262591  0.50531724  1
  In  In10  1  0.18455373  0.31881254  0.15854772  1
  In  In11  1  0.04703967  0.67073526  0.62381163  1
  In  In12  1  0.34321450  0.31761485  -0.00318287  1
  In  In13  1  0.35334135  0.32466128  0.32346358  1
  In  In14  1  0.15614246  0.82462431  0.00168197  1
  In  In15  1  0.65596521  0.50007685  0.49278360  1
  In  In16  1  0.18157066  0.49484361  0.01986583  1
  In  In17  1  0.68464671  0.16753267  0.81305008  1
  In  In18  1  0.67405918  0.68259505  0.68268542  1
  In  In19  1  0.34306332  0.52101813  0.82429920  1
  In  In20  1  0.66091913  0.00496320  0.01943983  1
  In  In21  1  0.17246575  0.84551740  0.68650749  1
  In  In22  1  0.50032494  0.02256702  0.49960383  1
  In  In23  1  0.18426331  0.15584808  0.67291473  1
  In  In24  1  0.50633582  0.65789218  0.46577307  1
  In  In25  1  0.50070869  -0.01588224  0.84145296  1
  In  In26  1  0.33248291  0.82341173  0.18310806  1
  In  In27  1  0.33728086  0.30594941  0.68867320  1
  In  In28  1  0.48084890  0.32850549  0.50160558  1
  In  In29  1  0.33922577  0.66644249  0.31279825  1
  In  In30  1  -0.00594750  0.82659244  0.15678022  1
  In  In31  1  0.81480721  0.83635631  0.30144266  1
  In  In32  1  0.33532761  0.00129430  0.67112196  1
  In  In33  1  0.83243326  0.16694327  0.65950008  1
  In  In34  1  -0.02933976  0.86674880  0.81499662  1
  In  In35  1  -0.01553563  0.51382028  0.16174302  1
  In  In36  1  0.50243502  0.34967966  0.16943758  1
  In  In37  1  0.14613074  0.33604481  0.82104917  1
  In  In38  1  0.65425054  0.83834789  0.16119583  1
  In  In39  1  0.51945308  0.16334853  0.68176084  1
  In  In40  1  0.32859080  0.69025383  0.64993619  1
  In  In41  1  0.06506859  0.13309800  0.86356095  1
  In  In42  1  0.32330067  0.65547028  0.00355237  1
  In  In43  1  0.17150684  0.15517168  0.34111431  1
  In  In44  1  0.50076069  0.83622175  0.33588981  1
  In  In45  1  -0.02008735  0.34363582  0.67390109  1
  In  In46  1  0.83037110  0.16010165  0.00319010  1
  In  In47  1  0.52389620  0.68815583  0.84976140  1
  In  In48  1  0.67104459  0.18558360  0.50712055  1
  In  In49  1  0.17506955  0.48635068  0.33613397  1
  In  In50  1  0.84160687  0.68688764  0.48096551  1
  In  In51  1  -0.02920529  0.34368439  0.32650386  1
  In  In52  1  0.00129151  -0.01489795  0.00576618  1
  In  In53  1  0.66900079  0.33050913  0.32889870  1
  In  In54  1  0.63810017  0.46394719  0.87540456  1
  In  In55  1  0.31697524  -0.03010379  0.34771276  1
  In  In56  1  0.49316832  0.83137070  0.66701086  1
  In  In57  1  0.48903778  0.48821796  0.66352655  1
  In  In58  1  0.01513290  0.67514745  0.36460090  1
  In  In59  1  0.50850228  0.63813063  0.14765707  1
  In  In60  1  0.68753302  0.84286451  0.49404467  1
  In  In61  1  0.32097291  0.48468445  0.48259062  1
  In  In62  1  0.82400234  0.16983233  0.33041804  1
  In  In63  1  0.82768601  0.33761789  0.83054323  1
  In  In64  1  0.79522838  0.49263311  0.01532185  1
  In  In65  1  0.83810663  0.50641810  0.67053870  1
  In  In66  1  0.16439592  0.65101072  0.83182163  1
  In  In67  1  0.51774938  0.13830409  0.28820520  1
  In  In68  1  0.00757065  -0.00225194  0.35260036  1
  In  In69  1  -0.01504951  0.17918121  0.16254132  1
  In  In70  1  0.66766665  0.84672082  0.85111495  1
  In  In71  1  0.02265130  0.17458020  0.47499145  1
  Te  Te72  1  0.08037889  0.09397062  0.08024521  1
  Te  Te73  1  0.11484137  0.05692208  0.44212744  1
  Te  Te74  1  0.07755512  0.06895135  0.72915007  1
  Te  Te75  1  0.08114802  0.41051479  0.09691763  1
  Te  Te76  1  0.06829731  0.41689500  0.42009579  1
  Te  Te77  1  0.08840440  0.43869327  0.72466636  1
  Te  Te78  1  0.08250963  0.73242091  0.08838296  1
  Te  Te79  1  0.10334439  0.78549737  0.42007299  1
  Te  Te80  1  0.07041692  0.74494985  0.75710227  1
  Te  Te81  1  0.41848305  0.07252746  0.07837302  1
  Te  Te82  1  0.41591985  0.08323641  0.39120301  1
  Te  Te83  1  0.41870906  0.08765601  0.76519637  1
  Te  Te84  1  0.42022170  0.42578800  0.06636504  1
  Te  Te85  1  0.43375749  0.43007446  0.39955908  1
  Te  Te86  1  0.42352288  0.40236351  0.76886232  1
  Te  Te87  1  0.41676413  0.74453439  0.08449795  1
  Te  Te88  1  0.40193639  0.75680959  0.41889758  1
  Te  Te89  1  0.41277892  0.74858018  0.76419445  1
  Te  Te90  1  0.74052671  0.09629501  0.10814338  1
  Te  Te91  1  0.73485309  0.08169813  0.41564148  1
  Te  Te92  1  0.77073671  0.06200125  0.74834888  1
  Te  Te93  1  0.69093919  0.40657184  0.08168896  1
  Te  Te94  1  0.75829616  0.41951420  0.41527754  1
  Te  Te95  1  0.73730786  0.43536541  0.75812885  1
  Te  Te96  1  0.74552350  0.73504985  0.09867447  1
  Te  Te97  1  0.73337594  0.74188798  0.39012010  1
  Te  Te98  1  0.76517030  0.75473530  0.77776004  1
  Te  Te99  1  0.08331995  0.25503418  0.26655175  1
  Te  Te100  1  0.08654160  0.25555384  0.59108653  1
  Te  Te101  1  0.06421855  0.26854047  0.92038280  1
  Te  Te102  1  0.07838577  0.57821309  0.26311337  1
  Te  Te103  1  0.11183746  0.58784625  0.52549511  1
  Te  Te104  1  0.08262187  0.58110384  0.93824221  1
  Te  Te105  1  0.08065188  0.90610758  0.25592675  1
  Te  Te106  1  0.07594176  0.93922143  0.62116239  1
  Te  Te107  1  0.09255683  0.91986048  0.90070253  1
  Te  Te108  1  0.41700803  0.23284966  0.22226963  1
  Te  Te109  1  0.41402510  0.22365424  0.58693997  1
  Te  Te110  1  0.43694483  0.23997849  0.91534590  1
  Te  Te111  1  0.41961992  0.56744277  0.24189996  1
  Te  Te112  1  0.41674366  0.58267691  0.56903921  1
  Te  Te113  1  0.43580617  0.58794635  0.92397165  1
  Te  Te114  1  0.42401543  0.92865210  0.24465865  1
  Te  Te115  1  0.41682943  0.91656488  0.56913954  1
  Te  Te116  1  0.40201828  0.91950707  0.92794692  1
  Te  Te117  1  0.75510787  0.25717721  0.23525840  1
  Te  Te118  1  0.75472727  0.27054309  0.59118898  1
  Te  Te119  1  0.73999403  0.25667244  0.92339721  1
  Te  Te120  1  0.76129798  0.59783310  0.18190936  1
  Te  Te121  1  0.74783546  0.59965219  0.57656233  1
  Te  Te122  1  0.72316388  0.58399773  0.91584481  1
  Te  Te123  1  0.71801675  0.93829726  0.25254930  1
  Te  Te124  1  0.77559360  0.89941622  0.59895176  1
  Te  Te125  1  0.76250126  0.93531074  0.92879561  1
  Te  Te126  1  0.24773463  0.22865047  0.06365139  1
  Te  Te127  1  0.26490740  0.24717960  0.41972349  1
  Te  Te128  1  0.25120604  0.23108683  0.78751933  1
  Te  Te129  1  0.24601698  0.59117667  0.11106377  1
  Te  Te130  1  0.23605083  0.59781409  0.42939026  1
  Te  Te131  1  0.24773788  0.58438152  0.72309681  1
  Te  Te132  1  0.25365211  0.91028724  0.08160654  1
  Te  Te133  1  0.22887825  0.88081896  0.42389720  1
  Te  Te134  1  0.27808511  0.90696882  0.76785684  1
  Te  Te135  1  0.60504263  0.26658335  0.09761384  1
  Te  Te136  1  0.56273350  0.23952580  0.40579933  1
  Te  Te137  1  0.59794774  0.26709285  0.74841076  1
  Te  Te138  1  0.61796223  0.53483466  0.11049517  1
  Te  Te139  1  0.59995373  0.58120713  0.38338419  1
  Te  Te140  1  0.57532464  0.58435064  0.74577079  1
  Te  Te141  1  0.56481245  0.89881374  0.05890847  1
  Te  Te142  1  0.58915185  0.92911440  0.41700412  1
  Te  Te143  1  0.59402484  0.91817565  0.73808582  1
  Te  Te144  1  0.90884488  0.26453490  0.07280897  1
  Te  Te145  1  0.90249605  0.25536060  0.42950068  1
  Te  Te146  1  0.92094467  0.23839553  0.76407658  1
  Te  Te147  1  0.89347594  0.59157638  0.07291993  1
  Te  Te148  1  0.90576386  0.57510801  0.40346939  1
  Te  Te149  1  0.91883815  0.59203139  0.76626075  1
  Te  Te150  1  0.89944127  0.93431383  0.10602998  1
  Te  Te151  1  0.90674327  0.90021545  0.41411692  1
  Te  Te152  1  0.87927374  0.94789881  0.73411354  1
  Te  Te153  1  0.25483089  0.07428178  0.24682573  1
  Te  Te154  1  0.25976712  0.08054931  0.57250997  1
  Te  Te155  1  0.19534957  0.05828656  0.90322844  1
  Te  Te156  1  0.26818419  0.41703569  0.23827022  1
  Te  Te157  1  0.26368910  0.40730415  0.59915719  1
  Te  Te158  1  0.24825309  0.42790439  0.90070241  1
  Te  Te159  1  0.23082099  0.73165267  0.23749529  1
  Te  Te160  1  0.24386975  0.78162219  0.57174356  1
  Te  Te161  1  0.25113434  0.74819928  0.90779222  1
  Te  Te162  1  0.62118860  0.06926645  0.20963672  1
  Te  Te163  1  0.60708219  0.07647943  0.59299010  1
  Te  Te164  1  0.59235085  0.08848926  0.90921831  1
  Te  Te165  1  0.58688795  0.43384453  0.25985285  1
  Te  Te166  1  0.58507285  0.40110570  0.58469366  1
  Te  Te167  1  0.53653433  0.40619418  0.96313325  1
  Te  Te168  1  0.57305745  0.74046515  0.24551260  1
  Te  Te169  1  0.58452606  0.74569951  0.57255379  1
  Te  Te170  1  0.59434077  0.76702601  0.95305812  1
  Te  Te171  1  0.92086597  0.07818518  0.25682644  1
  Te  Te172  1  0.93055710  0.09389540  0.56807080  1
  Te  Te173  1  0.92616450  0.08041289  0.91652070  1
  Te  Te174  1  0.88591754  0.41607985  0.22547423  1
  Te  Te175  1  0.92118718  0.43365555  0.57531297  1
  Te  Te176  1  0.90460855  0.42483420  0.92752419  1
  Te  Te177  1  0.92143506  0.73873873  0.25744619  1
  Te  Te178  1  0.91940582  0.74850456  0.59565725  1
  Te  Te179  1  0.93836413  0.77359097  0.93286186  1
