# generated using pymatgen
data_In2Te3
_symmetry_space_group_name_H-M   'P 1'
_cell_length_a   18.83920717
_cell_length_b   18.83534134
_cell_length_c   18.85757144
_cell_angle_alpha   89.99639514
_cell_angle_beta   90.02879741
_cell_angle_gamma   89.86171843
_symmetry_Int_Tables_number   1
_chemical_formula_structural   In2Te3
_chemical_formula_sum   'In72 Te108'
_cell_volume   6691.45494164
_cell_formula_units_Z   36
loop_
 _symmetry_equiv_pos_site_id
 _symmetry_equiv_pos_as_xyz
  1  'x, y, z'
loop_
 _atom_site_type_symbol
 _atom_site_label
 _atom_site_symmetry_multiplicity
 _atom_site_fract_x
 _atom_site_fract_y
 _atom_site_fract_z
 _atom_site_occupancy
  In  In0  1  0.19071371  0.52269641  0.33421827  1
  In  In1  1  0.46154293  0.46847967  0.02386481  1
  In  In2  1  0.65642695  0.32502841  -0.01454692  1
  In  In3  1  0.82730339  -0.00209103  0.50191204  1
  In  In4  1  0.02277636  0.65710378  -0.00305287  1
  In  In5  1  0.00200523  0.82482361  0.84714099  1
  In  In6  1  0.31907860  0.20459048  0.81731315  1
  In  In7  1  0.64421471  0.66813841  0.34336436  1
  In  In8  1  0.66595268  0.15689943  0.18161085  1
  In  In9  1  0.15821131  0.32752938  0.15198330  1
  In  In10  1  0.36815668  0.66718708  0.35176280  1
  In  In11  1  0.50747966  0.48191968  0.65375590  1
  In  In12  1  0.34626525  0.20506009  0.51156402  1
  In  In13  1  0.82555974  0.48492672  0.33685949  1
  In  In14  1  0.81007915  0.65609169  0.49404356  1
  In  In15  1  0.33437992  0.49523343  0.85011840  1
  In  In16  1  0.18830039  0.82170697  0.65014899  1
  In  In17  1  0.49931056  0.67645245  0.18313556  1
  In  In18  1  0.67059995  0.84599349  0.83388614  1
  In  In19  1  0.18293384  0.18563368  -0.01969788  1
  In  In20  1  0.50268295  0.83541883  0.63669786  1
  In  In21  1  -0.02184753  0.33292714  0.35620256  1
  In  In22  1  0.85568765  0.20771012  0.69245613  1
  In  In23  1  0.00533348  0.81330119  0.17683759  1
  In  In24  1  0.68850350  0.66375978  0.01316871  1
  In  In25  1  0.48027368  0.01134909  0.82833240  1
  In  In26  1  0.65545337  0.02030162  0.62628232  1
  In  In27  1  0.02946041  0.03353364  0.69451352  1
  In  In28  1  0.00983435  0.64744375  0.67546439  1
  In  In29  1  0.62874572  0.49548839  0.18824526  1
  In  In30  1  -0.01798092  0.19200938  0.51935563  1
  In  In31  1  0.81622303  0.34385609  0.51453004  1
  In  In32  1  0.33495533  0.02538312  0.01556594  1
  In  In33  1  0.66340779  0.68070847  0.64451769  1
  In  In34  1  0.00830907  0.50283619  0.51430269  1
  In  In35  1  0.31828839  0.83479254  0.83232584  1
  In  In36  1  -0.01516046  0.00454036  -0.01210472  1
  In  In37  1  -0.01456766  -0.01324994  0.31890713  1
  In  In38  1  0.67167249  0.19463249  0.80905620  1
  In  In39  1  0.35098394  0.17394620  0.17620336  1
  In  In40  1  0.83816353  0.02026334  0.85304306  1
  In  In41  1  0.83312436  0.68868634  0.16971475  1
  In  In42  1  0.34871384  0.00902900  0.65068309  1
  In  In43  1  0.83791996  0.50080580  -0.00514306  1
  In  In44  1  0.02374910  0.50861961  0.19621499  1
  In  In45  1  0.80418921  -0.00841156  0.17326512  1
  In  In46  1  0.02599619  0.80583234  0.48693713  1
  In  In47  1  0.63938841  0.17884813  0.48272095  1
  In  In48  1  0.35269276  -0.00520405  0.35987520  1
  In  In49  1  0.13560912  0.83695122  0.00665758  1
  In  In50  1  -0.00986833  0.15418842  0.16569628  1
  In  In51  1  0.51313430  0.33814029  0.80900203  1
  In  In52  1  0.49507022  0.64377334  0.82645959  1
  In  In53  1  0.17326241  0.61408129  0.87681529  1
  In  In54  1  0.34021772  0.34364047  0.30328105  1
  In  In55  1  0.34666280  0.66041358  0.63650922  1
  In  In56  1  0.50832055  0.82306366  0.02788269  1
  In  In57  1  0.80657423  0.31385748  0.15597806  1
  In  In58  1  0.68902050  0.43913506  0.79089134  1
  In  In59  1  -0.00263817  0.35353452  -0.00551157  1
  In  In60  1  0.87307286  0.65972885  0.83930438  1
  In  In61  1  0.17166813  -0.01148227  0.49962134  1
  In  In62  1  0.63711160  -0.01926071  0.34652911  1
  In  In63  1  0.16621484  0.48451017  0.67960736  1
  In  In64  1  0.49323585  0.48917957  0.34901391  1
  In  In65  1  0.83253083  0.84889252  0.65306009  1
  In  In66  1  0.49408941  0.18093638  0.00232760  1
  In  In67  1  0.65939661  -0.00281689  0.00197840  1
  In  In68  1  0.33933500  0.82692556  0.20489263  1
  In  In69  1  0.16229077  0.13744575  0.34189200  1
  In  In70  1  0.14705529  -0.02136699  0.16883300  1
  In  In71  1  0.17283924  0.33981007  0.51796909  1
  Te  Te72  1  0.10109555  0.09446972  0.07692970  1
  Te  Te73  1  0.05362792  0.07919446  0.43119944  1
  Te  Te74  1  0.11627854  0.14093839  0.74483074  1
  Te  Te75  1  0.09078940  0.44427868  0.07516452  1
  Te  Te76  1  0.09382525  0.41891947  0.40472650  1
  Te  Te77  1  0.08133211  0.39424130  0.75762520  1
  Te  Te78  1  0.10859245  0.72279721  0.10468095  1
  Te  Te79  1  0.10539709  0.71676899  0.40386904  1
  Te  Te80  1  0.09358808  0.75151706  0.75026353  1
  Te  Te81  1  0.44690892  0.07597878  0.10178731  1
  Te  Te82  1  0.42377055  0.10922867  0.42449765  1
  Te  Te83  1  0.41839675  0.11415610  0.73667656  1
  Te  Te84  1  0.38791742  0.39068207  0.12196907  1
  Te  Te85  1  0.37802277  0.42581999  0.42263353  1
  Te  Te86  1  0.39990732  0.41340034  0.73873566  1
  Te  Te87  1  0.39589592  0.74226610  0.08901984  1
  Te  Te88  1  0.47121905  0.76258443  0.40491248  1
  Te  Te89  1  0.42454052  0.75826422  0.75058158  1
  Te  Te90  1  0.75348333  0.09535199  0.07086168  1
  Te  Te91  1  0.73686180  0.08042079  0.41403554  1
  Te  Te92  1  0.73952786  0.06920055  0.74798432  1
  Te  Te93  1  0.73308409  0.42878218  0.08311089  1
  Te  Te94  1  0.72722338  0.43435589  0.43456257  1
  Te  Te95  1  0.76412764  0.35981653  0.69227631  1
  Te  Te96  1  0.73859229  0.77422137  0.09453908  1
  Te  Te97  1  0.74264443  0.75649708  0.41153450  1
  Te  Te98  1  0.76045684  0.75295114  0.75139326  1
  Te  Te99  1  0.07544978  0.24294441  0.25765970  1
  Te  Te100  1  0.09850460  0.23838871  0.60235136  1
  Te  Te101  1  0.10870189  0.29442231  0.90784366  1
  Te  Te102  1  0.07695066  0.61348454  0.28912100  1
  Te  Te103  1  0.11194005  0.59245639  0.57772436  1
  Te  Te104  1  0.03068193  0.56812573  0.87740275  1
  Te  Te105  1  0.09702521  0.89058239  0.27892829  1
  Te  Te106  1  0.07156250  0.91617306  0.59409585  1
  Te  Te107  1  0.09167583  0.93802556  0.90138588  1
  Te  Te108  1  0.43532710  0.22990802  0.28412238  1
  Te  Te109  1  0.45707352  0.27875514  0.58178264  1
  Te  Te110  1  0.41667041  0.27430836  0.91243832  1
  Te  Te111  1  0.41477639  0.56791700  0.24220226  1
  Te  Te112  1  0.45379463  0.58903595  0.56458628  1
  Te  Te113  1  0.41132983  0.59268626  0.94048702  1
  Te  Te114  1  0.43266621  0.92745263  0.25503994  1
  Te  Te115  1  0.41276771  0.91766630  0.55084117  1
  Te  Te116  1  0.41956024  0.91245269  0.92703071  1
  Te  Te117  1  0.72907015  0.26096627  0.26764261  1
  Te  Te118  1  0.74658390  0.22626909  0.58796041  1
  Te  Te119  1  0.76239295  0.26046695  0.90496317  1
  Te  Te120  1  0.74654566  0.57753908  0.24262908  1
  Te  Te121  1  0.74916044  0.57062486  0.59662000  1
  Te  Te122  1  0.74924150  0.58288685  0.89989967  1
  Te  Te123  1  0.75151086  0.90843060  0.28243400  1
  Te  Te124  1  0.72177564  0.89942874  0.56119259  1
  Te  Te125  1  0.76587686  0.91131599  0.93285829  1
  Te  Te126  1  0.27795374  0.26355467  0.07477489  1
  Te  Te127  1  0.24020858  0.25250936  0.40206050  1
  Te  Te128  1  0.21809835  0.25827948  0.72284532  1
  Te  Te129  1  0.23556072  0.53349281  -0.00964416  1
  Te  Te130  1  0.28934678  0.56751218  0.43542371  1
  Te  Te131  1  0.26357013  0.59834909  0.74877757  1
  Te  Te132  1  0.25329291  0.91255368  0.07967489  1
  Te  Te133  1  0.25272537  0.90071936  0.41415987  1
  Te  Te134  1  0.24884582  0.93204856  0.73797692  1
  Te  Te135  1  0.57866529  0.26182937  0.09756040  1
  Te  Te136  1  0.55546032  0.29439595  0.43722964  1
  Te  Te137  1  0.57051764  0.24168940  0.71068004  1
  Te  Te138  1  0.57369301  0.58412764  0.07491010  1
  Te  Te139  1  0.60079049  0.55561548  0.42940318  1
  Te  Te140  1  0.59854234  0.57091383  0.74211466  1
  Te  Te141  1  0.58741883  0.92021932  0.10429153  1
  Te  Te142  1  0.53099575  0.90509588  0.42346721  1
  Te  Te143  1  0.57678081  0.92709830  0.74220213  1
  Te  Te144  1  0.91539904  0.24725947  0.07213078  1
  Te  Te145  1  0.88088874  0.23680779  0.41454980  1
  Te  Te146  1  0.95109704  0.30809950  0.74064270  1
  Te  Te147  1  0.92186222  0.58097084  0.09521482  1
  Te  Te148  1  0.91732884  0.57678537  0.41656329  1
  Te  Te149  1  0.90803414  0.55953929  0.73710631  1
  Te  Te150  1  0.92783224  0.92658587  0.10289507  1
  Te  Te151  1  0.91868030  0.90184296  0.42629352  1
  Te  Te152  1  0.91765249  0.91922470  0.75908290  1
  Te  Te153  1  0.25223559  0.07050900  0.23923116  1
  Te  Te154  1  0.25195098  0.09533286  0.57005169  1
  Te  Te155  1  0.26136768  0.08292480  0.89769626  1
  Te  Te156  1  0.24630841  0.43641832  0.22036788  1
  Te  Te157  1  0.26807731  0.42742700  0.58793846  1
  Te  Te158  1  0.23404557  0.40549965  0.91391413  1
  Te  Te159  1  0.25571286  0.72833936  0.27397925  1
  Te  Te160  1  0.27489427  0.75690419  0.55102559  1
  Te  Te161  1  0.23404749  0.75107702  0.92384389  1
  Te  Te162  1  0.56997952  0.09317411  0.27398337  1
  Te  Te163  1  0.54594145  0.08099867  0.54745250  1
  Te  Te164  1  0.58309687  0.09729570  0.90629581  1
  Te  Te165  1  0.57777633  0.38876604  0.27477915  1
  Te  Te166  1  0.57547312  0.37999724  0.56595810  1
  Te  Te167  1  0.57488924  0.43313178  0.91412851  1
  Te  Te168  1  0.59899985  0.76595419  0.24199348  1
  Te  Te169  1  0.56178707  0.73135248  0.54495637  1
  Te  Te170  1  0.58278689  0.74646890  0.91000746  1
  Te  Te171  1  0.89097785  0.09020584  0.25860673  1
  Te  Te172  1  0.91059565  0.07873795  0.60494347  1
  Te  Te173  1  0.94073465  0.11417306  0.90059229  1
  Te  Te174  1  0.91881808  0.40299322  0.23188000  1
  Te  Te175  1  0.93575504  0.39700380  0.58881683  1
  Te  Te176  1  0.88793741  0.39622371  0.90205750  1
  Te  Te177  1  0.91435310  0.75164754  0.27383189  1
  Te  Te178  1  0.92039364  0.74186410  0.58743869  1
  Te  Te179  1  0.91440567  0.75613274  0.95061652  1
