# generated using pymatgen
data_In2Te3
_symmetry_space_group_name_H-M   'P 1'
_cell_length_a   18.96717503
_cell_length_b   18.95430068
_cell_length_c   18.95879505
_cell_angle_alpha   90.19613830
_cell_angle_beta   90.05618594
_cell_angle_gamma   89.94609361
_symmetry_Int_Tables_number   1
_chemical_formula_structural   In2Te3
_chemical_formula_sum   'In72 Te108'
_cell_volume   6815.82144838
_cell_formula_units_Z   36
loop_
 _symmetry_equiv_pos_site_id
 _symmetry_equiv_pos_as_xyz
  1  'x, y, z'
loop_
 _atom_site_type_symbol
 _atom_site_label
 _atom_site_symmetry_multiplicity
 _atom_site_fract_x
 _atom_site_fract_y
 _atom_site_fract_z
 _atom_site_occupancy
  In  In0  1  0.15974725  0.49459200  -0.01203437  1
  In  In1  1  0.36621298  0.48738995  0.82320881  1
  In  In2  1  0.64827633  0.50324216  0.83012470  1
  In  In3  1  0.51304223  0.49395000  0.67219694  1
  In  In4  1  0.69021945  0.15137173  0.81052404  1
  In  In5  1  0.18309591  -0.01651936  0.83145616  1
  In  In6  1  0.65040873  0.32313080  -0.00989756  1
  In  In7  1  0.50784139  -0.01013225  0.51558275  1
  In  In8  1  0.17053753  0.30484745  0.81700451  1
  In  In9  1  0.36945105  0.13889143  0.13802629  1
  In  In10  1  0.01673518  0.82653819  0.82064801  1
  In  In11  1  0.65235461  -0.01696913  0.00356516  1
  In  In12  1  0.84042236  0.00971521  0.17900410  1
  In  In13  1  -0.01799215  0.69037172  0.69471492  1
  In  In14  1  0.17919204  0.49602793  0.67449165  1
  In  In15  1  -0.00976973  0.66859326  0.00704550  1
  In  In16  1  0.36226265  0.84090849  0.82873205  1
  In  In17  1  0.34842022  0.85610665  0.49212089  1
  In  In18  1  0.18425724  0.83854379  -0.00739782  1
  In  In19  1  0.67612468  0.83152872  0.83355869  1
  In  In20  1  0.53274548  0.68906816  0.53717106  1
  In  In21  1  -0.02579099  0.49597101  0.50134554  1
  In  In22  1  0.66913890  0.01387815  0.32947852  1
  In  In23  1  0.00716136  0.87686264  0.16243985  1
  In  In24  1  0.51501616  0.51620183  0.33154810  1
  In  In25  1  0.81837715  0.33101074  0.18576918  1
  In  In26  1  -0.00158035  0.32467223  -0.01540559  1
  In  In27  1  0.16766828  0.01330736  0.18446060  1
  In  In28  1  0.19094049  0.34293194  0.14088865  1
  In  In29  1  0.35532391  0.48910771  0.17237760  1
  In  In30  1  0.33658351  0.65095080  -0.01609555  1
  In  In31  1  0.00578991  0.14817714  0.17066931  1
  In  In32  1  0.34015137  0.15061352  0.84492615  1
  In  In33  1  0.48101425  0.16569020  0.33104029  1
  In  In34  1  -0.01713735  0.17316115  0.82897743  1
  In  In35  1  -0.02209678  0.30688283  0.32231979  1
  In  In36  1  0.35035598  0.32220647  0.00322240  1
  In  In37  1  0.82524837  0.66393031  0.14753805  1
  In  In38  1  0.14833056  0.52646338  0.33766920  1
  In  In39  1  0.14293502  0.68482502  0.49931956  1
  In  In40  1  0.49314944  0.67098650  0.16060896  1
  In  In41  1  -0.02571258  0.34146688  0.66018319  1
  In  In42  1  0.33380155  0.31636137  0.33793248  1
  In  In43  1  0.67738950  0.49740350  0.17303273  1
  In  In44  1  0.30901431  0.49860235  0.49961973  1
  In  In45  1  0.18677701  0.68388906  0.18471461  1
  In  In46  1  -0.01177963  -0.01302694  0.66787933  1
  In  In47  1  -0.01196626  0.50447423  0.85556818  1
  In  In48  1  0.34518591  0.84113790  0.18168768  1
  In  In49  1  -0.01040026  0.15322913  0.51768543  1
  In  In50  1  0.65108651  0.83675504  0.14962039  1
  In  In51  1  0.36127641  0.68087941  0.67848869  1
  In  In52  1  0.00098132  0.68026478  0.32193902  1
  In  In53  1  0.80082149  0.49086814  0.35433759  1
  In  In54  1  0.15546989  0.34103249  0.52077815  1
  In  In55  1  0.19370444  0.11902217  0.64276836  1
  In  In56  1  0.51587896  0.34249946  0.51612950  1
  In  In57  1  0.49086955  0.82830342  0.33024360  1
  In  In58  1  -0.01382378  0.85792383  0.49207164  1
  In  In59  1  0.64529190  0.33461230  0.66392101  1
  In  In60  1  0.84218655  0.65086952  0.82861992  1
  In  In61  1  0.79641950  0.63500681  0.52800568  1
  In  In62  1  0.82081048  0.16129008  -0.00507693  1
  In  In63  1  0.16065474  0.84871929  0.64711500  1
  In  In64  1  0.51218970  -0.00326321  0.83299442  1
  In  In65  1  0.65499558  0.19696539  0.18283623  1
  In  In66  1  0.82771143  0.81908615  0.35963802  1
  In  In67  1  0.82122550  0.83090466  0.64999078  1
  In  In68  1  0.65938432  0.68065956  -0.01877896  1
  In  In69  1  0.50239273  0.16347943  0.65841622  1
  In  In70  1  0.16635304  0.15803118  0.33826735  1
  In  In71  1  0.64804291  0.16198565  0.48429196  1
  Te  Te72  1  0.08344970  0.06921155  0.07730336  1
  Te  Te73  1  0.05864302  0.08496035  0.40538108  1
  Te  Te74  1  0.08538345  0.07720000  0.74746832  1
  Te  Te75  1  0.07207178  0.41749704  0.08287625  1
  Te  Te76  1  0.07620219  0.41640941  0.41531891  1
  Te  Te77  1  0.07974603  0.41283975  0.75797407  1
  Te  Te78  1  0.09367808  0.75662645  0.08665817  1
  Te  Te79  1  0.08371602  0.78069928  0.39932513  1
  Te  Te80  1  0.11430602  0.73856124  0.74368612  1
  Te  Te81  1  0.43617740  0.03918142  0.05148854  1
  Te  Te82  1  0.42076262  0.09646202  0.44931863  1
  Te  Te83  1  0.41643463  0.06956014  0.73968072  1
  Te  Te84  1  0.43468665  0.42658579  0.06820125  1
  Te  Te85  1  0.41303552  0.42239079  0.41588209  1
  Te  Te86  1  0.42775877  0.39163383  0.73116205  1
  Te  Te87  1  0.40740443  0.75417772  0.06921343  1
  Te  Te88  1  0.42906722  0.73948029  0.43607700  1
  Te  Te89  1  0.45642857  0.73630766  0.77844474  1
  Te  Te90  1  0.73479868  0.08611389  0.09723077  1
  Te  Te91  1  0.75766798  0.07957669  0.42592863  1
  Te  Te92  1  0.80665672  0.10133314  0.73495772  1
  Te  Te93  1  0.74931990  0.40671181  0.07604543  1
  Te  Te94  1  0.73941779  0.40399600  0.45503688  1
  Te  Te95  1  0.73446475  0.43449456  0.72823076  1
  Te  Te96  1  0.75485089  0.76730622  0.06252805  1
  Te  Te97  1  0.73435646  0.74423894  0.44807829  1
  Te  Te98  1  0.75127871  0.73041857  0.74019030  1
  Te  Te99  1  0.10077154  0.26408205  0.24192769  1
  Te  Te100  1  0.08213529  0.24255916  0.60885930  1
  Te  Te101  1  0.09585205  0.22791716  0.92229886  1
  Te  Te102  1  0.07039502  0.58739304  0.22467302  1
  Te  Te103  1  0.08548230  0.56827849  0.57949093  1
  Te  Te104  1  0.08945543  0.60305838  0.90996128  1
  Te  Te105  1  0.07783734  0.93752174  0.27401923  1
  Te  Te106  1  0.08898567  0.94851686  0.55944807  1
  Te  Te107  1  0.07752668  0.92073720  0.92195349  1
  Te  Te108  1  0.41687653  0.25917284  0.22772823  1
  Te  Te109  1  0.42228020  0.23469539  0.55550724  1
  Te  Te110  1  0.43303257  0.23886657  0.91665394  1
  Te  Te111  1  0.40705781  0.59925353  0.26262220  1
  Te  Te112  1  0.41760641  0.57389805  0.58106242  1
  Te  Te113  1  0.43928761  0.56165150  0.92763166  1
  Te  Te114  1  0.41423523  0.93645793  0.27014682  1
  Te  Te115  1  0.44229968  0.88735475  0.60363997  1
  Te  Te116  1  0.40498768  0.94522469  0.92787182  1
  Te  Te117  1  0.75877804  0.23624513  0.27830271  1
  Te  Te118  1  0.72599311  0.25416757  0.57227013  1
  Te  Te119  1  0.75464231  0.25868278  0.89962257  1
  Te  Te120  1  0.74729184  0.59991608  0.26034560  1
  Te  Te121  1  0.70945261  0.55462681  0.61470434  1
  Te  Te122  1  0.75097590  0.57540883  0.92142104  1
  Te  Te123  1  0.74712728  0.90174410  0.25003554  1
  Te  Te124  1  0.71653409  0.87983771  0.56034159  1
  Te  Te125  1  0.75180070  0.93364777  0.90920660  1
  Te  Te126  1  0.25705707  0.22655670  0.07517525  1
  Te  Te127  1  0.24161786  0.24697552  0.43623115  1
  Te  Te128  1  0.26281102  0.22314956  0.72958697  1
  Te  Te129  1  0.24804599  0.57286182  0.08659396  1
  Te  Te130  1  0.24771959  0.60902182  0.41450394  1
  Te  Te131  1  0.26961757  0.58402355  0.75696559  1
  Te  Te132  1  0.25406770  0.92492196  0.09320990  1
  Te  Te133  1  0.24592318  0.95144326  0.44905979  1
  Te  Te134  1  0.26946051  0.91443228  0.72862372  1
  Te  Te135  1  0.56463631  0.24208768  0.07759196  1
  Te  Te136  1  0.57420732  0.26411326  0.39857207  1
  Te  Te137  1  0.57790709  0.24433394  0.76245856  1
  Te  Te138  1  0.59416083  0.58920035  0.08378380  1
  Te  Te139  1  0.59206207  0.60221451  0.42644768  1
  Te  Te140  1  0.56609006  0.60343054  0.75551055  1
  Te  Te141  1  0.54556914  0.92714200  0.09445760  1
  Te  Te142  1  0.58790043  0.91449398  0.41096181  1
  Te  Te143  1  0.60311398  0.92304966  0.74077479  1
  Te  Te144  1  0.91339553  0.24848639  0.09060116  1
  Te  Te145  1  0.91780063  0.26235540  0.44699744  1
  Te  Te146  1  0.89025759  0.24296460  0.73407362  1
  Te  Te147  1  0.90594895  0.56897571  0.07090094  1
  Te  Te148  1  0.90822698  0.59978883  0.41083609  1
  Te  Te149  1  0.91801223  0.56048931  0.73009320  1
  Te  Te150  1  0.91004810  0.93584642  0.07265020  1
  Te  Te151  1  0.87771106  0.93705528  0.43175715  1
  Te  Te152  1  0.90111187  0.90339850  0.75808480  1
  Te  Te153  1  0.27501273  0.09515001  0.25375571  1
  Te  Te154  1  0.28730073  0.05548395  0.54859192  1
  Te  Te155  1  0.25124924  0.06884161  0.92822182  1
  Te  Te156  1  0.24520581  0.42680090  0.26373241  1
  Te  Te157  1  0.26987149  0.39621619  0.60503472  1
  Te  Te158  1  0.24928685  0.40417361  0.90556309  1
  Te  Te159  1  0.25626180  0.77171826  0.27679242  1
  Te  Te160  1  0.25543631  0.74385199  0.58252058  1
  Te  Te161  1  0.26040018  0.74973345  0.89686552  1
  Te  Te162  1  0.56883639  0.08193491  0.24074011  1
  Te  Te163  1  0.60683893  0.07014494  0.59954177  1
  Te  Te164  1  0.59595004  0.09310860  0.91436706  1
  Te  Te165  1  0.59195435  0.41551292  0.25818781  1
  Te  Te166  1  0.61690162  0.46499843  0.52650168  1
  Te  Te167  1  0.56457112  0.42089627  0.91856916  1
  Te  Te168  1  0.58981471  0.74302624  0.25144132  1
  Te  Te169  1  0.58960675  0.80832528  0.61068010  1
  Te  Te170  1  0.56801469  0.77743176  0.91968870  1
  Te  Te171  1  0.91718946  0.09364335  0.27273539  1
  Te  Te172  1  0.88877629  0.07511563  0.59980637  1
  Te  Te173  1  0.91123101  0.07890923  0.91431821  1
  Te  Te174  1  0.90722988  0.42817861  0.26293503  1
  Te  Te175  1  0.87819265  0.40047836  0.56194077  1
  Te  Te176  1  0.90281699  0.39609315  0.90063570  1
  Te  Te177  1  0.91238865  0.76558945  0.23370597  1
  Te  Te178  1  0.92292705  0.73877211  0.56623588  1
  Te  Te179  1  0.91472476  0.75637307  0.91042188  1
