# generated using pymatgen
data_In2Te3
_symmetry_space_group_name_H-M   'P 1'
_cell_length_a   18.73294024
_cell_length_b   18.73239295
_cell_length_c   18.73368654
_cell_angle_alpha   90.05089060
_cell_angle_beta   90.03228841
_cell_angle_gamma   89.99260530
_symmetry_Int_Tables_number   1
_chemical_formula_structural   In2Te3
_chemical_formula_sum   'In72 Te108'
_cell_volume   6573.88666029
_cell_formula_units_Z   36
loop_
 _symmetry_equiv_pos_site_id
 _symmetry_equiv_pos_as_xyz
  1  'x, y, z'
loop_
 _atom_site_type_symbol
 _atom_site_label
 _atom_site_symmetry_multiplicity
 _atom_site_fract_x
 _atom_site_fract_y
 _atom_site_fract_z
 _atom_site_occupancy
  In  In0  1  0.70505204  0.82822574  0.83809739  1
  In  In1  1  0.50567625  0.84278470  0.31096845  1
  In  In2  1  0.66996539  -0.01378408  0.66002395  1
  In  In3  1  0.00320273  -0.03155397  0.00508937  1
  In  In4  1  0.15198770  0.15496810  0.34688276  1
  In  In5  1  0.82387985  0.32653621  0.50257254  1
  In  In6  1  0.85119847  0.53935499  0.32016615  1
  In  In7  1  0.85956315  0.79550202  0.65416037  1
  In  In8  1  0.00846086  0.67130906  0.00404414  1
  In  In9  1  0.84880276  0.52459525  0.67205508  1
  In  In10  1  0.17540340  0.15143556  0.66466014  1
  In  In11  1  0.48971759  0.64553868  0.52106424  1
  In  In12  1  0.81360057  0.35190793  0.81856442  1
  In  In13  1  0.66534617  0.35376805  0.00905605  1
  In  In14  1  0.84089612  -0.01391955  0.16290982  1
  In  In15  1  -0.00576321  0.33814440  0.67567126  1
  In  In16  1  0.31758833  0.16992178  0.49980896  1
  In  In17  1  0.67250890  0.67470844  -0.00313902  1
  In  In18  1  0.67931378  0.50306944  0.50909025  1
  In  In19  1  0.50139535  0.81831385  0.66774137  1
  In  In20  1  0.84488666  0.82589953  0.00309110  1
  In  In21  1  0.13497825  0.82318064  0.31335487  1
  In  In22  1  0.81359858  0.15634281  0.32072785  1
  In  In23  1  -0.01068138  0.15856930  0.15685663  1
  In  In24  1  0.83357819  0.52117535  0.01240672  1
  In  In25  1  0.14038656  0.80142630  0.66645655  1
  In  In26  1  0.82461055  0.14420908  0.02014946  1
  In  In27  1  0.66019645  0.32651070  0.32262604  1
  In  In28  1  0.68487640  0.83321549  0.16686221  1
  In  In29  1  0.34821311  0.18463089  0.86563322  1
  In  In30  1  -0.00057684  0.13392351  0.49259592  1
  In  In31  1  0.19139030  0.16338554  0.02787019  1
  In  In32  1  0.30619255  0.01432955  0.66062089  1
  In  In33  1  0.32645239  0.52002984  0.82715092  1
  In  In34  1  0.30741218  -0.03652675  0.03552315  1
  In  In35  1  0.82351883  -0.03615716  0.82771076  1
  In  In36  1  0.84621587  -0.01975289  0.46459428  1
  In  In37  1  0.15270382  -0.02439301  0.84694526  1
  In  In38  1  0.00686596  0.52921094  0.46767696  1
  In  In39  1  0.50058292  0.50505154  0.33900401  1
  In  In40  1  0.16018834  0.34162101  0.85195344  1
  In  In41  1  0.32200240  0.67636978  0.33706176  1
  In  In42  1  -0.01685782  0.52467330  0.85310557  1
  In  In43  1  0.53273684  0.15219313  0.30551613  1
  In  In44  1  -0.00038659  0.67999089  0.32087404  1
  In  In45  1  0.49265105  0.67039531  0.15612260  1
  In  In46  1  0.49496030  0.00893597  0.85759200  1
  In  In47  1  0.50717455  0.35167794  0.47848113  1
  In  In48  1  0.33703190  0.36591787  0.67928586  1
  In  In49  1  0.65644885  0.16638840  0.82952638  1
  In  In50  1  0.30902117  0.81275936  0.49771346  1
  In  In51  1  -0.01382053  0.35176895  0.31604397  1
  In  In52  1  0.50291018  0.82821039  0.03365097  1
  In  In53  1  0.49994700  0.34641560  0.16035068  1
  In  In54  1  0.49370399  0.16947207  0.00021220  1
  In  In55  1  0.51515539  0.64892290  0.81556962  1
  In  In56  1  0.15986621  0.52903966  0.64551711  1
  In  In57  1  0.31245449  0.79303085  0.85377961  1
  In  In58  1  0.51593704  0.17704335  0.66340016  1
  In  In59  1  0.01959077  0.34637569  0.03119529  1
  In  In60  1  0.18910880  0.34364494  0.51680764  1
  In  In61  1  0.34326082  0.17865876  0.17486314  1
  In  In62  1  -0.01423023  -0.03004528  0.64215549  1
  In  In63  1  0.50074171  -0.01977991  0.48371260  1
  In  In64  1  -0.01900562  0.17917698  0.82413301  1
  In  In65  1  0.16855732  0.52899785  0.02817806  1
  In  In66  1  0.34273838  -0.01905970  0.31592125  1
  In  In67  1  0.18329727  0.51239907  0.30589247  1
  In  In68  1  0.49434493  0.49868704  0.00102261  1
  In  In69  1  0.34577328  0.31622796  0.01587537  1
  In  In70  1  0.67360050  0.35093381  0.64291946  1
  In  In71  1  0.67759970  0.80864701  0.46958453  1
  Te  Te72  1  0.09244075  0.06595704  0.08977421  1
  Te  Te73  1  0.06611007  0.04313061  0.39626997  1
  Te  Te74  1  0.07275374  0.07498686  0.75051839  1
  Te  Te75  1  0.09646132  0.43597460  0.12380834  1
  Te  Te76  1  0.09090281  0.41214831  0.41623670  1
  Te  Te77  1  0.08791538  0.43400130  0.74870367  1
  Te  Te78  1  0.11128321  0.76305304  0.06859178  1
  Te  Te79  1  0.07567945  0.74868847  0.43151916  1
  Te  Te80  1  0.05007994  0.73825671  0.76386278  1
  Te  Te81  1  0.40825470  0.07478421  0.08338084  1
  Te  Te82  1  0.41627374  0.08746544  0.41178594  1
  Te  Te83  1  0.41746096  0.08674561  0.74567574  1
  Te  Te84  1  0.39369394  0.43802000  0.09970843  1
  Te  Te85  1  0.39921497  0.41735931  0.40267792  1
  Te  Te86  1  0.43583740  0.44142221  0.76136206  1
  Te  Te87  1  0.38558394  0.74463497  0.07796208  1
  Te  Te88  1  0.43458047  0.76040389  0.42174588  1
  Te  Te89  1  0.40474848  0.73090968  0.74484239  1
  Te  Te90  1  0.73189086  0.08644635  0.12402975  1
  Te  Te91  1  0.74194891  0.07443422  0.42001061  1
  Te  Te92  1  0.75355940  0.07784412  0.75011203  1
  Te  Te93  1  0.75463587  0.43028930  0.09929148  1
  Te  Te94  1  0.75957279  0.42349712  0.40165450  1
  Te  Te95  1  0.72973870  0.45828509  0.74914110  1
  Te  Te96  1  0.77351087  0.72767939  0.09882411  1
  Te  Te97  1  0.77057143  0.73083747  0.37799502  1
  Te  Te98  1  0.75091124  0.73177548  0.73673491  1
  Te  Te99  1  0.07557949  0.24663726  0.24863922  1
  Te  Te100  1  0.08056750  0.24890099  0.58043811  1
  Te  Te101  1  0.08246077  0.22881815  0.93273244  1
  Te  Te102  1  0.08095433  0.59355167  0.23221013  1
  Te  Te103  1  0.05376335  0.61768250  0.58285102  1
  Te  Te104  1  0.10745647  0.59564835  0.90433456  1
  Te  Te105  1  0.08695035  0.92336622  0.21487451  1
  Te  Te106  1  0.09069533  0.90026781  0.56749425  1
  Te  Te107  1  0.08338041  0.87046423  0.92485212  1
  Te  Te108  1  0.43075139  0.26171312  0.26796143  1
  Te  Te109  1  0.40983689  0.25927420  0.58480991  1
  Te  Te110  1  0.45248445  0.28616605  0.90920952  1
  Te  Te111  1  0.40519485  0.58327251  0.24804917  1
  Te  Te112  1  0.39786888  0.56328594  0.59865929  1
  Te  Te113  1  0.41471549  0.60280294  0.92306744  1
  Te  Te114  1  0.41357392  0.90336116  0.21125603  1
  Te  Te115  1  0.40878341  0.91479390  0.58808122  1
  Te  Te116  1  0.40080361  0.90699780  0.92118251  1
  Te  Te117  1  0.75391801  0.25720099  0.23120445  1
  Te  Te118  1  0.73781189  0.23415699  0.57898951  1
  Te  Te119  1  0.75667948  0.24615964  0.91835500  1
  Te  Te120  1  0.74429561  0.62407557  0.26310093  1
  Te  Te121  1  0.75682539  0.60668408  0.58599929  1
  Te  Te122  1  0.76330165  0.59768781  0.90733506  1
  Te  Te123  1  0.76863988  0.90636978  0.26845729  1
  Te  Te124  1  0.75981010  0.89380491  0.57767369  1
  Te  Te125  1  0.74095111  0.92623144  0.95193091  1
  Te  Te126  1  0.23214109  0.28018233  0.11759407  1
  Te  Te127  1  0.25080866  0.26413649  0.39964033  1
  Te  Te128  1  0.25329595  0.25202093  0.75211047  1
  Te  Te129  1  0.26608794  0.62812311  0.08099399  1
  Te  Te130  1  0.22900078  0.59567406  0.41900968  1
  Te  Te131  1  0.23333196  0.60773661  0.74989902  1
  Te  Te132  1  0.20530159  0.88754410  0.11857143  1
  Te  Te133  1  0.24120517  0.90770966  0.40198996  1
  Te  Te134  1  0.25123597  0.90352485  0.75211479  1
  Te  Te135  1  0.59074371  0.24582394  0.09071041  1
  Te  Te136  1  0.59113161  0.23660476  0.42460720  1
  Te  Te137  1  0.58657718  0.27759091  0.75285801  1
  Te  Te138  1  0.59438247  0.57931811  0.08683617  1
  Te  Te139  1  0.59354478  0.59420041  0.41882798  1
  Te  Te140  1  0.58868966  0.55304663  0.73345044  1
  Te  Te141  1  0.58316076  0.92998060  0.10761805  1
  Te  Te142  1  0.60893849  0.92342929  0.39252459  1
  Te  Te143  1  0.57809318  0.91574784  0.76240639  1
  Te  Te144  1  0.90225278  0.26176256  0.08525250  1
  Te  Te145  1  0.92296798  0.24600036  0.41460458  1
  Te  Te146  1  0.88301790  0.24770224  0.72740758  1
  Te  Te147  1  0.93043390  0.59016840  0.10202595  1
  Te  Te148  1  0.87943336  0.61662412  0.45321103  1
  Te  Te149  1  0.94356645  0.62228387  0.74445944  1
  Te  Te150  1  0.94134339  0.87823569  0.11309304  1
  Te  Te151  1  0.93699039  0.89025032  0.39178886  1
  Te  Te152  1  0.93598129  0.88587944  0.76008352  1
  Te  Te153  1  0.24925958  0.08312408  0.24885243  1
  Te  Te154  1  0.21722941  0.06309507  0.54615397  1
  Te  Te155  1  0.25226523  0.07192828  0.91800607  1
  Te  Te156  1  0.24151050  0.41093047  0.21643057  1
  Te  Te157  1  0.28324764  0.45837790  0.56618040  1
  Te  Te158  1  0.25489581  0.42284819  0.93819291  1
  Te  Te159  1  0.24951411  0.76019904  0.23749483  1
  Te  Te160  1  0.25007937  0.72289435  0.59856562  1
  Te  Te161  1  0.22987620  0.73489254  0.96517133  1
  Te  Te162  1  0.60188667  0.05811351  0.21752484  1
  Te  Te163  1  0.58529769  0.07676797  0.57068439  1
  Te  Te164  1  0.60276224  0.07633276  0.94123573  1
  Te  Te165  1  0.59516288  0.43717955  0.23942392  1
  Te  Te166  1  0.56010119  0.44295217  0.58935484  1
  Te  Te167  1  0.59771710  0.44120168  0.91140576  1
  Te  Te168  1  0.59589475  0.73494064  0.25019819  1
  Te  Te169  1  0.59836002  0.73877515  0.58405008  1
  Te  Te170  1  0.57422390  0.76252610  0.91444456  1
  Te  Te171  1  0.92556899  0.06981746  0.26255016  1
  Te  Te172  1  0.89497098  0.07684417  0.58579210  1
  Te  Te173  1  0.91681191  0.07164245  0.91777691  1
  Te  Te174  1  0.90252808  0.43418882  0.22677919  1
  Te  Te175  1  0.92247573  0.42619902  0.57198178  1
  Te  Te176  1  0.92734274  0.39683944  0.91227840  1
  Te  Te177  1  0.89490227  0.78441766  0.28867966  1
  Te  Te178  1  0.94881714  0.73880495  0.54693850  1
  Te  Te179  1  0.91027015  0.73301267  0.90816559  1
