# generated using pymatgen
data_In2Te3
_symmetry_space_group_name_H-M   'P 1'
_cell_length_a   18.85991516
_cell_length_b   18.84257944
_cell_length_c   18.85312260
_cell_angle_alpha   89.99165486
_cell_angle_beta   89.83324526
_cell_angle_gamma   89.98689045
_symmetry_Int_Tables_number   1
_chemical_formula_structural   In2Te3
_chemical_formula_sum   'In72 Te108'
_cell_volume   6699.79517762
_cell_formula_units_Z   36
loop_
 _symmetry_equiv_pos_site_id
 _symmetry_equiv_pos_as_xyz
  1  'x, y, z'
loop_
 _atom_site_type_symbol
 _atom_site_label
 _atom_site_symmetry_multiplicity
 _atom_site_fract_x
 _atom_site_fract_y
 _atom_site_fract_z
 _atom_site_occupancy
  In  In0  1  0.84801689  0.35004361  0.18083821  1
  In  In1  1  0.33153903  -0.00090978  0.66836186  1
  In  In2  1  0.66930615  0.00519643  -0.01075591  1
  In  In3  1  0.16541133  0.33845933  0.16655292  1
  In  In4  1  0.33597364  0.65563820  -0.00081464  1
  In  In5  1  0.83062186  0.68806071  0.15392154  1
  In  In6  1  0.67629835  0.81229330  0.80555905  1
  In  In7  1  0.48882305  0.85073455  0.34460727  1
  In  In8  1  0.48128186  0.64391379  0.82870712  1
  In  In9  1  0.50947179  0.00025928  0.85168637  1
  In  In10  1  0.82602360  -0.00130887  0.49843516  1
  In  In11  1  -0.01332926  0.15410528  0.16691616  1
  In  In12  1  0.50268241  0.32929776  0.51445781  1
  In  In13  1  0.20428433  0.48152450  -0.01683581  1
  In  In14  1  0.68472283  0.81010364  0.16043224  1
  In  In15  1  0.01880198  0.48272061  0.51338843  1
  In  In16  1  0.31478639  0.19074058  0.81029855  1
  In  In17  1  0.82894993  0.34011392  0.52164086  1
  In  In18  1  0.66947765  0.35409459  0.66933643  1
  In  In19  1  0.02857167  0.34069496  -0.01960984  1
  In  In20  1  0.48829084  0.20905233  0.01079378  1
  In  In21  1  0.85490801  0.81339604  0.66507757  1
  In  In22  1  0.86998332  -0.01749772  0.15668199  1
  In  In23  1  0.14686339  0.65221687  0.48613922  1
  In  In24  1  0.17214555  0.65727615  0.83329179  1
  In  In25  1  0.00545856  0.80513142  0.16870632  1
  In  In26  1  0.66045450  0.20638275  0.81083952  1
  In  In27  1  0.64557216  0.33916810  0.33634140  1
  In  In28  1  0.65731634  0.16091478  0.17960412  1
  In  In29  1  0.33452430  0.01329251  0.34430592  1
  In  In30  1  0.50481452  0.64275055  0.14926172  1
  In  In31  1  0.83301879  0.65983766  0.51591444  1
  In  In32  1  0.18516679  -0.00197625  0.52764283  1
  In  In33  1  0.84087769  0.48591080  0.34431040  1
  In  In34  1  0.82968277  0.80867427  0.02023257  1
  In  In35  1  0.85796532  -0.00343122  0.84086913  1
  In  In36  1  0.49217499  0.82642253  -0.02649986  1
  In  In37  1  0.32978153  0.82398182  0.48183963  1
  In  In38  1  0.48541623  0.00902602  0.49476184  1
  In  In39  1  0.64850544  0.64605049  0.64812135  1
  In  In40  1  0.50025523  0.01839078  0.14988264  1
  In  In41  1  0.83632575  0.83287705  0.33760269  1
  In  In42  1  0.14349014  0.33647505  0.51443728  1
  In  In43  1  0.17638162  0.17286192  0.35647209  1
  In  In44  1  0.82540273  0.17249887  -0.02577050  1
  In  In45  1  0.34097312  0.65614143  0.68211781  1
  In  In46  1  0.01576826  0.81668660  0.84142740  1
  In  In47  1  -0.00000445  0.67980578  0.00218061  1
  In  In48  1  0.31248956  0.49719390  0.51939715  1
  In  In49  1  0.83786899  0.51303458  -0.00781685  1
  In  In50  1  0.29674595  0.80182087  0.19233785  1
  In  In51  1  0.00480646  0.32695627  0.67347475  1
  In  In52  1  0.66753258  0.47811151  0.84910522  1
  In  In53  1  0.16509538  0.82626997  -0.00849521  1
  In  In54  1  0.84297813  0.18224746  0.66920862  1
  In  In55  1  0.15720814  0.82777226  0.66818601  1
  In  In56  1  0.34876988  0.19015420  0.15197944  1
  In  In57  1  0.65231066  0.50006770  0.14616661  1
  In  In58  1  0.17718483  0.19194468  -0.01222586  1
  In  In59  1  0.00536320  0.34481925  0.35841475  1
  In  In60  1  0.16697718  0.00069942  0.15190264  1
  In  In61  1  0.51360360  0.18961923  0.67010492  1
  In  In62  1  0.32197466  0.33391722  0.31560088  1
  In  In63  1  0.16092320  0.02691840  0.79991479  1
  In  In64  1  -0.01031456  -0.01311680  0.32483795  1
  In  In65  1  0.66552793  -0.00172152  0.67390150  1
  In  In66  1  0.66885943  0.66051605  0.33463934  1
  In  In67  1  0.66292360  0.01426227  0.34652238  1
  In  In68  1  0.48928567  0.66955149  0.50872257  1
  In  In69  1  -0.01025767  0.17734793  0.50776812  1
  In  In70  1  -0.01461961  0.51456740  0.81357089  1
  In  In71  1  0.48504732  0.52150939  0.33272434  1
  Te  Te72  1  0.08288513  0.09227152  0.06708881  1
  Te  Te73  1  0.07478326  0.07850182  0.41822972  1
  Te  Te74  1  0.07016274  0.10870974  0.72021011  1
  Te  Te75  1  0.08701681  0.43687041  0.08077349  1
  Te  Te76  1  0.11598774  0.43679084  0.40142973  1
  Te  Te77  1  0.08503984  0.43076704  0.74294233  1
  Te  Te78  1  0.11345567  0.72512164  0.09288843  1
  Te  Te79  1  0.08226222  0.74825268  0.39114349  1
  Te  Te80  1  0.07151155  0.71896140  0.73569396  1
  Te  Te81  1  0.40218214  0.08338271  0.05684032  1
  Te  Te82  1  0.40509278  0.11129905  0.42626668  1
  Te  Te83  1  0.42705349  0.08663341  0.75335107  1
  Te  Te84  1  0.46068331  0.35752535  0.03620781  1
  Te  Te85  1  0.40908378  0.42149201  0.41907675  1
  Te  Te86  1  0.36764781  0.46443204  0.79582097  1
  Te  Te87  1  0.41935652  0.75724855  0.09082639  1
  Te  Te88  1  0.41045737  0.72986037  0.39201874  1
  Te  Te89  1  0.41785807  0.75604162  0.75670548  1
  Te  Te90  1  0.76093394  0.07608770  0.08799765  1
  Te  Te91  1  0.74936516  0.10073624  0.42625916  1
  Te  Te92  1  0.75210420  0.08138668  0.76747493  1
  Te  Te93  1  0.75672444  0.41361889  0.07725236  1
  Te  Te94  1  0.73586002  0.42107682  0.43074678  1
  Te  Te95  1  0.76728366  0.41351792  0.76145166  1
  Te  Te96  1  0.71603236  0.70637412  0.05628646  1
  Te  Te97  1  0.74199004  0.75447114  0.42662266  1
  Te  Te98  1  0.76578359  0.71069467  0.73692674  1
  Te  Te99  1  0.07490038  0.24500979  0.25549186  1
  Te  Te100  1  0.10152460  0.21152355  0.60606873  1
  Te  Te101  1  0.08108043  0.24052419  0.88589286  1
  Te  Te102  1  0.08823568  0.64523425  0.28290403  1
  Te  Te103  1  0.10424703  0.56659323  0.59917746  1
  Te  Te104  1  0.08571971  0.57465063  0.92903276  1
  Te  Te105  1  0.09169029  0.90683253  0.24546878  1
  Te  Te106  1  0.07759389  0.91524271  0.58168255  1
  Te  Te107  1  0.09470572  0.92894126  0.90579850  1
  Te  Te108  1  0.43140717  0.26095653  0.24920316  1
  Te  Te109  1  0.40640917  0.27063872  0.61154933  1
  Te  Te110  1  0.41072037  0.27063865  0.89421016  1
  Te  Te111  1  0.39865173  0.57240442  0.22351501  1
  Te  Te112  1  0.42669135  0.56222426  0.59782976  1
  Te  Te113  1  0.40740563  0.54585121  0.91957354  1
  Te  Te114  1  0.40632719  0.92545448  0.24080833  1
  Te  Te115  1  0.41434097  0.90457524  0.57992259  1
  Te  Te116  1  0.40117302  0.92596477  0.91753020  1
  Te  Te117  1  0.75029773  0.26039441  0.25469240  1
  Te  Te118  1  0.73252385  0.24104112  0.58542583  1
  Te  Te119  1  0.73909852  0.27416311  0.91493241  1
  Te  Te120  1  0.75429162  0.57206819  0.24409572  1
  Te  Te121  1  0.75039094  0.55924303  0.58436732  1
  Te  Te122  1  0.74742598  0.58975841  0.90634212  1
  Te  Te123  1  0.74989610  0.92123011  0.24532755  1
  Te  Te124  1  0.75238018  0.90407088  0.59293053  1
  Te  Te125  1  0.75199970  0.90041394  0.91493442  1
  Te  Te126  1  0.26720298  0.28588298  0.06634452  1
  Te  Te127  1  0.25935256  0.26535135  0.43758793  1
  Te  Te128  1  0.23075645  0.29588917  0.74679034  1
  Te  Te129  1  0.26016696  0.56750942  0.09161989  1
  Te  Te130  1  0.26339836  0.59163848  0.41426605  1
  Te  Te131  1  0.25034722  0.55672032  0.75296735  1
  Te  Te132  1  0.25996684  0.90576028  0.08093523  1
  Te  Te133  1  0.23556018  0.91649721  0.40671714  1
  Te  Te134  1  0.24921796  0.90773344  0.75804249  1
  Te  Te135  1  0.60134322  0.26622768  0.09330436  1
  Te  Te136  1  0.57967796  0.24133468  0.42364524  1
  Te  Te137  1  0.55323002  0.30258444  0.76544739  1
  Te  Te138  1  0.56064185  0.55559752  0.04024933  1
  Te  Te139  1  0.58703539  0.57761159  0.43017115  1
  Te  Te140  1  0.57705237  0.55794851  0.74946400  1
  Te  Te141  1  0.59028043  0.91137206  0.08357732  1
  Te  Te142  1  0.59321865  0.91130112  0.43399775  1
  Te  Te143  1  0.57005232  0.90573557  0.74765816  1
  Te  Te144  1  0.92253291  0.26108386  0.07904388  1
  Te  Te145  1  0.89743607  0.25460628  0.41364760  1
  Te  Te146  1  0.92403991  0.24935481  0.77070959  1
  Te  Te147  1  0.92612270  0.58432273  0.09493127  1
  Te  Te148  1  0.92897856  0.57387946  0.42901735  1
  Te  Te149  1  0.91627556  0.62989267  0.75661434  1
  Te  Te150  1  0.94745658  0.90045554  0.05782154  1
  Te  Te151  1  0.92830494  0.90230224  0.43535690  1
  Te  Te152  1  0.94031074  0.91130271  0.74711263  1
  Te  Te153  1  0.24656389  0.10026300  0.23840999  1
  Te  Te154  1  0.27113534  0.10256084  0.58289899  1
  Te  Te155  1  0.25331443  0.08761908  0.90596015  1
  Te  Te156  1  0.24538450  0.43686557  0.24260269  1
  Te  Te157  1  0.24396943  0.39723169  0.60842397  1
  Te  Te158  1  0.24807339  0.38719276  0.87292837  1
  Te  Te159  1  0.22455637  0.71475952  0.29056598  1
  Te  Te160  1  0.25075645  0.73855279  0.58071442  1
  Te  Te161  1  0.26668060  0.75160540  0.90417142  1
  Te  Te162  1  0.55559493  0.09170598  0.27118241  1
  Te  Te163  1  0.58512391  0.08726801  0.58177590  1
  Te  Te164  1  0.58911776  0.11378735  0.92026281  1
  Te  Te165  1  0.56156652  0.42397236  0.24131595  1
  Te  Te166  1  0.57755786  0.43435848  0.58693659  1
  Te  Te167  1  0.56885835  0.42114450  0.94923500  1
  Te  Te168  1  0.57589890  0.75013716  0.25182101  1
  Te  Te169  1  0.57763637  0.75828176  0.58473270  1
  Te  Te170  1  0.58714172  0.73460496  0.90249311  1
  Te  Te171  1  0.89225104  0.08822358  0.26680626  1
  Te  Te172  1  0.91866918  0.07334873  0.59472717  1
  Te  Te173  1  0.93509277  0.09186073  0.92087161  1
  Te  Te174  1  0.95128474  0.43827846  0.24965344  1
  Te  Te175  1  0.91030387  0.43067697  0.60952961  1
  Te  Te176  1  0.91741060  0.41438167  0.90644019  1
  Te  Te177  1  0.91981683  0.72483064  0.27156790  1
  Te  Te178  1  0.94246172  0.74240016  0.57028413  1
  Te  Te179  1  0.89924547  0.73386485  0.90242133  1
