# generated using pymatgen
data_In2Te3
_symmetry_space_group_name_H-M   'P 1'
_cell_length_a   18.79547365
_cell_length_b   18.79449176
_cell_length_c   18.78778855
_cell_angle_alpha   89.97587482
_cell_angle_beta   90.07726424
_cell_angle_gamma   89.95324348
_symmetry_Int_Tables_number   1
_chemical_formula_structural   In2Te3
_chemical_formula_sum   'In72 Te108'
_cell_volume   6636.80329698
_cell_formula_units_Z   36
loop_
 _symmetry_equiv_pos_site_id
 _symmetry_equiv_pos_as_xyz
  1  'x, y, z'
loop_
 _atom_site_type_symbol
 _atom_site_label
 _atom_site_symmetry_multiplicity
 _atom_site_fract_x
 _atom_site_fract_y
 _atom_site_fract_z
 _atom_site_occupancy
  In  In0  1  0.01724464  0.50913047  0.50214399  1
  In  In1  1  0.51531779  0.15929284  0.63270177  1
  In  In2  1  0.49053878  0.13953508  0.02578391  1
  In  In3  1  0.17106060  0.52294383  0.65802169  1
  In  In4  1  0.16734115  0.16679872  0.65241237  1
  In  In5  1  0.49677208  0.50285077  0.32098035  1
  In  In6  1  0.31887312  -0.02378392  0.00972435  1
  In  In7  1  0.01566952  0.65898349  0.65808486  1
  In  In8  1  0.33270671  0.81856017  0.19426414  1
  In  In9  1  0.52016981  0.17980691  0.37447598  1
  In  In10  1  0.36017454  0.54223166  0.86953818  1
  In  In11  1  0.81642115  0.16622213  0.64974264  1
  In  In12  1  0.81371951  0.15739287  0.34621452  1
  In  In13  1  0.81912151  0.83218289  0.34635610  1
  In  In14  1  0.66234198  0.68749872  0.33660769  1
  In  In15  1  0.31467963  0.80308238  0.86066466  1
  In  In16  1  0.66430801  0.65981439  0.01068519  1
  In  In17  1  0.82698323  0.32014142  0.49066561  1
  In  In18  1  0.64679674  -0.00398155  0.34402032  1
  In  In19  1  0.01086307  0.70443104  0.02279011  1
  In  In20  1  0.84358740  0.66860905  0.15564930  1
  In  In21  1  0.50239098  0.82226463  0.01852140  1
  In  In22  1  0.83636318  0.49441674  0.69469390  1
  In  In23  1  0.16570682  0.16549537  0.03039484  1
  In  In24  1  0.00286381  0.32939846  0.03207152  1
  In  In25  1  0.82456970  0.66927016  0.48901263  1
  In  In26  1  0.33362059  0.33112533  0.34273691  1
  In  In27  1  0.83731635  0.01995517  0.83831385  1
  In  In28  1  0.01999135  0.32196783  0.66278447  1
  In  In29  1  0.48227063  0.83330282  0.65727903  1
  In  In30  1  0.65365235  0.50170085  0.16305955  1
  In  In31  1  0.01007310  0.52408063  0.86455908  1
  In  In32  1  0.00183773  0.16232617  0.17182701  1
  In  In33  1  0.46142569  -0.00580079  0.15786889  1
  In  In34  1  0.31539439  0.32546696  0.01501035  1
  In  In35  1  0.15404065  0.51042140  0.01771113  1
  In  In36  1  0.67513980  0.83860864  0.82336570  1
  In  In37  1  0.01456674  -0.03929971  0.31412938  1
  In  In38  1  0.17101570  0.32547181  0.83187520  1
  In  In39  1  -0.01017745  0.83435752  0.48066212  1
  In  In40  1  0.50527847  0.35408049  0.84007982  1
  In  In41  1  0.66629349  0.50083648  0.83260749  1
  In  In42  1  0.17726376  0.12101149  0.29484669  1
  In  In43  1  0.86323990  0.47889411  0.29583041  1
  In  In44  1  0.34843667  0.15432363  0.82147654  1
  In  In45  1  0.67014148  0.17503764  0.17882236  1
  In  In46  1  0.18386733  -0.02135856  0.46923680  1
  In  In47  1  0.03069954  0.68150347  0.32435194  1
  In  In48  1  0.49842542  0.49181002  0.66011077  1
  In  In49  1  0.00485770  0.81812959  0.85321161  1
  In  In50  1  0.51512778  -0.01862565  0.80367617  1
  In  In51  1  0.16370646  0.51402467  0.32799629  1
  In  In52  1  0.33569207  0.67616234  0.67028387  1
  In  In53  1  0.65631567  0.81660925  0.18837194  1
  In  In54  1  0.34493515  0.15728356  0.50465234  1
  In  In55  1  0.80809210  0.35034819  0.83901243  1
  In  In56  1  0.48514535  -0.01771167  0.49195439  1
  In  In57  1  0.32517398  0.52644360  0.15960472  1
  In  In58  1  0.87160303  -0.03502338  0.14062947  1
  In  In59  1  0.16315072  -0.03104481  0.83926740  1
  In  In60  1  -0.02030685  0.14834242  0.82902575  1
  In  In61  1  0.48556653  0.34469892  0.17347322  1
  In  In62  1  0.33400020  0.49765952  0.49318918  1
  In  In63  1  0.65736381  0.49591440  0.49702370  1
  In  In64  1  0.82149517  0.51172947  0.01803132  1
  In  In65  1  0.84085855  0.17063243  -0.02015663  1
  In  In66  1  0.64382242  0.68182764  0.66732542  1
  In  In67  1  -0.04417258  -0.00104926  0.65001364  1
  In  In68  1  0.68880801  0.17846463  0.81394387  1
  In  In69  1  0.16273352  0.34967259  0.48649737  1
  In  In70  1  0.67067172  0.01306792  -0.01642534  1
  In  In71  1  0.18261923  0.83665306  0.65647013  1
  Te  Te72  1  0.08598993  0.06345762  0.09874711  1
  Te  Te73  1  0.07988983  0.06830972  0.40214653  1
  Te  Te74  1  0.08953669  0.07693294  0.75052268  1
  Te  Te75  1  0.08853129  0.41666450  0.11779778  1
  Te  Te76  1  0.06199942  0.41400672  0.39218065  1
  Te  Te77  1  0.07821152  0.43440183  0.75150486  1
  Te  Te78  1  0.07327337  0.77758844  0.13879876  1
  Te  Te79  1  0.10706678  0.77466977  0.41201826  1
  Te  Te80  1  0.09949212  0.74892488  0.74862858  1
  Te  Te81  1  0.36184897  0.10233175  0.10360833  1
  Te  Te82  1  0.40930793  0.07402602  0.39529982  1
  Te  Te83  1  0.42160866  0.06765582  0.72019385  1
  Te  Te84  1  0.41018510  0.43074698  0.07275809  1
  Te  Te85  1  0.43572113  0.40689661  0.42482466  1
  Te  Te86  1  0.40039233  0.43323285  0.76319850  1
  Te  Te87  1  0.38870311  0.73963777  0.07059211  1
  Te  Te88  1  0.36545753  0.78795599  0.36575777  1
  Te  Te89  1  0.42530262  0.74699852  0.77208637  1
  Te  Te90  1  0.76001137  0.08340074  0.08509138  1
  Te  Te91  1  0.71870697  0.08671411  0.43973577  1
  Te  Te92  1  0.73735209  0.06235356  0.72969063  1
  Te  Te93  1  0.74565080  0.41103865  0.09175925  1
  Te  Te94  1  0.76520978  0.43301708  0.40714831  1
  Te  Te95  1  0.71924560  0.40202505  0.72710329  1
  Te  Te96  1  0.75143168  0.76495242  0.08066644  1
  Te  Te97  1  0.72342520  0.77745602  0.45151313  1
  Te  Te98  1  0.75499109  0.75196503  0.73369393  1
  Te  Te99  1  0.09402983  0.23853191  0.25979000  1
  Te  Te100  1  0.07607223  0.23725803  0.55172719  1
  Te  Te101  1  0.07426579  0.24312271  0.91645813  1
  Te  Te102  1  0.09403833  0.59431765  0.22363697  1
  Te  Te103  1  0.11575064  0.61580918  0.55004453  1
  Te  Te104  1  0.10950892  0.62372505  0.91811177  1
  Te  Te105  1  0.11585123  0.90500492  0.22126511  1
  Te  Te106  1  0.07937896  0.92213428  0.58025250  1
  Te  Te107  1  0.08740030  0.90190236  0.94538404  1
  Te  Te108  1  0.42415959  0.23904830  0.26295619  1
  Te  Te109  1  0.41527432  0.25761031  0.58555546  1
  Te  Te110  1  0.41432116  0.24819151  0.92549001  1
  Te  Te111  1  0.40824318  0.60265385  0.25705710  1
  Te  Te112  1  0.42196892  0.59303133  0.57455815  1
  Te  Te113  1  0.43172493  0.62048911  0.97262325  1
  Te  Te114  1  0.45272613  0.88670177  0.26263796  1
  Te  Te115  1  0.38345480  0.89788219  0.56348339  1
  Te  Te116  1  0.42894827  0.92167241  0.91869987  1
  Te  Te117  1  0.74906687  0.26415914  0.26477409  1
  Te  Te118  1  0.71915964  0.25240104  0.57257322  1
  Te  Te119  1  0.72670738  0.26384429  0.93429883  1
  Te  Te120  1  0.75275003  0.59098892  0.25399236  1
  Te  Te121  1  0.75343266  0.57823408  0.59142604  1
  Te  Te122  1  0.75954659  0.59595190  0.90738307  1
  Te  Te123  1  0.74927696  0.92760474  0.24449034  1
  Te  Te124  1  0.83712226  0.95492573  0.56733041  1
  Te  Te125  1  0.76593525  0.91233356  0.92416526  1
  Te  Te126  1  0.23003896  0.26486255  0.11923768  1
  Te  Te127  1  0.23935954  0.23594975  0.41504212  1
  Te  Te128  1  0.26348011  0.25188835  0.73639220  1
  Te  Te129  1  0.23568876  0.62149549  0.08061694  1
  Te  Te130  1  0.26114429  0.59449214  0.40769014  1
  Te  Te131  1  0.25279991  0.59137664  0.76613886  1
  Te  Te132  1  0.23454554  0.90355704  0.11013121  1
  Te  Te133  1  0.25229372  0.89738139  0.36447819  1
  Te  Te134  1  0.27477508  0.90958920  0.75669617  1
  Te  Te135  1  0.57387081  0.25234207  0.08594379  1
  Te  Te136  1  0.60913750  0.26159432  0.45842850  1
  Te  Te137  1  0.57090309  0.24921609  0.74942729  1
  Te  Te138  1  0.55750178  0.59023810  0.08901604  1
  Te  Te139  1  0.57152464  0.59538004  0.41990724  1
  Te  Te140  1  0.56520139  0.58782209  0.75909297  1
  Te  Te141  1  0.59029458  0.93030650  0.08562777  1
  Te  Te142  1  0.56549438  0.88879214  0.40573479  1
  Te  Te143  1  0.60667591  0.91128591  0.70522816  1
  Te  Te144  1  0.89452984  0.24848551  0.10017765  1
  Te  Te145  1  0.91593408  0.25599978  0.39282901  1
  Te  Te146  1  0.90445767  0.25879613  0.75169460  1
  Te  Te147  1  0.94133641  0.57701491  0.08326469  1
  Te  Te148  1  0.92306693  0.58946564  0.40363098  1
  Te  Te149  1  0.92146463  0.59947279  0.76449737  1
  Te  Te150  1  0.95578737  0.86119689  0.07463888  1
  Te  Te151  1  0.89369766  0.94461588  0.42559425  1
  Te  Te152  1  0.91625077  0.91160196  0.76608000  1
  Te  Te153  1  0.28796243  0.04795891  0.23184764  1
  Te  Te154  1  0.25136206  0.06251247  0.58022996  1
  Te  Te155  1  0.24838261  0.08521823  0.91514353  1
  Te  Te156  1  0.25600834  0.41980009  0.24822579  1
  Te  Te157  1  0.25317027  0.41248489  0.59216829  1
  Te  Te158  1  0.24313941  0.42859393  0.91862324  1
  Te  Te159  1  0.24949603  0.73425422  0.28893973  1
  Te  Te160  1  0.27984447  0.76828106  0.56499093  1
  Te  Te161  1  0.23159257  0.73230542  0.95911666  1
  Te  Te162  1  0.56646571  0.08180280  0.24178660  1
  Te  Te163  1  0.59762094  0.06127006  0.55508790  1
  Te  Te164  1  0.57273407  0.09269522  0.89732311  1
  Te  Te165  1  0.59524829  0.40110853  0.26424856  1
  Te  Te166  1  0.57469850  0.39727390  0.57241798  1
  Te  Te167  1  0.58855459  0.42872055  0.93504131  1
  Te  Te168  1  0.55491944  0.72065889  0.23715292  1
  Te  Te169  1  0.55543828  0.74214689  0.56551115  1
  Te  Te170  1  0.58676219  0.75130980  0.91272385  1
  Te  Te171  1  0.91063963  0.06529546  0.25243127  1
  Te  Te172  1  0.92184441  0.11345801  0.55865869  1
  Te  Te173  1  0.94165684  0.06056964  0.94736492  1
  Te  Te174  1  0.94747482  0.41323403  0.19635521  1
  Te  Te175  1  0.92160476  0.42231279  0.58596060  1
  Te  Te176  1  0.92269286  0.41029917  0.92180351  1
  Te  Te177  1  0.91644977  0.76180312  0.25529321  1
  Te  Te178  1  0.91542619  0.74897430  0.58440553  1
  Te  Te179  1  0.90457153  0.73459179  0.92417189  1
