# generated using pymatgen
data_In2Te3
_symmetry_space_group_name_H-M   'P 1'
_cell_length_a   18.75458061
_cell_length_b   18.76283628
_cell_length_c   18.76113554
_cell_angle_alpha   89.89265723
_cell_angle_beta   89.99369322
_cell_angle_gamma   89.97537793
_symmetry_Int_Tables_number   1
_chemical_formula_structural   In2Te3
_chemical_formula_sum   'In72 Te108'
_cell_volume   6601.82734471
_cell_formula_units_Z   36
loop_
 _symmetry_equiv_pos_site_id
 _symmetry_equiv_pos_as_xyz
  1  'x, y, z'
loop_
 _atom_site_type_symbol
 _atom_site_label
 _atom_site_symmetry_multiplicity
 _atom_site_fract_x
 _atom_site_fract_y
 _atom_site_fract_z
 _atom_site_occupancy
  In  In0  1  0.61808112  0.30558400  0.69767588  1
  In  In1  1  0.33806459  0.50735955  0.51112412  1
  In  In2  1  0.33841423  0.86026325  0.14431844  1
  In  In3  1  0.48798848  0.67590230  0.16093234  1
  In  In4  1  0.17817412  0.32240039  0.83162806  1
  In  In5  1  0.17675957  0.52018316  0.68080898  1
  In  In6  1  0.51031332  0.87298724  0.01669386  1
  In  In7  1  0.64919203  0.48332882  0.19081965  1
  In  In8  1  0.33357040  0.31354142  0.00229925  1
  In  In9  1  0.16109014  0.49957891  -0.00479506  1
  In  In10  1  0.67811341  0.68049582  0.00515524  1
  In  In11  1  0.52043419  0.50282002  0.32481293  1
  In  In12  1  0.81614971  0.15908371  0.02300822  1
  In  In13  1  0.34927846  0.30399978  0.30521312  1
  In  In14  1  0.01423149  0.66594726  0.68134049  1
  In  In15  1  0.32614936  -0.00929813  0.32796153  1
  In  In16  1  0.82546250  0.15376750  0.68128983  1
  In  In17  1  0.66056098  0.49932145  0.82812407  1
  In  In18  1  0.68048894  0.83421144  0.81762264  1
  In  In19  1  0.65274878  0.32065192  -0.00128256  1
  In  In20  1  0.19204163  0.14759351  -0.02076014  1
  In  In21  1  0.01145504  0.50148101  0.15814162  1
  In  In22  1  0.02250794  0.19160768  0.17306974  1
  In  In23  1  0.01479279  0.15255453  0.83619704  1
  In  In24  1  0.00898451  0.34025267  0.65561095  1
  In  In25  1  0.18736568  0.01325360  0.15919584  1
  In  In26  1  0.84077030  0.50311115  0.34679607  1
  In  In27  1  -0.00488822  0.00907053  0.34404846  1
  In  In28  1  0.34009642  0.31881797  0.69879562  1
  In  In29  1  0.82748320  0.52026144  0.66482591  1
  In  In30  1  0.82754297  0.16097331  0.35917689  1
  In  In31  1  0.51298752  -0.01734960  0.48906099  1
  In  In32  1  0.03796922  -0.03086837  0.65294018  1
  In  In33  1  0.66118141  -0.00684935  0.66492546  1
  In  In34  1  0.82994514  0.85237343  0.66428570  1
  In  In35  1  0.83460269  0.34759380  0.85822662  1
  In  In36  1  0.33596276  0.83167712  0.84639625  1
  In  In37  1  0.82856314  0.32218423  0.17483878  1
  In  In38  1  0.81659509  0.00509595  0.48830027  1
  In  In39  1  0.50389044  0.00730210  0.83142180  1
  In  In40  1  0.50909934  0.33977249  0.48934025  1
  In  In41  1  0.33581940  0.14990138  0.50885352  1
  In  In42  1  0.18130091  0.83513658  0.34600327  1
  In  In43  1  0.33628063  0.00092808  0.67869986  1
  In  In44  1  0.83976933  0.66393728  0.50243285  1
  In  In45  1  0.85708380  0.69020215  0.82546563  1
  In  In46  1  0.17476472  0.67373781  0.83561006  1
  In  In47  1  0.15833301  0.69963142  0.52432005  1
  In  In48  1  0.31375440  0.47394067  0.16103768  1
  In  In49  1  0.01146342  0.16384924  0.50388189  1
  In  In50  1  0.48397582  0.14412513  0.01802820  1
  In  In51  1  0.83687553  0.67836890  0.15089545  1
  In  In52  1  0.48185091  0.49787199  -0.01074117  1
  In  In53  1  0.32363642  0.82184971  0.50593685  1
  In  In54  1  0.66004614  0.16464157  0.50449241  1
  In  In55  1  0.16684458  0.48187043  0.33017257  1
  In  In56  1  0.51253576  0.71106333  0.51813185  1
  In  In57  1  0.85815334  0.50017242  0.00335160  1
  In  In58  1  0.15998888  0.33053371  0.49187876  1
  In  In59  1  0.03909894  -0.02692110  -0.03621651  1
  In  In60  1  0.82167744  0.00625279  0.82034986  1
  In  In61  1  0.34359816  0.68186877  0.35039873  1
  In  In62  1  0.48626249  0.50100733  0.65989460  1
  In  In63  1  0.00410177  0.82564487  0.16030624  1
  In  In64  1  0.48646814  0.67004104  0.82382634  1
  In  In65  1  0.81138882  -0.00771870  0.16816837  1
  In  In66  1  0.67972521  0.31750274  0.32753650  1
  In  In67  1  0.82740240  0.82684030  -0.00360334  1
  In  In68  1  0.83558782  0.33359100  0.48453209  1
  In  In69  1  0.64611216  0.67291338  0.33704856  1
  In  In70  1  0.16032487  0.66513729  0.14939480  1
  In  In71  1  0.83304260  0.85622925  0.32583194  1
  Te  Te72  1  0.07171206  0.08016452  0.07792440  1
  Te  Te73  1  0.09686925  0.09698661  0.40390582  1
  Te  Te74  1  0.09529449  0.07376426  0.74128846  1
  Te  Te75  1  0.09138168  0.40228172  0.08344995  1
  Te  Te76  1  0.06675072  0.41995931  0.42027811  1
  Te  Te77  1  0.08701664  0.42167361  0.75756011  1
  Te  Te78  1  0.09983119  0.76851654  0.06185037  1
  Te  Te79  1  0.07671606  0.75770836  0.41574315  1
  Te  Te80  1  0.09141674  0.77269356  0.75344567  1
  Te  Te81  1  0.41326888  0.05215200  0.12347809  1
  Te  Te82  1  0.42549720  0.07890052  0.40744271  1
  Te  Te83  1  0.42515157  0.10407319  0.74607593  1
  Te  Te84  1  0.42783566  0.39892626  0.09235890  1
  Te  Te85  1  0.40020578  0.41746741  0.40318667  1
  Te  Te86  1  0.41370127  0.42788020  0.76568247  1
  Te  Te87  1  0.41478334  0.75821648  0.05770491  1
  Te  Te88  1  0.43782975  0.78550479  0.40499429  1
  Te  Te89  1  0.40940179  0.76275195  0.73686970  1
  Te  Te90  1  0.71120466  0.06527914  0.07918548  1
  Te  Te91  1  0.70834904  0.06707953  0.39505073  1
  Te  Te92  1  0.71163368  0.09826624  0.76537241  1
  Te  Te93  1  0.74830099  0.42238946  0.08148135  1
  Te  Te94  1  0.73071008  0.42643608  0.42145663  1
  Te  Te95  1  0.74781876  0.40358087  0.74447980  1
  Te  Te96  1  0.73047792  0.77939272  0.10795761  1
  Te  Te97  1  0.75314271  0.75293337  0.40925904  1
  Te  Te98  1  0.75038675  0.73416761  0.72687944  1
  Te  Te99  1  0.09219719  0.28475459  0.26073840  1
  Te  Te100  1  0.10509952  0.23576859  0.60181213  1
  Te  Te101  1  0.08674663  0.24819076  0.93042628  1
  Te  Te102  1  0.08366475  0.59260017  0.25833984  1
  Te  Te103  1  0.08116772  0.57662898  0.57655471  1
  Te  Te104  1  0.07827687  0.58554086  0.90837307  1
  Te  Te105  1  0.08810272  0.92105607  0.24922758  1
  Te  Te106  1  0.10651011  0.89734269  0.54422376  1
  Te  Te107  1  0.11600582  0.89146960  0.86473202  1
  Te  Te108  1  0.40219671  0.19385675  0.21634348  1
  Te  Te109  1  0.42064329  0.25758573  0.58118759  1
  Te  Te110  1  0.41859954  0.23008744  0.90946053  1
  Te  Te111  1  0.40516297  0.57372377  0.25057850  1
  Te  Te112  1  0.41033124  0.61477663  0.58841281  1
  Te  Te113  1  0.39698263  0.58955749  0.91095338  1
  Te  Te114  1  0.43121115  0.92615158  0.24131404  1
  Te  Te115  1  0.41925895  0.91140399  0.58586644  1
  Te  Te116  1  0.40019832  0.95001483  0.93245902  1
  Te  Te117  1  0.74248650  0.21377309  0.23661612  1
  Te  Te118  1  0.75249898  0.25336103  0.58760137  1
  Te  Te119  1  0.74378395  0.23617554  0.90933408  1
  Te  Te120  1  0.75014059  0.58760675  0.24352813  1
  Te  Te121  1  0.73381136  0.58987106  0.57618545  1
  Te  Te122  1  0.75641524  0.58682873  0.91207911  1
  Te  Te123  1  0.71321032  0.92556393  0.26384431  1
  Te  Te124  1  0.72277458  0.89828806  0.55857595  1
  Te  Te125  1  0.73869375  0.92705990  0.92215981  1
  Te  Te126  1  0.25928466  0.21889998  0.09029639  1
  Te  Te127  1  0.25818885  0.24407139  0.41235496  1
  Te  Te128  1  0.25493617  0.21629703  0.76313369  1
  Te  Te129  1  0.26743915  0.58829826  0.07345259  1
  Te  Te130  1  0.24351061  0.59018168  0.42100583  1
  Te  Te131  1  0.27643482  0.58957235  0.76326615  1
  Te  Te132  1  0.23968941  0.92530677  0.05016813  1
  Te  Te133  1  0.23280051  0.93623070  0.44997330  1
  Te  Te134  1  0.23856806  0.92776421  0.77208820  1
  Te  Te135  1  0.58018779  0.23633613  0.09623460  1
  Te  Te136  1  0.57100104  0.23377799  0.39927558  1
  Te  Te137  1  0.52716243  0.22914815  0.78386238  1
  Te  Te138  1  0.58761714  0.57916683  0.07907604  1
  Te  Te139  1  0.57128184  0.58619325  0.43911144  1
  Te  Te140  1  0.58641829  0.59410186  0.73593359  1
  Te  Te141  1  0.60932688  0.94440663  0.09789510  1
  Te  Te142  1  0.60832363  0.93050927  0.38931587  1
  Te  Te143  1  0.56490983  0.89783945  0.73994873  1
  Te  Te144  1  0.92126670  0.25993566  0.07268386  1
  Te  Te145  1  0.93747167  0.25590183  0.40248070  1
  Te  Te146  1  0.92098643  0.25110311  0.75119959  1
  Te  Te147  1  0.94344845  0.60861020  0.06796696  1
  Te  Te148  1  0.93621364  0.58749413  0.41891499  1
  Te  Te149  1  0.92958083  0.56919010  0.76690569  1
  Te  Te150  1  0.91850236  0.92606617  0.07951756  1
  Te  Te151  1  0.92562828  0.90952789  0.43624527  1
  Te  Te152  1  0.92839877  0.91968319  0.75765303  1
  Te  Te153  1  0.24566228  0.09983396  0.26333293  1
  Te  Te154  1  0.23930433  0.07793270  0.59470813  1
  Te  Te155  1  0.26624773  0.03434566  0.92089856  1
  Te  Te156  1  0.22097310  0.37265433  0.23235509  1
  Te  Te157  1  0.25170531  0.41068903  0.59229258  1
  Te  Te158  1  0.26379058  0.41781304  0.91400212  1
  Te  Te159  1  0.26304270  0.75370193  0.23930704  1
  Te  Te160  1  0.25428869  0.75579794  0.61993199  1
  Te  Te161  1  0.24077932  0.76179385  0.93931061  1
  Te  Te162  1  0.53038891  0.10586827  0.20120333  1
  Te  Te163  1  0.56489017  0.08838389  0.59339929  1
  Te  Te164  1  0.58762510  0.07609773  0.93344314  1
  Te  Te165  1  0.55909816  0.37635263  0.24831905  1
  Te  Te166  1  0.59357163  0.41475942  0.59071100  1
  Te  Te167  1  0.56694860  0.40404006  0.90261979  1
  Te  Te168  1  0.56888944  0.76194731  0.24821913  1
  Te  Te169  1  0.60736895  0.79422637  0.59155858  1
  Te  Te170  1  0.58138371  0.76117000  0.91880302  1
  Te  Te171  1  0.91055608  0.08936108  0.24267996  1
  Te  Te172  1  0.91444166  0.07152928  0.58843491  1
  Te  Te173  1  0.91076680  0.08003641  0.92400745  1
  Te  Te174  1  0.92118739  0.41524624  0.25090895  1
  Te  Te175  1  0.91451330  0.42819348  0.57459442  1
  Te  Te176  1  0.94764528  0.41363772  0.92465881  1
  Te  Te177  1  0.91916836  0.74652264  0.25985888  1
  Te  Te178  1  0.92446576  0.75485362  0.59345197  1
  Te  Te179  1  0.93837570  0.76322249  0.92290071  1
