# generated using pymatgen
data_In2Te3
_symmetry_space_group_name_H-M   'P 1'
_cell_length_a   19.04219747
_cell_length_b   19.00394402
_cell_length_c   19.03488532
_cell_angle_alpha   89.85773299
_cell_angle_beta   90.11224645
_cell_angle_gamma   89.88863131
_symmetry_Int_Tables_number   1
_chemical_formula_structural   In2Te3
_chemical_formula_sum   'In72 Te108'
_cell_volume   6888.23689875
_cell_formula_units_Z   36
loop_
 _symmetry_equiv_pos_site_id
 _symmetry_equiv_pos_as_xyz
  1  'x, y, z'
loop_
 _atom_site_type_symbol
 _atom_site_label
 _atom_site_symmetry_multiplicity
 _atom_site_fract_x
 _atom_site_fract_y
 _atom_site_fract_z
 _atom_site_occupancy
  In  In0  1  0.51598214  0.33435676  0.50660087  1
  In  In1  1  0.33596876  0.14775592  0.86593946  1
  In  In2  1  0.68037305  0.52502903  0.50256927  1
  In  In3  1  0.49741939  0.51878976  0.01833899  1
  In  In4  1  0.16812270  0.18709536  0.30111651  1
  In  In5  1  0.02641588  0.80167637  0.15138406  1
  In  In6  1  0.49805521  0.65893255  0.85050690  1
  In  In7  1  -0.01229081  0.17634877  0.82429881  1
  In  In8  1  0.16729677  0.01676650  0.50004552  1
  In  In9  1  0.49581647  0.16422311  0.01009899  1
  In  In10  1  0.82629104  0.68998772  0.51958606  1
  In  In11  1  0.81889450  0.36710039  0.14248918  1
  In  In12  1  0.82607318  0.49014067  0.34176308  1
  In  In13  1  0.28242652  0.68063580  0.69572651  1
  In  In14  1  0.50126422  -0.01370234  0.84516214  1
  In  In15  1  0.35651739  0.34609558  0.69810664  1
  In  In16  1  0.49048167  0.80488004  0.64792502  1
  In  In17  1  0.67177055  0.49201064  0.81925083  1
  In  In18  1  0.67164673  0.03689766  0.69146440  1
  In  In19  1  0.15028656  0.16242416  0.69120810  1
  In  In20  1  0.86259722  -0.00113958  0.16528982  1
  In  In21  1  0.17308239  0.84690501  0.32785078  1
  In  In22  1  0.66104447  0.68440154  0.33686681  1
  In  In23  1  0.48984399  0.82334379  0.36496337  1
  In  In24  1  0.67126621  0.31704244  0.32441952  1
  In  In25  1  0.00094221  -0.01576804  0.34273960  1
  In  In26  1  0.01789884  0.49896066  0.84190469  1
  In  In27  1  0.87176425  0.65472657  0.80044684  1
  In  In28  1  0.68202020  0.00396383  -0.01458226  1
  In  In29  1  0.47928200  0.51361981  0.69279659  1
  In  In30  1  0.87296328  0.16709279  0.50946040  1
  In  In31  1  0.86050360  0.85075952  0.66645480  1
  In  In32  1  0.48056642  0.83427123  0.03106233  1
  In  In33  1  0.32618816  0.00549031  0.33023867  1
  In  In34  1  0.04546170  0.80884681  0.81526623  1
  In  In35  1  0.34532911  -0.03783404  0.70094898  1
  In  In36  1  0.01182315  0.35913489  -0.01227686  1
  In  In37  1  0.50473148  0.48446931  0.34291282  1
  In  In38  1  0.65885328  0.64987925  -0.00097396  1
  In  In39  1  0.14146710  0.34503412  0.49392578  1
  In  In40  1  0.00163078  0.63657597  0.31779266  1
  In  In41  1  0.16138846  0.66077715  0.49993603  1
  In  In42  1  0.83520440  0.48482128  -0.03123039  1
  In  In43  1  0.48907153  0.00224695  0.18341046  1
  In  In44  1  0.18362519  0.35951922  0.84633663  1
  In  In45  1  0.87284953  0.83811413  0.32393949  1
  In  In46  1  0.29095792  0.84864085  0.12580952  1
  In  In47  1  -0.01257884  0.30819365  0.64012014  1
  In  In48  1  0.81119008  0.20499650  -0.03310640  1
  In  In49  1  0.65454219  0.17241220  0.49362622  1
  In  In50  1  0.50898067  0.32039865  0.16721057  1
  In  In51  1  0.02005271  0.85183752  0.50181856  1
  In  In52  1  0.17597454  0.63428854  0.16339250  1
  In  In53  1  0.81899695  0.62637825  0.13909446  1
  In  In54  1  0.85120899  0.82567522  -0.04859202  1
  In  In55  1  0.65642889  0.86177539  0.52211267  1
  In  In56  1  0.32891933  0.64978550  0.35253766  1
  In  In57  1  0.16922253  0.15030766  0.00668215  1
  In  In58  1  0.31825527  0.16849526  0.14347223  1
  In  In59  1  0.15741541  0.51031525  0.67682694  1
  In  In60  1  0.54053486  0.18138765  0.68708600  1
  In  In61  1  0.29573016  0.81116264  0.86637962  1
  In  In62  1  0.33842683  0.47931090  0.18774912  1
  In  In63  1  0.00550922  0.00397080  -0.01965862  1
  In  In64  1  0.67821356  0.34044395  0.66823231  1
  In  In65  1  0.67366313  0.82083663  0.81881394  1
  In  In66  1  0.34896900  0.33001302  0.32908619  1
  In  In67  1  0.30676828  0.51956653  0.52922496  1
  In  In68  1  -0.01201663  0.18822042  0.18293823  1
  In  In69  1  0.68289966  0.82545194  0.17106849  1
  In  In70  1  0.33104850  0.15211505  0.50707690  1
  In  In71  1  0.66621657  0.16144824  0.17238324  1
  Te  Te72  1  0.06098450  0.08862635  0.09267035  1
  Te  Te73  1  0.09103305  0.09315189  0.39526340  1
  Te  Te74  1  0.07283733  0.06876536  0.77028333  1
  Te  Te75  1  0.04255802  0.47324218  0.07373792  1
  Te  Te76  1  0.03197914  0.40002360  0.41246893  1
  Te  Te77  1  0.07933109  0.38827665  0.74013382  1
  Te  Te78  1  0.11027870  0.72211455  0.06046976  1
  Te  Te79  1  0.07350479  0.75233162  0.39443569  1
  Te  Te80  1  0.14039743  0.74105167  0.72085925  1
  Te  Te81  1  0.40432266  0.06346598  0.07461190  1
  Te  Te82  1  0.41680785  0.08406623  0.41228005  1
  Te  Te83  1  0.43103418  0.08921205  0.75406458  1
  Te  Te84  1  0.41778149  0.40348324  0.08270368  1
  Te  Te85  1  0.40395383  0.42774457  0.44264543  1
  Te  Te86  1  0.39807858  0.44673316  0.79664962  1
  Te  Te87  1  0.37886033  0.74058363  0.07814885  1
  Te  Te88  1  0.39725112  0.74219849  0.44151165  1
  Te  Te89  1  0.40719388  0.75173215  0.76962135  1
  Te  Te90  1  0.76985625  0.08583756  0.07943871  1
  Te  Te91  1  0.76715681  0.11232162  0.42260020  1
  Te  Te92  1  0.75564647  0.13587496  0.75968933  1
  Te  Te93  1  0.72359353  0.42837300  0.04728595  1
  Te  Te94  1  0.73630086  0.40441076  0.42907810  1
  Te  Te95  1  0.77117224  0.43960143  0.72466989  1
  Te  Te96  1  0.76170086  0.75719904  0.06073772  1
  Te  Te97  1  0.76019610  0.77246349  0.40928115  1
  Te  Te98  1  0.77019670  0.74686209  0.73163843  1
  Te  Te99  1  0.08604671  0.28529542  0.22995576  1
  Te  Te100  1  0.08882666  0.22230102  0.56686299  1
  Te  Te101  1  0.09205266  0.24853006  0.91114149  1
  Te  Te102  1  0.07621997  0.54648689  0.23053280  1
  Te  Te103  1  0.07407544  0.56640101  0.57033581  1
  Te  Te104  1  0.13685335  0.57922423  0.88596698  1
  Te  Te105  1  0.08177158  0.91687840  0.23012568  1
  Te  Te106  1  0.06815856  0.95757496  0.59597928  1
  Te  Te107  1  0.09425316  0.89303956  0.93525964  1
  Te  Te108  1  0.41719857  0.22724676  0.24223367  1
  Te  Te109  1  0.42288718  0.25196929  0.59273427  1
  Te  Te110  1  0.41396828  0.25326423  0.92736679  1
  Te  Te111  1  0.42459126  0.58157297  0.25778671  1
  Te  Te112  1  0.39854178  0.60614727  0.60544651  1
  Te  Te113  1  0.40317307  0.60971771  0.94894333  1
  Te  Te114  1  0.38933228  0.90214140  0.23678176  1
  Te  Te115  1  0.41611257  0.91268129  0.58504588  1
  Te  Te116  1  0.40244174  0.90895181  0.92515769  1
  Te  Te117  1  0.77048390  0.25180416  0.23437742  1
  Te  Te118  1  0.75262957  0.25123473  0.57514726  1
  Te  Te119  1  0.72182119  0.24853753  0.85935834  1
  Te  Te120  1  0.73391211  0.58014076  0.25357270  1
  Te  Te121  1  0.78020271  0.57326283  0.59766204  1
  Te  Te122  1  0.76022759  0.60389797  0.89721401  1
  Te  Te123  1  0.76556222  0.92221503  0.25293757  1
  Te  Te124  1  0.75296391  0.94302527  0.60472694  1
  Te  Te125  1  0.76136644  0.92760492  0.88185870  1
  Te  Te126  1  0.24101256  0.26339955  0.06463014  1
  Te  Te127  1  0.25112538  0.25027957  0.42140602  1
  Te  Te128  1  0.25767751  0.24589706  0.76509529  1
  Te  Te129  1  0.25877215  0.54432647  0.07780077  1
  Te  Te130  1  0.22346052  0.55679939  0.40752806  1
  Te  Te131  1  0.26186406  0.55377516  0.77350408  1
  Te  Te132  1  0.20947704  0.92737682  0.03393836  1
  Te  Te133  1  0.25572032  0.91483206  0.43239161  1
  Te  Te134  1  0.23104001  0.89391160  0.76034638  1
  Te  Te135  1  0.60346476  0.25277238  0.07032255  1
  Te  Te136  1  0.56012757  0.24395698  0.39584146  1
  Te  Te137  1  0.57847383  0.29561487  0.76934780  1
  Te  Te138  1  0.57534113  0.60586430  0.10773290  1
  Te  Te139  1  0.57265682  0.59487761  0.42219817  1
  Te  Te140  1  0.59097007  0.59989240  0.74818428  1
  Te  Te141  1  0.59630959  0.92759253  0.08429987  1
  Te  Te142  1  0.58382998  0.92291904  0.41122772  1
  Te  Te143  1  0.58171874  0.91306646  0.74054440  1
  Te  Te144  1  0.91348518  0.26359542  0.06418026  1
  Te  Te145  1  0.93194334  0.27981735  0.42731131  1
  Te  Te146  1  0.89392037  0.22205180  0.71807343  1
  Te  Te147  1  0.92677743  0.57284622  0.04982540  1
  Te  Te148  1  0.90083827  0.59664395  0.42021041  1
  Te  Te149  1  0.96726239  0.57366378  0.72407392  1
  Te  Te150  1  0.92344998  0.89777665  0.06988890  1
  Te  Te151  1  0.90102364  0.92917961  0.44375603  1
  Te  Te152  1  0.94636329  0.90884384  0.76983999  1
  Te  Te153  1  0.23607442  0.07295484  0.22925408  1
  Te  Te154  1  0.25867793  0.07379439  0.61458528  1
  Te  Te155  1  0.23880940  0.05167674  0.92041646  1
  Te  Te156  1  0.23981207  0.39925004  0.26146851  1
  Te  Te157  1  0.24664827  0.39723528  0.59924667  1
  Te  Te158  1  0.20795499  0.45553299  0.95586471  1
  Te  Te159  1  0.24601558  0.73855030  0.25245942  1
  Te  Te160  1  0.22499855  0.76422872  0.58285351  1
  Te  Te161  1  0.20660777  0.71234953  0.92845924  1
  Te  Te162  1  0.59247299  0.07092244  0.25918853  1
  Te  Te163  1  0.57458975  0.07887389  0.58223698  1
  Te  Te164  1  0.58722433  0.09249836  0.90868771  1
  Te  Te165  1  0.59537701  0.41919177  0.24183960  1
  Te  Te166  1  0.57499884  0.44212354  0.59231967  1
  Te  Te167  1  0.59639822  0.44128013  0.93566172  1
  Te  Te168  1  0.56842272  0.76281533  0.24569440  1
  Te  Te169  1  0.60083018  0.74047114  0.57930349  1
  Te  Te170  1  0.58249898  0.77103778  0.92897116  1
  Te  Te171  1  0.91464713  0.09110845  0.27272834  1
  Te  Te172  1  0.95089207  0.05463181  0.56209309  1
  Te  Te173  1  0.90010456  0.09170954  0.91574555  1
  Te  Te174  1  0.90893429  0.42927157  0.23814929  1
  Te  Te175  1  0.92182053  0.38929114  0.53461116  1
  Te  Te176  1  0.91216285  0.39385133  0.87839597  1
  Te  Te177  1  0.90772495  0.72826675  0.22387669  1
  Te  Te178  1  0.94617498  0.75282253  0.58864167  1
  Te  Te179  1  0.95226444  0.72499777  0.90738979  1
