# generated using pymatgen
data_In2Te3
_symmetry_space_group_name_H-M   'P 1'
_cell_length_a   18.82654155
_cell_length_b   18.82710618
_cell_length_c   18.82423416
_cell_angle_alpha   89.90990897
_cell_angle_beta   89.95341574
_cell_angle_gamma   90.03297211
_symmetry_Int_Tables_number   1
_chemical_formula_structural   In2Te3
_chemical_formula_sum   'In72 Te108'
_cell_volume   6672.22499702
_cell_formula_units_Z   36
loop_
 _symmetry_equiv_pos_site_id
 _symmetry_equiv_pos_as_xyz
  1  'x, y, z'
loop_
 _atom_site_type_symbol
 _atom_site_label
 _atom_site_symmetry_multiplicity
 _atom_site_fract_x
 _atom_site_fract_y
 _atom_site_fract_z
 _atom_site_occupancy
  In  In0  1  0.83447093  0.17631996  -0.02663145  1
  In  In1  1  0.84205689  0.80456271  0.66609618  1
  In  In2  1  0.66547542  0.02392750  0.66936745  1
  In  In3  1  0.66564147  0.49442278  0.50080092  1
  In  In4  1  0.85041619  0.00189755  0.83997082  1
  In  In5  1  0.32835189  0.17585972  0.17338982  1
  In  In6  1  0.48749970  0.35820468  0.80744579  1
  In  In7  1  0.50772604  0.66380967  0.81950988  1
  In  In8  1  0.02559433  0.33281179  0.00703524  1
  In  In9  1  0.31214987  0.83257221  0.51769690  1
  In  In10  1  0.13633149  -0.02146030  0.87115630  1
  In  In11  1  0.85229447  0.66710634  0.47181987  1
  In  In12  1  0.83433425  0.18234775  0.66471837  1
  In  In13  1  0.17320757  0.67853379  0.83693036  1
  In  In14  1  0.33779015  0.48393791  0.16697942  1
  In  In15  1  0.49551341  0.01079671  0.86138732  1
  In  In16  1  0.49449656  0.01523581  0.18266849  1
  In  In17  1  0.00726966  0.81475316  0.17221565  1
  In  In18  1  0.33860701  0.17186460  0.83339383  1
  In  In19  1  0.17109272  0.17376672  0.68355412  1
  In  In20  1  0.31661040  0.66862818  0.33966837  1
  In  In21  1  0.66331327  0.63043956  0.65736018  1
  In  In22  1  0.82418271  0.51732926  0.32599918  1
  In  In23  1  0.17725455  0.34265362  0.85705669  1
  In  In24  1  0.01704509  -0.00903420  0.66167904  1
  In  In25  1  0.66877375  0.16916874  0.16701209  1
  In  In26  1  0.67167572  0.83078913  0.48514234  1
  In  In27  1  0.84906341  0.67280880  0.86611931  1
  In  In28  1  0.82182491  0.35526392  0.17540700  1
  In  In29  1  0.86632658  -0.01981385  0.17839859  1
  In  In30  1  0.51687527  0.48829443  0.01086436  1
  In  In31  1  0.51742475  0.18924516  0.00805151  1
  In  In32  1  0.51529840  0.48759790  0.34301855  1
  In  In33  1  0.68891291  0.82723933  0.15935771  1
  In  In34  1  0.34800489  0.63302639  0.68347029  1
  In  In35  1  0.65341376  0.83178069  0.84186441  1
  In  In36  1  0.33137272  0.33156183  0.32944081  1
  In  In37  1  0.01571929  0.50846148  0.83238787  1
  In  In38  1  0.48163944  0.63767474  0.49966696  1
  In  In39  1  -0.01685163  0.65557086  0.65988334  1
  In  In40  1  0.47661325  0.82503014  0.65822079  1
  In  In41  1  0.16264898  0.15749681  0.02660866  1
  In  In42  1  0.50428705  0.84749131  0.32281139  1
  In  In43  1  0.16148695  0.00870681  0.47466578  1
  In  In44  1  0.17758804  0.50474240  0.65571971  1
  In  In45  1  0.82607938  -0.00991086  0.48041158  1
  In  In46  1  0.67343747  0.00652177  -0.00140502  1
  In  In47  1  0.34669337  0.18314510  0.48604746  1
  In  In48  1  0.82031334  0.34174129  0.82181115  1
  In  In49  1  0.49953476  0.82119370  -0.00900559  1
  In  In50  1  0.17755485  0.34548917  0.17230153  1
  In  In51  1  -0.00481257  0.15201046  0.16526014  1
  In  In52  1  0.82257093  0.65514639  0.15888433  1
  In  In53  1  0.16051031  0.34095672  0.48746862  1
  In  In54  1  0.13779015  0.66662372  0.47390849  1
  In  In55  1  0.31447703  -0.02571182  0.02491496  1
  In  In56  1  0.00548165  0.16376734  0.48490499  1
  In  In57  1  0.31693138  0.02760693  0.32606504  1
  In  In58  1  0.16130490  0.82809988  0.67025358  1
  In  In59  1  -0.03991860  0.35232573  0.65530844  1
  In  In60  1  0.84522985  0.83889881  0.31343452  1
  In  In61  1  0.82603229  0.50854303  0.00513376  1
  In  In62  1  0.33177612  -0.01574004  0.66280179  1
  In  In63  1  0.16633815  0.51093222  0.00191878  1
  In  In64  1  0.68208527  0.18005953  0.49967190  1
  In  In65  1  0.32491206  0.67155277  -0.01802127  1
  In  In66  1  0.67141875  0.33288627  0.32468524  1
  In  In67  1  -0.01210962  0.32510742  0.33769583  1
  In  In68  1  0.50702298  0.65301276  0.14652429  1
  In  In69  1  0.50828214  0.34989539  0.51125731  1
  In  In70  1  0.27997540  0.81953408  0.17292214  1
  In  In71  1  0.52621110  0.19201137  0.66145196  1
  Te  Te72  1  0.08180153  0.05306993  0.09420542  1
  Te  Te73  1  0.07455276  0.08425615  0.38125620  1
  Te  Te74  1  0.08338408  0.07973718  0.76529082  1
  Te  Te75  1  0.07758363  0.43795347  0.10305324  1
  Te  Te76  1  0.07105336  0.42634879  0.40849439  1
  Te  Te77  1  0.08393737  0.40664349  0.74220086  1
  Te  Te78  1  0.07905647  0.70975966  0.09357405  1
  Te  Te79  1  0.08621746  0.77535903  0.38802852  1
  Te  Te80  1  0.06441023  0.74588462  0.75279859  1
  Te  Te81  1  0.42068388  0.08311378  0.06645556  1
  Te  Te82  1  0.42338353  0.08708529  0.40672837  1
  Te  Te83  1  0.42328767  0.08296746  0.73896169  1
  Te  Te84  1  0.43729566  0.39896936  0.10075791  1
  Te  Te85  1  0.40579264  0.42494981  0.42711725  1
  Te  Te86  1  0.40198613  0.44954287  0.72981023  1
  Te  Te87  1  0.40375026  0.75800170  0.09557034  1
  Te  Te88  1  0.41996317  0.75688060  0.42488980  1
  Te  Te89  1  0.39501532  0.75492756  0.76424925  1
  Te  Te90  1  0.77042466  0.08016676  0.08940563  1
  Te  Te91  1  0.75656247  0.09435322  0.40492041  1
  Te  Te92  1  0.75422173  0.09844799  0.76574385  1
  Te  Te93  1  0.73786269  0.40164020  0.06282255  1
  Te  Te94  1  0.76230100  0.41122097  0.41741567  1
  Te  Te95  1  0.75007431  0.39645458  0.70163493  1
  Te  Te96  1  0.76267295  0.75010545  0.06020803  1
  Te  Te97  1  0.74863150  0.74342805  0.38949477  1
  Te  Te98  1  0.73397979  0.73742456  0.75009356  1
  Te  Te99  1  0.08449954  0.24996555  0.24379539  1
  Te  Te100  1  0.07423168  0.25053192  0.59279981  1
  Te  Te101  1  0.08939416  0.23109091  0.91385483  1
  Te  Te102  1  0.11252494  0.61733293  0.20429456  1
  Te  Te103  1  0.06730630  0.56716123  0.57088652  1
  Te  Te104  1  0.07231146  0.60812999  0.93145048  1
  Te  Te105  1  0.04811850  0.89527654  0.29386359  1
  Te  Te106  1  0.08811557  0.90341344  0.56009888  1
  Te  Te107  1  0.04065317  0.88809601  0.93834122  1
  Te  Te108  1  0.42627767  0.25123361  0.25129960  1
  Te  Te109  1  0.41022181  0.26591963  0.59576174  1
  Te  Te110  1  0.42029550  0.26504569  0.91887044  1
  Te  Te111  1  0.42046854  0.58838448  0.25837912  1
  Te  Te112  1  0.44606133  0.54319936  0.61103167  1
  Te  Te113  1  0.42679004  0.58066407  0.92034285  1
  Te  Te114  1  0.39392233  0.91067506  0.23568702  1
  Te  Te115  1  0.42701848  0.92861558  0.55766956  1
  Te  Te116  1  0.39930710  0.90663712  0.91412611  1
  Te  Te117  1  0.77193288  0.23860394  0.25856674  1
  Te  Te118  1  0.74232280  0.28063417  0.59724041  1
  Te  Te119  1  0.73819339  0.27813691  0.92959582  1
  Te  Te120  1  0.72251511  0.56672954  0.22833091  1
  Te  Te121  1  0.78384452  0.57469461  0.57551382  1
  Te  Te122  1  0.75206989  0.56456216  0.88917320  1
  Te  Te123  1  0.74024033  0.93322759  0.25397679  1
  Te  Te124  1  0.74754233  0.91427713  0.60137149  1
  Te  Te125  1  0.75850704  0.90663496  0.92189734  1
  Te  Te126  1  0.25943635  0.26647497  0.07121371  1
  Te  Te127  1  0.23372322  0.23690282  0.40117594  1
  Te  Te128  1  0.26363428  0.27462483  0.74906335  1
  Te  Te129  1  0.25652618  0.59378257  0.09823870  1
  Te  Te130  1  0.25730026  0.58420839  0.44531526  1
  Te  Te131  1  0.25089359  0.56112179  0.77814109  1
  Te  Te132  1  0.19663792  0.91016229  0.08924953  1
  Te  Te133  1  0.25164919  0.90806411  0.40168974  1
  Te  Te134  1  0.23628497  0.92212404  0.76238450  1
  Te  Te135  1  0.59929203  0.27817833  0.09294052  1
  Te  Te136  1  0.57639846  0.25444499  0.41573842  1
  Te  Te137  1  0.59222109  0.25708629  0.77332459  1
  Te  Te138  1  0.61575113  0.56963664  0.09141625  1
  Te  Te139  1  0.59775013  0.59786311  0.41078506  1
  Te  Te140  1  0.59675663  0.55479329  0.76782949  1
  Te  Te141  1  0.57582246  0.92023875  0.08025824  1
  Te  Te142  1  0.59133735  0.92782981  0.41000154  1
  Te  Te143  1  0.56946561  0.92182624  0.74999800  1
  Te  Te144  1  0.91703947  0.25901039  0.08617293  1
  Te  Te145  1  0.90266275  0.25753329  0.43900221  1
  Te  Te146  1  0.92863904  0.24830346  0.76389919  1
  Te  Te147  1  0.92729603  0.58074210  0.08315181  1
  Te  Te148  1  0.94248659  0.58437689  0.38833332  1
  Te  Te149  1  0.90082533  0.57275809  0.75696011  1
  Te  Te150  1  0.92698077  0.89537584  0.07079715  1
  Te  Te151  1  0.93466861  0.91804323  0.40705778  1
  Te  Te152  1  0.92473510  0.90435463  0.74769912  1
  Te  Te153  1  0.22760589  0.07929703  0.22123056  1
  Te  Te154  1  0.24741446  0.08543242  0.58232816  1
  Te  Te155  1  0.25341502  0.07711551  0.91852661  1
  Te  Te156  1  0.23811934  0.44030353  0.27484633  1
  Te  Te157  1  0.25699107  0.41128324  0.57498423  1
  Te  Te158  1  0.26764171  0.42538310  0.93745026  1
  Te  Te159  1  0.19638677  0.73168961  0.26757854  1
  Te  Te160  1  0.24546926  0.72169183  0.59956027  1
  Te  Te161  1  0.23401363  0.77486248  0.93042030  1
  Te  Te162  1  0.58537537  0.09397540  0.26450367  1
  Te  Te163  1  0.57682643  0.08637432  0.56431086  1
  Te  Te164  1  0.60213530  0.10666749  0.90836859  1
  Te  Te165  1  0.58481294  0.41445724  0.23666018  1
  Te  Te166  1  0.60580959  0.41009383  0.60877558  1
  Te  Te167  1  0.58895001  0.43200300  0.89220194  1
  Te  Te168  1  0.58513010  0.74896955  0.23998027  1
  Te  Te169  1  0.58125532  0.74267829  0.58340291  1
  Te  Te170  1  0.59814891  0.72303891  0.93338839  1
  Te  Te171  1  0.92447285  0.07839646  0.27345780  1
  Te  Te172  1  0.91193294  0.07404138  0.58665620  1
  Te  Te173  1  0.93479900  0.07727211  0.93405316  1
  Te  Te174  1  0.92785015  0.43478156  0.24536894  1
  Te  Te175  1  0.88287183  0.45102004  0.58159989  1
  Te  Te176  1  0.93148577  0.41125689  0.91605850  1
  Te  Te177  1  0.92057684  0.71921268  0.25844054  1
  Te  Te178  1  0.93707837  0.76155349  0.55668375  1
  Te  Te179  1  0.93336324  0.77393045  0.92793811  1
