# generated using pymatgen
data_In2Te3
_symmetry_space_group_name_H-M   'P 1'
_cell_length_a   18.94894471
_cell_length_b   18.95311772
_cell_length_c   18.93706882
_cell_angle_alpha   90.08561095
_cell_angle_beta   89.92966706
_cell_angle_gamma   89.90748016
_symmetry_Int_Tables_number   1
_chemical_formula_structural   In2Te3
_chemical_formula_sum   'In72 Te108'
_cell_volume   6801.06720977
_cell_formula_units_Z   36
loop_
 _symmetry_equiv_pos_site_id
 _symmetry_equiv_pos_as_xyz
  1  'x, y, z'
loop_
 _atom_site_type_symbol
 _atom_site_label
 _atom_site_symmetry_multiplicity
 _atom_site_fract_x
 _atom_site_fract_y
 _atom_site_fract_z
 _atom_site_occupancy
  In  In0  1  0.69158665  0.15852902  0.53309935  1
  In  In1  1  0.50447115  0.50050385  0.30945635  1
  In  In2  1  0.85567281  0.67190140  0.17670486  1
  In  In3  1  0.32111717  0.19179747  0.16731323  1
  In  In4  1  0.34826933  0.00010554  0.65679163  1
  In  In5  1  0.82409828  0.01070094  0.18270419  1
  In  In6  1  0.83497336  0.83433000  -0.00723108  1
  In  In7  1  -0.00840345  0.00888284  -0.01198951  1
  In  In8  1  0.84498305  0.00704946  0.83237784  1
  In  In9  1  0.48915607  0.82813728  0.33800508  1
  In  In10  1  0.45981859  0.51071619  0.00932953  1
  In  In11  1  0.12317660  0.14359106  0.36715540  1
  In  In12  1  0.32819957  0.83430666  0.83170124  1
  In  In13  1  0.84174917  0.31368088  0.16635846  1
  In  In14  1  0.14325224  0.32800375  0.95629404  1
  In  In15  1  0.66313093  0.49815641  0.16677404  1
  In  In16  1  0.16642800  0.49152013  0.66354353  1
  In  In17  1  0.67577474  0.34584718  -0.01415901  1
  In  In18  1  0.68323988  0.16161001  0.80465747  1
  In  In19  1  0.32101746  0.65326056  0.66417051  1
  In  In20  1  0.17911106  -0.00412235  0.17049623  1
  In  In21  1  0.35457625  0.32936474  0.66658142  1
  In  In22  1  0.32889337  0.33593819  0.31656181  1
  In  In23  1  0.32237138  0.01539868  -0.02235198  1
  In  In24  1  0.52007433  0.13836627  0.33242888  1
  In  In25  1  0.35190885  0.81562444  0.17947479  1
  In  In26  1  0.83179739  0.48907349  0.68034777  1
  In  In27  1  0.85338550  0.32775484  0.82897720  1
  In  In28  1  0.83604160  0.65709999  0.50788235  1
  In  In29  1  -0.02528501  -0.00137154  0.64926248  1
  In  In30  1  -0.01109901  0.30290886  0.36840697  1
  In  In31  1  0.51888537  0.32072221  0.83057721  1
  In  In32  1  -0.00956041  0.15189268  0.16137925  1
  In  In33  1  0.49652623  0.68134998  0.84662168  1
  In  In34  1  0.49661085  0.16260493  0.00960043  1
  In  In35  1  0.15762554  0.83101013  0.33497011  1
  In  In36  1  -0.02189378  0.32369862  0.64467628  1
  In  In37  1  -0.02834563  0.85121745  0.49448124  1
  In  In38  1  0.31314351  0.17102630  0.82512700  1
  In  In39  1  0.16193696  0.14491855  0.66539460  1
  In  In40  1  0.66960972  -0.00135454  0.33230758  1
  In  In41  1  0.49418473  -0.00058524  0.81644222  1
  In  In42  1  0.16144445  0.35094544  0.51474498  1
  In  In43  1  0.52183252  0.84762118  0.64702303  1
  In  In44  1  0.02633106  0.48578556  0.85828592  1
  In  In45  1  0.18347517  0.81992185  0.66675002  1
  In  In46  1  0.49185700  0.37720362  0.16639754  1
  In  In47  1  0.48559534  0.68478088  0.51045655  1
  In  In48  1  0.84201657  0.68326496  0.82288017  1
  In  In49  1  0.16464085  0.33184690  0.14890107  1
  In  In50  1  -0.00105495  0.82021314  0.18873829  1
  In  In51  1  0.13681077  0.84144010  0.01537092  1
  In  In52  1  0.31904705  -0.02953216  0.32745261  1
  In  In53  1  0.32077777  0.17725215  0.51747287  1
  In  In54  1  0.68955292  0.18235438  0.15893263  1
  In  In55  1  0.51572188  0.48552595  0.67550818  1
  In  In56  1  0.81476414  0.84955624  0.66289185  1
  In  In57  1  0.31825861  0.50660511  0.15967882  1
  In  In58  1  0.68022643  0.00191653  0.01037408  1
  In  In59  1  -0.00207461  0.64812899  0.01561330  1
  In  In60  1  0.68819246  0.51151448  0.83915398  1
  In  In61  1  0.50728846  0.33336321  0.47012972  1
  In  In62  1  0.66202340  0.65122411  -0.01830087  1
  In  In63  1  0.68977884  0.49713840  0.49183379  1
  In  In64  1  0.13647838  0.64820919  0.32525867  1
  In  In65  1  0.03615517  0.66252803  0.67073831  1
  In  In66  1  0.31758689  0.67254041  0.02181689  1
  In  In67  1  0.67558846  0.68934729  0.36372686  1
  In  In68  1  0.00988034  0.50673749  0.50892067  1
  In  In69  1  0.65275150  0.83788532  0.16335255  1
  In  In70  1  0.84577150  0.48623111  0.31940519  1
  In  In71  1  0.50508726  0.01756662  0.50313502  1
  Te  Te72  1  0.09523641  0.07976998  0.07735995  1
  Te  Te73  1  0.03440742  0.05634762  0.45199102  1
  Te  Te74  1  0.05234464  0.08517482  0.74109533  1
  Te  Te75  1  0.06756556  0.39838270  0.06222774  1
  Te  Te76  1  0.08343324  0.42121780  0.40708976  1
  Te  Te77  1  0.07148149  0.40175793  0.74013067  1
  Te  Te78  1  0.09205688  0.72908871  0.11100827  1
  Te  Te79  1  0.05246361  0.75227237  0.41085112  1
  Te  Te80  1  0.11028945  0.74142654  0.76803281  1
  Te  Te81  1  0.39879219  0.08309730  0.09251898  1
  Te  Te82  1  0.39899926  0.08972187  0.41036391  1
  Te  Te83  1  0.41934105  0.10559908  0.73818888  1
  Te  Te84  1  0.37909078  0.38892167  0.06386910  1
  Te  Te85  1  0.40780938  0.42903188  0.40624279  1
  Te  Te86  1  0.41672803  0.41967941  0.77067378  1
  Te  Te87  1  0.43142890  0.74421727  0.07931006  1
  Te  Te88  1  0.39834698  0.73716597  0.40625382  1
  Te  Te89  1  0.42139754  0.76291362  0.73483832  1
  Te  Te90  1  0.77951086  0.09941738  0.06786187  1
  Te  Te91  1  0.75219389  0.04437562  0.44981575  1
  Te  Te92  1  0.78006812  0.08468049  0.72401852  1
  Te  Te93  1  0.76326751  0.42026315  0.08431244  1
  Te  Te94  1  0.75837581  0.40355328  0.40216322  1
  Te  Te95  1  0.73535043  0.39839294  0.75259116  1
  Te  Te96  1  0.75188111  0.74172380  0.08078229  1
  Te  Te97  1  0.76104379  0.77554784  0.45083942  1
  Te  Te98  1  0.74038687  0.75549731  0.74775674  1
  Te  Te99  1  0.08410697  0.24109485  0.25469144  1
  Te  Te100  1  0.08161532  0.23831751  0.57257235  1
  Te  Te101  1  0.01706801  0.25027644  0.92783790  1
  Te  Te102  1  0.05946787  0.59259500  0.21436998  1
  Te  Te103  1  0.12169906  0.60171411  0.55337388  1
  Te  Te104  1  0.10302775  0.59114703  0.92680444  1
  Te  Te105  1  0.07429921  0.93354954  0.25800091  1
  Te  Te106  1  0.07823729  0.90221401  0.58989850  1
  Te  Te107  1  0.08097758  0.92319391  0.90890881  1
  Te  Te108  1  0.44055767  0.25033703  0.25475659  1
  Te  Te109  1  0.44206452  0.24372998  0.57642317  1
  Te  Te110  1  0.41513959  0.24499497  0.91227999  1
  Te  Te111  1  0.41053816  0.58756375  0.23851180  1
  Te  Te112  1  0.42369402  0.56891104  0.58763603  1
  Te  Te113  1  0.38899251  0.59510210  0.90545877  1
  Te  Te114  1  0.43362332  0.93041878  0.23922027  1
  Te  Te115  1  0.41416168  0.90764433  0.55801723  1
  Te  Te116  1  0.42216878  0.91528290  0.91952348  1
  Te  Te117  1  0.77426846  0.23059452  0.26782285  1
  Te  Te118  1  0.79263578  0.25866574  0.57401547  1
  Te  Te119  1  0.75513239  0.24168417  0.91544857  1
  Te  Te120  1  0.74159329  0.59205307  0.25866113  1
  Te  Te121  1  0.74260665  0.58598429  0.60430819  1
  Te  Te122  1  0.78746846  0.58346095  0.92798610  1
  Te  Te123  1  0.75588720  0.89731340  0.25712006  1
  Te  Te124  1  0.77302557  0.91388801  0.53723598  1
  Te  Te125  1  0.74471471  0.91565374  0.90344407  1
  Te  Te126  1  0.22598206  0.22819386  0.05787449  1
  Te  Te127  1  0.24142596  0.25723791  0.41520999  1
  Te  Te128  1  0.23579562  0.26324146  0.73399959  1
  Te  Te129  1  0.22603946  0.55142005  0.04862903  1
  Te  Te130  1  0.21941337  0.60257562  0.43630713  1
  Te  Te131  1  0.23634230  0.57857244  0.75827915  1
  Te  Te132  1  0.26423089  0.90615498  0.08339404  1
  Te  Te133  1  0.23133783  0.91679493  0.42914876  1
  Te  Te134  1  0.24969809  0.93406206  0.74998622  1
  Te  Te135  1  0.57975639  0.27066177  0.08048669  1
  Te  Te136  1  0.60386981  0.22530517  0.42155743  1
  Te  Te137  1  0.59223519  0.24758278  0.72807043  1
  Te  Te138  1  0.57055701  0.58571617  0.08467588  1
  Te  Te139  1  0.58263538  0.57960749  0.42030435  1
  Te  Te140  1  0.58674100  0.59047948  0.75906528  1
  Te  Te141  1  0.57552793  0.92102407  0.07203316  1
  Te  Te142  1  0.58111838  0.91384670  0.42184995  1
  Te  Te143  1  0.59975924  0.94284868  0.72924510  1
  Te  Te144  1  0.93508793  0.25140104  0.06336191  1
  Te  Te145  1  0.90535742  0.22915081  0.46955226  1
  Te  Te146  1  0.89155931  0.23069676  0.72177773  1
  Te  Te147  1  0.93655215  0.55963477  0.12117945  1
  Te  Te148  1  0.92341603  0.58248170  0.40807168  1
  Te  Te149  1  0.93459194  0.57692553  0.74947177  1
  Te  Te150  1  0.91620345  0.91604800  0.09244521  1
  Te  Te151  1  0.92688415  0.95851314  0.40306163  1
  Te  Te152  1  0.92204495  0.90000722  0.75590783  1
  Te  Te153  1  0.24607284  0.09782985  0.26214513  1
  Te  Te154  1  0.23926312  0.06026485  0.56555738  1
  Te  Te155  1  0.22119891  0.08588337  0.90009954  1
  Te  Te156  1  0.22870237  0.42952593  0.25357044  1
  Te  Te157  1  0.27572005  0.42530590  0.57860782  1
  Te  Te158  1  0.25825846  0.42457361  0.96193790  1
  Te  Te159  1  0.24332517  0.73947581  0.24886012  1
  Te  Te160  1  0.26121813  0.74500394  0.56581250  1
  Te  Te161  1  0.23734393  0.76205946  0.92748930  1
  Te  Te162  1  0.59975882  0.07543584  0.21964903  1
  Te  Te163  1  0.59886670  0.06566098  0.60605528  1
  Te  Te164  1  0.58732977  0.08785905  0.91327952  1
  Te  Te165  1  0.60709505  0.39677302  0.26478574  1
  Te  Te166  1  0.59436746  0.40661734  0.57143486  1
  Te  Te167  1  0.57251798  0.43956195  0.92543947  1
  Te  Te168  1  0.58166833  0.73966678  0.25496485  1
  Te  Te169  1  0.60103167  0.75050520  0.57032898  1
  Te  Te170  1  0.60352463  0.76134450  0.90558336  1
  Te  Te171  1  0.91209456  0.08958589  0.27145260  1
  Te  Te172  1  0.91525710  0.09104853  0.54716419  1
  Te  Te173  1  0.92882227  0.11182960  0.90050480  1
  Te  Te174  1  0.94233492  0.39062729  0.25214880  1
  Te  Te175  1  0.89610149  0.42133232  0.56034457  1
  Te  Te176  1  0.90376178  0.43316782  0.91819991  1
  Te  Te177  1  0.90849086  0.75569683  0.28436828  1
  Te  Te178  1  0.92639841  0.74028544  0.59985252  1
  Te  Te179  1  0.93856627  0.75198699  0.91955508  1
