# generated using pymatgen
data_In2Te3
_symmetry_space_group_name_H-M   'P 1'
_cell_length_a   18.80068242
_cell_length_b   18.81442549
_cell_length_c   18.81470100
_cell_angle_alpha   90.03948471
_cell_angle_beta   89.94848331
_cell_angle_gamma   89.97778675
_symmetry_Int_Tables_number   1
_chemical_formula_structural   In2Te3
_chemical_formula_sum   'In72 Te108'
_cell_volume   6655.20724717
_cell_formula_units_Z   36
loop_
 _symmetry_equiv_pos_site_id
 _symmetry_equiv_pos_as_xyz
  1  'x, y, z'
loop_
 _atom_site_type_symbol
 _atom_site_label
 _atom_site_symmetry_multiplicity
 _atom_site_fract_x
 _atom_site_fract_y
 _atom_site_fract_z
 _atom_site_occupancy
  In  In0  1  0.53185757  -0.01984586  0.14086418  1
  In  In1  1  0.15400693  0.00796692  0.80285553  1
  In  In2  1  0.86341662  0.33548678  0.52898331  1
  In  In3  1  0.68510651  0.16097130  0.46033222  1
  In  In4  1  0.28866987  0.17047069  0.14200349  1
  In  In5  1  0.51854291  -0.01061706  0.51712708  1
  In  In6  1  0.67272898  0.81840571  0.50783389  1
  In  In7  1  0.67811856  0.83227771  0.82596986  1
  In  In8  1  0.13160837  0.17066357  -0.01485309  1
  In  In9  1  0.19617627  0.51410736  0.35652867  1
  In  In10  1  0.82230907  0.66114081  0.83763207  1
  In  In11  1  0.48085713  0.67641720  0.48663400  1
  In  In12  1  0.34112905  0.33309953  0.34501276  1
  In  In13  1  0.65673215  0.35394244  0.31744344  1
  In  In14  1  0.82999951  0.50684800  0.67037077  1
  In  In15  1  0.17677038  0.81989869  0.65104574  1
  In  In16  1  0.15659221  0.66192294  0.83421136  1
  In  In17  1  0.30676353  -0.00850463  0.65475315  1
  In  In18  1  0.85493019  0.36244906  0.14231593  1
  In  In19  1  -0.03859775  -0.05225520  0.35082923  1
  In  In20  1  -0.02766391  0.02829308  -0.02327710  1
  In  In21  1  -0.01752046  0.52541332  0.15299243  1
  In  In22  1  0.69870803  -0.03196666  0.35024061  1
  In  In23  1  0.33373606  0.16327490  0.82350208  1
  In  In24  1  0.14767457  0.83334285  0.36357058  1
  In  In25  1  0.15052684  0.85482889  -0.00551965  1
  In  In26  1  0.69589977  0.32830120  0.69128793  1
  In  In27  1  0.32101860  0.50789942  0.80941799  1
  In  In28  1  0.14745363  0.35459710  0.50240453  1
  In  In29  1  0.50312134  0.36273917  0.15789615  1
  In  In30  1  0.47251597  0.36085639  0.51616346  1
  In  In31  1  0.33206510  0.65694170  0.00798508  1
  In  In32  1  0.32756531  -0.03627207  0.34987733  1
  In  In33  1  0.13692929  0.15299702  0.35798546  1
  In  In34  1  0.50877040  0.19211686  0.68274540  1
  In  In35  1  0.32234113  0.32699296  0.66656043  1
  In  In36  1  0.51521081  0.51127241  0.67655718  1
  In  In37  1  0.33506377  0.83134651  0.17066365  1
  In  In38  1  0.29390603  0.12466620  0.51962025  1
  In  In39  1  0.49116725  0.15979923  0.32194436  1
  In  In40  1  0.49391487  -0.00195720  0.85921548  1
  In  In41  1  0.85750887  0.84076302  0.69052359  1
  In  In42  1  0.51265123  0.65710744  0.17579303  1
  In  In43  1  0.35778976  0.51683727  0.16325140  1
  In  In44  1  0.17747540  0.32397169  0.14232412  1
  In  In45  1  -0.01410334  0.16862844  0.15251050  1
  In  In46  1  0.48971544  0.81066079  0.67275183  1
  In  In47  1  0.03082052  0.35190680  0.36789827  1
  In  In48  1  -0.02337910  0.67598716  0.34468985  1
  In  In49  1  0.52577573  0.66910221  0.82553336  1
  In  In50  1  0.32184811  0.49460714  0.49719467  1
  In  In51  1  0.69307914  0.32983566  -0.02603355  1
  In  In52  1  0.84242627  -0.02304076  0.16367972  1
  In  In53  1  0.66152082  0.15941573  0.15533755  1
  In  In54  1  0.82542829  0.52120498  0.33136957  1
  In  In55  1  0.86928352  0.17340855  0.68792323  1
  In  In56  1  0.68546786  0.51212550  0.50433021  1
  In  In57  1  0.00919410  0.34092702  -0.04804444  1
  In  In58  1  0.01009208  0.66491567  0.64301253  1
  In  In59  1  0.68841916  -0.01876733  -0.01199654  1
  In  In60  1  0.15031006  0.68921886  0.18806822  1
  In  In61  1  -0.00837102  0.67488117  -0.03190339  1
  In  In62  1  0.47928461  0.16117112  -0.01273059  1
  In  In63  1  -0.00942771  0.15583567  0.52147759  1
  In  In64  1  0.80937111  0.15768087  0.33902262  1
  In  In65  1  0.18670750  0.48785856  -0.02080882  1
  In  In66  1  0.81830546  0.50312698  -0.00345224  1
  In  In67  1  0.52581762  0.49819932  0.00191124  1
  In  In68  1  0.15969037  -0.01027291  0.21657100  1
  In  In69  1  0.68654318  0.01683420  0.68572459  1
  In  In70  1  0.35496799  -0.01224179  -0.01682539  1
  In  In71  1  0.67617461  0.68153985  0.31940585  1
  Te  Te72  1  0.08940583  0.07047782  0.09621225  1
  Te  Te73  1  0.05169450  0.04873402  0.42873611  1
  Te  Te74  1  0.04936066  0.06457661  0.71384384  1
  Te  Te75  1  0.07030811  0.41564786  0.08151005  1
  Te  Te76  1  0.07101424  0.48242860  0.44982765  1
  Te  Te77  1  0.04147168  0.37548408  0.70641218  1
  Te  Te78  1  0.06969002  0.75380207  0.07690977  1
  Te  Te79  1  0.07327716  0.73313504  0.44165642  1
  Te  Te80  1  0.07396640  0.75766955  0.74942106  1
  Te  Te81  1  0.41839014  0.07959742  0.10217560  1
  Te  Te82  1  0.41899526  0.07214453  0.42624022  1
  Te  Te83  1  0.42130295  0.06916069  0.73389274  1
  Te  Te84  1  0.40005911  0.41778445  0.05943116  1
  Te  Te85  1  0.43140469  0.44362985  0.39571049  1
  Te  Te86  1  0.42566737  0.40884300  0.74427242  1
  Te  Te87  1  0.42536758  0.75088794  0.08045925  1
  Te  Te88  1  0.37972873  0.77445619  0.44487583  1
  Te  Te89  1  0.40642376  0.72323670  0.75666009  1
  Te  Te90  1  0.76534303  0.08005461  0.07875656  1
  Te  Te91  1  0.78896075  0.04703288  0.44410159  1
  Te  Te92  1  0.77120163  0.09857861  0.77693756  1
  Te  Te93  1  0.72745436  0.42251575  0.09260277  1
  Te  Te94  1  0.76132994  0.39969606  0.42097074  1
  Te  Te95  1  0.77089586  0.42226757  0.77963433  1
  Te  Te96  1  0.78238961  0.74940415  0.14227097  1
  Te  Te97  1  0.77161483  0.75024293  0.41609923  1
  Te  Te98  1  0.74938815  0.74068442  0.72787504  1
  Te  Te99  1  0.08514851  0.24713307  0.24266875  1
  Te  Te100  1  0.07112824  0.26067006  0.59387416  1
  Te  Te101  1  0.06356554  0.22953187  0.86810847  1
  Te  Te102  1  0.07830584  0.57618067  0.26292324  1
  Te  Te103  1  0.10290170  0.57282183  0.57504100  1
  Te  Te104  1  0.07059780  0.55853978  0.90765147  1
  Te  Te105  1  0.05511237  0.88525936  0.24793878  1
  Te  Te106  1  0.11095734  0.92033372  0.56440898  1
  Te  Te107  1  0.06042620  0.92466407  0.89417241  1
  Te  Te108  1  0.41037451  0.25694928  0.23152954  1
  Te  Te109  1  0.40619475  0.23220250  0.56876693  1
  Te  Te110  1  0.42326240  0.25797173  0.89281217  1
  Te  Te111  1  0.40204014  0.61004666  0.26540146  1
  Te  Te112  1  0.41559424  0.58016030  0.58846620  1
  Te  Te113  1  0.41658125  0.57491901  0.91187247  1
  Te  Te114  1  0.42981513  0.92414531  0.24676279  1
  Te  Te115  1  0.40934731  0.90266572  0.57837655  1
  Te  Te116  1  0.42969261  0.87948643  0.91841456  1
  Te  Te117  1  0.75280708  0.25608970  0.23411029  1
  Te  Te118  1  0.76170255  0.23222902  0.57964334  1
  Te  Te119  1  0.79300563  0.23490369  0.92198996  1
  Te  Te120  1  0.75213980  0.59233308  0.22386631  1
  Te  Te121  1  0.78426798  0.60583344  0.56601175  1
  Te  Te122  1  0.72428105  0.60216107  0.93487695  1
  Te  Te123  1  0.76594059  0.87633250  0.24869132  1
  Te  Te124  1  0.75295089  0.91306893  0.59779630  1
  Te  Te125  1  0.78837537  0.91407745  0.89317118  1
  Te  Te126  1  0.25104118  0.26114420  0.02497336  1
  Te  Te127  1  0.24364186  0.25066360  0.42882589  1
  Te  Te128  1  0.23371663  0.23787288  0.74413184  1
  Te  Te129  1  0.22362856  0.58423611  0.09491469  1
  Te  Te130  1  0.25057635  0.61996473  0.44987174  1
  Te  Te131  1  0.23701274  0.59850765  0.72775123  1
  Te  Te132  1  0.24480195  0.92859380  0.09451160  1
  Te  Te133  1  0.21710661  0.93792606  0.45136134  1
  Te  Te134  1  0.25553040  0.90010699  0.76465125  1
  Te  Te135  1  0.57596341  0.25486842  0.07331307  1
  Te  Te136  1  0.57179665  0.25908664  0.40867227  1
  Te  Te137  1  0.60585619  0.24717994  0.77746992  1
  Te  Te138  1  0.60166046  0.60945422  0.06451385  1
  Te  Te139  1  0.59332411  0.59115082  0.41604304  1
  Te  Te140  1  0.61888272  0.57665488  0.75606145  1
  Te  Te141  1  0.61905835  0.88287439  0.07494089  1
  Te  Te142  1  0.57871668  0.89535981  0.41323478  1
  Te  Te143  1  0.57746018  0.92281897  0.74212826  1
  Te  Te144  1  0.91373959  0.25593123  0.05193579  1
  Te  Te145  1  0.92275976  0.24377628  0.40931184  1
  Te  Te146  1  0.92503724  0.29536435  0.75466232  1
  Te  Te147  1  0.89395792  0.61540553  0.07218463  1
  Te  Te148  1  0.89485926  0.59372187  0.44198746  1
  Te  Te149  1  0.92930290  0.59261434  0.75110086  1
  Te  Te150  1  0.93223560  0.91639082  0.06382793  1
  Te  Te151  1  0.89701797  0.84594956  0.43655254  1
  Te  Te152  1  0.91356936  0.92472479  0.79896171  1
  Te  Te153  1  0.26044225  0.09250155  0.27473765  1
  Te  Te154  1  0.19334017  0.08871200  0.62495576  1
  Te  Te155  1  0.24385030  0.07036044  0.91919484  1
  Te  Te156  1  0.24596874  0.41345817  0.24845767  1
  Te  Te157  1  0.23220819  0.43293144  0.60513972  1
  Te  Te158  1  0.22934716  0.40485174  0.86675468  1
  Te  Te159  1  0.25322211  0.75624109  0.27496420  1
  Te  Te160  1  0.27156961  0.74982668  0.55464438  1
  Te  Te161  1  0.24045876  0.74982998  0.92826854  1
  Te  Te162  1  0.60510060  0.06842115  0.26576087  1
  Te  Te163  1  0.59712174  0.10285733  0.58278931  1
  Te  Te164  1  0.59762319  0.08841669  0.92228973  1
  Te  Te165  1  0.57724898  0.45452883  0.24563114  1
  Te  Te166  1  0.60217930  0.40447507  0.58457985  1
  Te  Te167  1  0.59473094  0.41327367  0.90247641  1
  Te  Te168  1  0.57062019  0.76514434  0.25891689  1
  Te  Te169  1  0.58545374  0.72479849  0.58987303  1
  Te  Te170  1  0.60016224  0.75326452  0.92436006  1
  Te  Te171  1  0.92237867  0.07831626  0.25848347  1
  Te  Te172  1  0.92721530  0.05333166  0.61355772  1
  Te  Te173  1  0.89698274  0.12099586  0.88873184  1
  Te  Te174  1  0.92698070  0.41503254  0.26472039  1
  Te  Te175  1  0.94721206  0.43907547  0.59854874  1
  Te  Te176  1  0.90002574  0.42757912  0.89557871  1
  Te  Te177  1  0.88878719  0.75229567  0.24168553  1
  Te  Te178  1  0.94312126  0.78533364  0.57912202  1
  Te  Te179  1  0.89459363  0.77182862  0.90946788  1
