# generated using pymatgen
data_In2Te3
_symmetry_space_group_name_H-M   'P 1'
_cell_length_a   18.77539170
_cell_length_b   18.78687166
_cell_length_c   18.78108474
_cell_angle_alpha   90.06263570
_cell_angle_beta   89.93305375
_cell_angle_gamma   89.98466451
_symmetry_Int_Tables_number   1
_chemical_formula_structural   In2Te3
_chemical_formula_sum   'In72 Te108'
_cell_volume   6624.65971827
_cell_formula_units_Z   36
loop_
 _symmetry_equiv_pos_site_id
 _symmetry_equiv_pos_as_xyz
  1  'x, y, z'
loop_
 _atom_site_type_symbol
 _atom_site_label
 _atom_site_symmetry_multiplicity
 _atom_site_fract_x
 _atom_site_fract_y
 _atom_site_fract_z
 _atom_site_occupancy
  In  In0  1  0.02249553  0.13855454  0.82928759  1
  In  In1  1  0.48727093  0.34738702  0.83805633  1
  In  In2  1  0.35019704  -0.01097694  -0.00029307  1
  In  In3  1  0.65187800  0.17307814  0.16493584  1
  In  In4  1  0.81808022  -0.01911706  0.16018600  1
  In  In5  1  0.84350738  -0.00347033  0.49670682  1
  In  In6  1  0.00902601  0.15099222  0.49710129  1
  In  In7  1  0.17355662  0.16008991  0.34014531  1
  In  In8  1  0.48604518  0.00533102  0.17276550  1
  In  In9  1  0.84293916  0.17414874  0.35837395  1
  In  In10  1  0.31047649  0.82007193  0.16869838  1
  In  In11  1  0.01598103  0.18335416  0.17392437  1
  In  In12  1  0.66151149  0.83299620  0.80437679  1
  In  In13  1  0.01401287  0.34717454  0.68247929  1
  In  In14  1  0.34224690  0.36262712  0.04342253  1
  In  In15  1  0.32624487  0.35158829  0.30702091  1
  In  In16  1  0.18312673  0.33779618  0.84124996  1
  In  In17  1  0.01028652  0.00151084  0.32852475  1
  In  In18  1  0.81437158  0.50189246  0.65787693  1
  In  In19  1  0.65740527  0.16462924  0.52627451  1
  In  In20  1  0.64792713  0.01405565  0.00314176  1
  In  In21  1  0.85820286  0.80852195  0.30693779  1
  In  In22  1  0.47344764  0.52854978  0.68665514  1
  In  In23  1  0.69564415  0.83787186  0.16752217  1
  In  In24  1  0.83254807  0.32775024  0.47096661  1
  In  In25  1  0.65609409  0.68572459  -0.00019216  1
  In  In26  1  0.34303630  -0.01409760  0.64701688  1
  In  In27  1  0.33602298  0.18673814  0.82637179  1
  In  In28  1  0.01847580  0.51488450  0.17679619  1
  In  In29  1  0.18361435  0.19649029  0.00462902  1
  In  In30  1  0.19349877  0.84112417  0.37097152  1
  In  In31  1  0.49529596  0.82878437  0.33247315  1
  In  In32  1  0.33853823  0.65309698  0.33946412  1
  In  In33  1  0.50860866  0.81752642  -0.03343100  1
  In  In34  1  0.01223085  0.50601661  0.48664396  1
  In  In35  1  0.00059940  0.36718240  0.02362728  1
  In  In36  1  0.51156638  0.15052755  0.67168279  1
  In  In37  1  0.66896894  0.64638743  0.35008282  1
  In  In38  1  0.15940815  0.52735856  0.01892008  1
  In  In39  1  0.63497363  0.33460884  -0.01121755  1
  In  In40  1  0.32976318  0.14923999  0.51199967  1
  In  In41  1  0.83614139  0.82907578  0.68043916  1
  In  In42  1  0.48924087  0.65491077  0.17200714  1
  In  In43  1  0.17421020  -0.01255115  0.81230072  1
  In  In44  1  0.31028019  0.33280632  0.64530157  1
  In  In45  1  0.48420160  0.16689246  0.35089420  1
  In  In46  1  0.64437227  -0.01362608  0.67882872  1
  In  In47  1  -0.00919060  -0.00015726  -0.00532868  1
  In  In48  1  0.84103146  0.65177419  0.51176505  1
  In  In49  1  0.02356727  0.50652932  0.84189743  1
  In  In50  1  0.84855561  0.83855360  0.00733650  1
  In  In51  1  0.66541732  0.34336415  0.64270287  1
  In  In52  1  0.01116137  0.82083531  0.81421573  1
  In  In53  1  0.17870996  0.00723956  0.18960714  1
  In  In54  1  0.15868188  0.77241632  0.01710728  1
  In  In55  1  0.65957758  0.37139799  0.31935091  1
  In  In56  1  0.83866450  0.50393568  0.34264233  1
  In  In57  1  0.83474756  -0.01886520  0.81359047  1
  In  In58  1  0.66379977  0.15234902  0.84898170  1
  In  In59  1  0.84842118  0.33686874  0.16350025  1
  In  In60  1  0.16643148  0.36102762  0.49677364  1
  In  In61  1  0.16809426  0.83406666  0.63001926  1
  In  In62  1  0.18019800  0.67101467  0.49095133  1
  In  In63  1  0.48476217  0.35158831  0.47712010  1
  In  In64  1  0.81764142  0.32275605  0.81006841  1
  In  In65  1  0.49781429  0.65256718  0.51290727  1
  In  In66  1  0.00447427  0.67039198  0.66851851  1
  In  In67  1  0.81794053  0.68942999  0.83771478  1
  In  In68  1  0.63291056  0.81422023  0.50519698  1
  In  In69  1  0.83115159  0.49827007  0.01183602  1
  In  In70  1  0.63906268  0.51330603  0.17975342  1
  In  In71  1  0.32932426  0.65108257  -0.01678321  1
  Te  Te72  1  0.08926585  0.08579027  0.07840235  1
  Te  Te73  1  0.10893295  0.05543974  0.43161137  1
  Te  Te74  1  0.09471520  0.07204914  0.71514253  1
  Te  Te75  1  0.11792394  0.40243593  0.11471481  1
  Te  Te76  1  0.10694715  0.44517919  0.38880119  1
  Te  Te77  1  0.11972307  0.43952837  0.74354660  1
  Te  Te78  1  0.06574661  0.71353856  0.11718675  1
  Te  Te79  1  0.08252240  0.76895564  0.43689811  1
  Te  Te80  1  0.11595827  0.73497375  0.74809478  1
  Te  Te81  1  0.41001953  0.09364194  0.08335933  1
  Te  Te82  1  0.40124720  0.05931354  0.41575579  1
  Te  Te83  1  0.41244230  0.07517810  0.75658339  1
  Te  Te84  1  0.45451242  0.43860948  0.10432623  1
  Te  Te85  1  0.39501861  0.44336060  0.40542554  1
  Te  Te86  1  0.37971202  0.41631124  0.75500297  1
  Te  Te87  1  0.41999930  0.75794553  0.08021414  1
  Te  Te88  1  0.40554383  0.75544631  0.43004621  1
  Te  Te89  1  0.38392812  0.69226950  0.79739867  1
  Te  Te90  1  0.75373470  0.09261956  0.07880224  1
  Te  Te91  1  0.73953358  0.08407765  0.42284894  1
  Te  Te92  1  0.74620424  0.08370968  0.73991355  1
  Te  Te93  1  0.73379863  0.41341518  0.09628326  1
  Te  Te94  1  0.73368405  0.43925410  0.43397659  1
  Te  Te95  1  0.72292215  0.42965611  0.75668354  1
  Te  Te96  1  0.77229994  0.73279868  0.08799793  1
  Te  Te97  1  0.75627165  0.75086378  0.41987376  1
  Te  Te98  1  0.73110393  0.72567189  0.71762355  1
  Te  Te99  1  0.09748365  0.26278868  0.26521743  1
  Te  Te100  1  0.08508066  0.26074959  0.57827266  1
  Te  Te101  1  0.07092607  0.26329129  0.91639503  1
  Te  Te102  1  0.09222036  0.62346198  0.24760720  1
  Te  Te103  1  0.09605850  0.57829299  0.59016072  1
  Te  Te104  1  0.10160055  0.61134796  0.91084130  1
  Te  Te105  1  0.09792715  0.89959370  0.25696456  1
  Te  Te106  1  0.06178818  0.93385025  0.60978987  1
  Te  Te107  1  0.08627955  0.90994362  0.91715910  1
  Te  Te108  1  0.42728607  0.25668502  0.24866141  1
  Te  Te109  1  0.43191845  0.25000734  0.58781078  1
  Te  Te110  1  0.40682175  0.26255112  0.93539842  1
  Te  Te111  1  0.39219158  0.55936164  0.23252171  1
  Te  Te112  1  0.38048287  0.59211297  0.58699848  1
  Te  Te113  1  0.41639585  0.57299129  0.88939429  1
  Te  Te114  1  0.39389803  0.91414274  0.25527081  1
  Te  Te115  1  0.39412240  0.90041198  0.53501914  1
  Te  Te116  1  0.41664007  0.90823050  0.89554488  1
  Te  Te117  1  0.75444265  0.25747104  0.25763741  1
  Te  Te118  1  0.77221379  0.24864345  0.58754781  1
  Te  Te119  1  0.74981635  0.25148906  0.92695482  1
  Te  Te120  1  0.76079206  0.58706409  0.24146927  1
  Te  Te121  1  0.72509719  0.58332221  0.57255751  1
  Te  Te122  1  0.74479204  0.58403386  0.91993153  1
  Te  Te123  1  0.75029267  0.92130865  0.28159110  1
  Te  Te124  1  0.74499255  0.91018185  0.58494629  1
  Te  Te125  1  0.74109982  0.90879347  0.91981780  1
  Te  Te126  1  0.26315174  0.25583813  0.11309572  1
  Te  Te127  1  0.26465645  0.25866189  0.42639773  1
  Te  Te128  1  0.22749107  0.23808949  0.73371879  1
  Te  Te129  1  0.27289148  0.57910595  0.10277216  1
  Te  Te130  1  0.24113132  0.56064146  0.40877915  1
  Te  Te131  1  0.30246188  0.57315420  0.77586995  1
  Te  Te132  1  0.23323319  0.91174614  0.07392809  1
  Te  Te133  1  0.27498969  0.93801678  0.45248909  1
  Te  Te134  1  0.26684188  0.89193939  0.74091942  1
  Te  Te135  1  0.55801767  0.24877688  0.08128200  1
  Te  Te136  1  0.59958428  0.26015156  0.41928334  1
  Te  Te137  1  0.58943987  0.25522999  0.75298877  1
  Te  Te138  1  0.56339206  0.57792234  0.06052221  1
  Te  Te139  1  0.55278816  0.57190833  0.40020807  1
  Te  Te140  1  0.57647896  0.59936745  0.76317285  1
  Te  Te141  1  0.58164638  0.90450922  0.08765128  1
  Te  Te142  1  0.58587516  0.91622672  0.41017128  1
  Te  Te143  1  0.54352353  0.89218274  0.73570706  1
  Te  Te144  1  0.92078927  0.24243364  0.06918498  1
  Te  Te145  1  0.95517473  0.26523518  0.40592796  1
  Te  Te146  1  0.93009855  0.23897971  0.75030324  1
  Te  Te147  1  0.93941269  0.58173348  0.06842261  1
  Te  Te148  1  0.93573659  0.60666172  0.40085632  1
  Te  Te149  1  0.90953901  0.58387394  0.75416632  1
  Te  Te150  1  0.94173291  0.90781644  0.10673106  1
  Te  Te151  1  0.92741495  0.90271266  0.40991265  1
  Te  Te152  1  0.95124071  0.93098956  0.72174559  1
  Te  Te153  1  0.27589727  0.09525365  0.25377644  1
  Te  Te154  1  0.23479713  0.07928369  0.60153246  1
  Te  Te155  1  0.24312032  0.08927428  0.91237204  1
  Te  Te156  1  0.24360291  0.42635078  0.20715552  1
  Te  Te157  1  0.26594113  0.44969692  0.56598590  1
  Te  Te158  1  0.25085041  0.43054603  0.93840674  1
  Te  Te159  1  0.23166203  0.73101825  0.26183444  1
  Te  Te160  1  0.27288397  0.73359688  0.59143833  1
  Te  Te161  1  0.26476143  0.76751912  0.91345542  1
  Te  Te162  1  0.58476292  0.07840309  0.26318811  1
  Te  Te163  1  0.56092320  0.05263382  0.56608920  1
  Te  Te164  1  0.55295545  0.07865213  0.91184429  1
  Te  Te165  1  0.54234291  0.40660571  0.23124602  1
  Te  Te166  1  0.55446124  0.42961709  0.58886254  1
  Te  Te167  1  0.57583808  0.44310656  0.90773996  1
  Te  Te168  1  0.59544799  0.74134784  0.24251970  1
  Te  Te169  1  0.54698927  0.75591165  0.61014536  1
  Te  Te170  1  0.57373945  0.71514153  0.86968080  1
  Te  Te171  1  0.91005741  0.08628095  0.24684011  1
  Te  Te172  1  0.90314340  0.09808899  0.58524730  1
  Te  Te173  1  0.90028394  0.08473442  0.90751987  1
  Te  Te174  1  0.93328133  0.41626672  0.25993679  1
  Te  Te175  1  0.91842379  0.41887035  0.58055871  1
  Te  Te176  1  0.91047932  0.41727570  0.89911732  1
  Te  Te177  1  0.94897611  0.72678164  0.22422662  1
  Te  Te178  1  0.92608477  0.76160377  0.57623003  1
  Te  Te179  1  0.93266384  0.74327242  0.92212062  1
