# generated using pymatgen
data_In2Te3
_symmetry_space_group_name_H-M   'P 1'
_cell_length_a   18.99800954
_cell_length_b   19.06318606
_cell_length_c   19.03574648
_cell_angle_alpha   89.77783373
_cell_angle_beta   89.97992086
_cell_angle_gamma   90.11847816
_symmetry_Int_Tables_number   1
_chemical_formula_structural   In2Te3
_chemical_formula_sum   'In72 Te108'
_cell_volume   6893.96825031
_cell_formula_units_Z   36
loop_
 _symmetry_equiv_pos_site_id
 _symmetry_equiv_pos_as_xyz
  1  'x, y, z'
loop_
 _atom_site_type_symbol
 _atom_site_label
 _atom_site_symmetry_multiplicity
 _atom_site_fract_x
 _atom_site_fract_y
 _atom_site_fract_z
 _atom_site_occupancy
  In  In0  1  0.85593304  0.85416505  0.67912495  1
  In  In1  1  0.30964200  0.63983105  -0.02685170  1
  In  In2  1  0.35279031  0.20623190  0.14863421  1
  In  In3  1  0.32412717  0.67951412  0.64967797  1
  In  In4  1  0.15724554  0.49307920  0.64728072  1
  In  In5  1  0.67126284  0.69462400  0.33647023  1
  In  In6  1  0.14729242  0.01110952  0.17509442  1
  In  In7  1  -0.01309271  0.67324536  0.36551996  1
  In  In8  1  0.00385040  0.48544477  0.16232734  1
  In  In9  1  0.51089311  0.66614480  0.18277534  1
  In  In10  1  0.48663361  0.66298003  0.83093705  1
  In  In11  1  -0.00943470  0.16236517  0.13636911  1
  In  In12  1  0.50860100  0.83702601  0.67052204  1
  In  In13  1  0.50463975  0.67515796  0.48786786  1
  In  In14  1  0.67865941  0.84523749  0.83723877  1
  In  In15  1  0.67422817  0.16603407  0.83030827  1
  In  In16  1  0.13226509  0.17536929  0.66767313  1
  In  In17  1  0.17765308  0.65485168  0.16229403  1
  In  In18  1  0.33834193  -0.02645865  0.65519430  1
  In  In19  1  0.66742615  0.02626461  0.64682262  1
  In  In20  1  0.71800708  0.01680744  0.36397885  1
  In  In21  1  0.16738675  0.82280249  0.66036998  1
  In  In22  1  0.33444033  0.50142612  0.52355219  1
  In  In23  1  0.54982816  0.49200568  0.67947656  1
  In  In24  1  0.14934430  0.14367834  0.34036576  1
  In  In25  1  0.13341652  0.29987593  0.83948243  1
  In  In26  1  0.84666096  0.15452809  -0.02599589  1
  In  In27  1  0.66065736  0.68991359  0.00812405  1
  In  In28  1  -0.03203320  0.01006388  0.34005642  1
  In  In29  1  0.16731547  -0.01590454  0.49274323  1
  In  In30  1  0.01912626  0.82276894  0.83126197  1
  In  In31  1  0.17159192  0.49869133  0.33216401  1
  In  In32  1  -0.02095447  0.32614588  0.67857573  1
  In  In33  1  0.49039055  0.30973232  0.46995997  1
  In  In34  1  -0.04557838  0.32664587  0.32561258  1
  In  In35  1  0.81382201  0.01065393  0.15533766  1
  In  In36  1  0.84940741  0.15733327  0.66071844  1
  In  In37  1  0.33934400  0.34601642  -0.01199719  1
  In  In38  1  0.67826313  0.49098764  0.15133857  1
  In  In39  1  0.32413207  0.00359890  0.01265996  1
  In  In40  1  0.34773459  0.66116566  0.34143157  1
  In  In41  1  0.51161305  0.33274153  0.82514146  1
  In  In42  1  0.84752842  0.83321914  0.01097877  1
  In  In43  1  0.00915667  0.54636699  0.84490338  1
  In  In44  1  0.48186702  0.85419471  0.02937915  1
  In  In45  1  0.35493009  0.82122501  0.18569267  1
  In  In46  1  0.51267516  0.31312273  0.14661524  1
  In  In47  1  0.31830813  0.16676113  0.49816647  1
  In  In48  1  0.14359520  0.32680906  0.14841478  1
  In  In49  1  0.84964632  0.69018742  0.83285334  1
  In  In50  1  0.82633226  0.33163198  0.50754534  1
  In  In51  1  0.31368894  0.83861065  0.87370025  1
  In  In52  1  0.32853288  0.14265153  0.79848345  1
  In  In53  1  0.17293563  0.81122440  0.00809531  1
  In  In54  1  0.51156262  0.51533736  0.30816794  1
  In  In55  1  0.51961567  0.13817022  0.35598259  1
  In  In56  1  0.13996858  0.02064538  0.83190494  1
  In  In57  1  0.34016566  0.02765624  0.33399890  1
  In  In58  1  0.69833966  0.30248889  0.32619923  1
  In  In59  1  0.85548683  0.49280936  0.33110554  1
  In  In60  1  0.53695644  0.01568980  0.17054684  1
  In  In61  1  0.84780985  0.67494580  0.16990968  1
  In  In62  1  -0.01488834  0.85250129  0.18305677  1
  In  In63  1  0.32738146  0.48655802  0.81698541  1
  In  In64  1  0.67958899  0.34551298  0.69115322  1
  In  In65  1  0.84047563  0.48474409  -0.00320685  1
  In  In66  1  -0.00025495  0.49904414  0.49859141  1
  In  In67  1  0.00228716  0.84486208  0.50976527  1
  In  In68  1  0.52512017  0.18460134  -0.01795540  1
  In  In69  1  0.66889030  0.48975361  0.86439702  1
  In  In70  1  0.32506542  0.33384129  0.33683125  1
  In  In71  1  0.64559057  0.83536508  0.50903827  1
  Te  Te72  1  0.09329055  0.08691393  0.06421247  1
  Te  Te73  1  0.06065517  0.08033068  0.44134246  1
  Te  Te74  1  0.03938915  0.09090436  0.74861971  1
  Te  Te75  1  0.07219462  0.41424439  0.05383323  1
  Te  Te76  1  0.06575980  0.41168723  0.39596237  1
  Te  Te77  1  0.07891205  0.41435613  0.75180028  1
  Te  Te78  1  0.07630837  0.75308871  0.10826742  1
  Te  Te79  1  0.08698551  0.75707176  0.42822359  1
  Te  Te80  1  0.06114552  0.73626694  0.71819230  1
  Te  Te81  1  0.42629499  0.09115594  0.08384589  1
  Te  Te82  1  0.42485860  0.06710103  0.45481054  1
  Te  Te83  1  0.42518088  0.07275957  0.71656009  1
  Te  Te84  1  0.41975616  0.41017341  0.09221594  1
  Te  Te85  1  0.41221178  0.44037283  0.40042958  1
  Te  Te86  1  0.42635404  0.41371164  0.73138444  1
  Te  Te87  1  0.39095895  0.73738057  0.06383901  1
  Te  Te88  1  0.44153811  0.76265318  0.38914160  1
  Te  Te89  1  0.39617467  0.76333227  0.76319932  1
  Te  Te90  1  0.74276355  0.10741965  0.06931145  1
  Te  Te91  1  0.79297475  0.11630141  0.44660260  1
  Te  Te92  1  0.76463242  0.07153547  0.75344770  1
  Te  Te93  1  0.73665164  0.39777144  0.05629341  1
  Te  Te94  1  0.74899260  0.41814902  0.40918884  1
  Te  Te95  1  0.76769670  0.41902180  0.78375289  1
  Te  Te96  1  0.74702228  0.76746717  0.10432676  1
  Te  Te97  1  0.74822368  0.75417901  0.44336132  1
  Te  Te98  1  0.75079638  0.75755494  0.74026126  1
  Te  Te99  1  0.06893331  0.24371209  0.25326219  1
  Te  Te100  1  0.04974695  0.25087898  0.57490807  1
  Te  Te101  1  0.04865758  0.22145099  0.93334766  1
  Te  Te102  1  0.06585220  0.58465954  0.26038915  1
  Te  Te103  1  0.08799088  0.59282760  0.56557502  1
  Te  Te104  1  0.11580598  0.60411190  0.92665376  1
  Te  Te105  1  0.07947275  0.92509160  0.27632680  1
  Te  Te106  1  0.08014139  0.93342838  0.60700623  1
  Te  Te107  1  0.09433869  0.91342368  0.93263864  1
  Te  Te108  1  0.42976450  0.23969947  0.27655226  1
  Te  Te109  1  0.40662311  0.25364887  0.57434803  1
  Te  Te110  1  0.40532726  0.24050179  0.90027203  1
  Te  Te111  1  0.39824838  0.57633203  0.22658028  1
  Te  Te112  1  0.43421705  0.58945280  0.59878820  1
  Te  Te113  1  0.42148641  0.55488330  0.91401695  1
  Te  Te114  1  0.42815773  0.93895845  0.24721611  1
  Te  Te115  1  0.41036830  0.87916332  0.56972397  1
  Te  Te116  1  0.41943142  0.93670105  0.91567961  1
  Te  Te117  1  0.81295707  0.25590586  0.24983161  1
  Te  Te118  1  0.74144599  0.24490431  0.59767426  1
  Te  Te119  1  0.77681120  0.25738110  0.88757355  1
  Te  Te120  1  0.75421709  0.58125984  0.24736549  1
  Te  Te121  1  0.68893178  0.48089748  0.62009945  1
  Te  Te122  1  0.76014429  0.60584306  0.93367215  1
  Te  Te123  1  0.76989509  0.92364840  0.26433073  1
  Te  Te124  1  0.75081208  0.91548401  0.58654034  1
  Te  Te125  1  0.77895745  0.92143632  0.91390952  1
  Te  Te126  1  0.24105097  0.25104404  0.05970636  1
  Te  Te127  1  0.22472345  0.25220718  0.41569687  1
  Te  Te128  1  0.23994388  0.25107805  0.74167118  1
  Te  Te129  1  0.22031380  0.55936026  0.05946097  1
  Te  Te130  1  0.24922134  0.58540405  0.42820441  1
  Te  Te131  1  0.24522668  0.58250285  0.73463953  1
  Te  Te132  1  0.24994808  0.90852765  0.10580405  1
  Te  Te133  1  0.25821605  0.92455529  0.39589523  1
  Te  Te134  1  0.23912921  0.91799094  0.76751449  1
  Te  Te135  1  0.61510640  0.22333152  0.09320505  1
  Te  Te136  1  0.61277963  0.23084590  0.43089444  1
  Te  Te137  1  0.57944278  0.23647724  0.73395904  1
  Te  Te138  1  0.58022969  0.58243718  0.07888913  1
  Te  Te139  1  0.59734061  0.58387366  0.41119601  1
  Te  Te140  1  0.60761374  0.59678818  0.77520209  1
  Te  Te141  1  0.60028298  0.91784949  0.08372701  1
  Te  Te142  1  0.59578911  0.94717745  0.42274580  1
  Te  Te143  1  0.59293153  0.93241133  0.74795030  1
  Te  Te144  1  0.93122090  0.25978367  0.04213250  1
  Te  Te145  1  0.90785060  0.23314636  0.43128822  1
  Te  Te146  1  0.89123628  0.25023251  0.77122481  1
  Te  Te147  1  0.92473119  0.58561056  0.07960658  1
  Te  Te148  1  0.88605613  0.58999901  0.44120698  1
  Te  Te149  1  0.90550974  0.58524656  0.74958196  1
  Te  Te150  1  0.92741435  0.94365580  0.07916362  1
  Te  Te151  1  0.89839874  0.92685858  0.44067821  1
  Te  Te152  1  0.91196596  0.91929268  0.79907184  1
  Te  Te153  1  0.25743934  0.11055945  0.23364821  1
  Te  Te154  1  0.23562561  0.08003462  0.59481560  1
  Te  Te155  1  0.24622167  0.09023076  0.91504696  1
  Te  Te156  1  0.24303390  0.40859736  0.23447995  1
  Te  Te157  1  0.24088234  0.40101518  0.57028802  1
  Te  Te158  1  0.23175098  0.40474548  0.89955441  1
  Te  Te159  1  0.24703324  0.74547393  0.26040721  1
  Te  Te160  1  0.26020190  0.77251125  0.55743305  1
  Te  Te161  1  0.21149163  0.72087202  0.88521712  1
  Te  Te162  1  0.62708840  0.09415570  0.26214265  1
  Te  Te163  1  0.57685740  0.05142421  0.53400677  1
  Te  Te164  1  0.58735672  0.07726372  0.90922757  1
  Te  Te165  1  0.59326611  0.39983817  0.25287313  1
  Te  Te166  1  0.56381435  0.41221391  0.54809816  1
  Te  Te167  1  0.58578183  0.39155691  0.93571141  1
  Te  Te168  1  0.57803939  0.77204508  0.25355017  1
  Te  Te169  1  0.58741649  0.72852176  0.60299106  1
  Te  Te170  1  0.56422373  0.76453669  0.91695528  1
  Te  Te171  1  0.90026878  0.10662124  0.24487399  1
  Te  Te172  1  0.87045728  0.05081845  0.55600611  1
  Te  Te173  1  0.96161908  0.10079869  0.89473357  1
  Te  Te174  1  0.88546468  0.40191859  0.21049357  1
  Te  Te175  1  0.90477724  0.42759301  0.59304124  1
  Te  Te176  1  0.95157591  0.43096130  0.91731152  1
  Te  Te177  1  0.90370136  0.76505503  0.27647580  1
  Te  Te178  1  0.93660848  0.75312604  0.60774691  1
  Te  Te179  1  0.94330422  0.74347154  0.93823961  1
