# generated using pymatgen
data_In2Te3
_symmetry_space_group_name_H-M   'P 1'
_cell_length_a   18.76300915
_cell_length_b   18.76688509
_cell_length_c   18.76949853
_cell_angle_alpha   90.01294953
_cell_angle_beta   89.95513557
_cell_angle_gamma   89.99114047
_symmetry_Int_Tables_number   1
_chemical_formula_structural   In2Te3
_chemical_formula_sum   'In72 Te108'
_cell_volume   6609.17429900
_cell_formula_units_Z   36
loop_
 _symmetry_equiv_pos_site_id
 _symmetry_equiv_pos_as_xyz
  1  'x, y, z'
loop_
 _atom_site_type_symbol
 _atom_site_label
 _atom_site_symmetry_multiplicity
 _atom_site_fract_x
 _atom_site_fract_y
 _atom_site_fract_z
 _atom_site_occupancy
  In  In0  1  0.67085085  0.17393867  0.18098728  1
  In  In1  1  0.31358768  0.03763815  0.66082297  1
  In  In2  1  0.70324887  0.18845512  0.85849069  1
  In  In3  1  0.67778151  0.32052687  0.68356907  1
  In  In4  1  0.33408271  0.67604983  -0.00795074  1
  In  In5  1  0.35154482  0.82987946  0.84116362  1
  In  In6  1  0.13974291  0.49806580  0.64392389  1
  In  In7  1  -0.00753368  0.82233942  0.49301499  1
  In  In8  1  0.50783558  -0.03933129  0.82654547  1
  In  In9  1  0.53182912  0.84687800  0.66014726  1
  In  In10  1  0.16072228  0.83973194  0.00178863  1
  In  In11  1  0.50014238  0.16768264  -0.00079837  1
  In  In12  1  0.31526542  0.83301798  0.15755380  1
  In  In13  1  0.54808459  0.66849747  0.84904712  1
  In  In14  1  0.67352592  0.83063216  0.51541715  1
  In  In15  1  -0.01828478  0.34319777  0.00779701  1
  In  In16  1  -0.02794897  0.00102959  0.65956161  1
  In  In17  1  -0.02623207  0.35547246  0.32305553  1
  In  In18  1  0.52167545  0.50968841  0.68573640  1
  In  In19  1  0.00333797  0.50164886  0.82449863  1
  In  In20  1  0.32438225  0.18415850  0.16526270  1
  In  In21  1  -0.03693605  0.64590854  -0.00722338  1
  In  In22  1  -0.00921645  -0.00231862  0.00057936  1
  In  In23  1  0.83160755  0.00172537  0.83129847  1
  In  In24  1  0.84572877  0.47464417  0.64812553  1
  In  In25  1  0.33599920  0.49169371  0.18532517  1
  In  In26  1  0.52934879  0.64383713  0.14850670  1
  In  In27  1  0.54802717  0.48417505  -0.01130389  1
  In  In28  1  -0.02352130  0.16780653  0.81624285  1
  In  In29  1  0.82641156  0.65570082  0.14036741  1
  In  In30  1  0.67485973  -0.00867066  -0.00424830  1
  In  In31  1  0.13200972  0.16060010  0.34939258  1
  In  In32  1  0.51580812  0.34051916  0.16489054  1
  In  In33  1  0.14766569  0.49424241  0.00748013  1
  In  In34  1  0.33111272  0.50753322  0.82480030  1
  In  In35  1  0.51127758  0.02570013  0.17375490  1
  In  In36  1  0.00178097  0.66512134  0.65528348  1
  In  In37  1  -0.01818739  0.63879361  0.33690328  1
  In  In38  1  0.79197405  0.66174492  0.85032019  1
  In  In39  1  0.33799497  0.18222309  0.84530170  1
  In  In40  1  0.31787545  -0.00082623  0.34681536  1
  In  In41  1  0.16838406  0.34437002  0.82948927  1
  In  In42  1  0.84883496  0.65044729  0.50796855  1
  In  In43  1  0.83539681  -0.00061703  0.17002807  1
  In  In44  1  0.32651856  0.67782457  0.66597716  1
  In  In45  1  0.52446659  0.67437726  0.49065210  1
  In  In46  1  0.01804629  0.85561549  0.18922272  1
  In  In47  1  0.32694592  0.36771439  0.68557451  1
  In  In48  1  0.16472746  0.17904083  0.02000449  1
  In  In49  1  0.52428751  0.17807785  0.67336537  1
  In  In50  1  0.50990825  0.81760122  0.32882764  1
  In  In51  1  0.51486162  0.47814023  0.32692835  1
  In  In52  1  0.69248707  0.63865259  0.31750708  1
  In  In53  1  0.67014754  -0.01973541  0.66692614  1
  In  In54  1  0.16049747  0.81356485  0.66677871  1
  In  In55  1  0.51726024  0.84023851  -0.01997197  1
  In  In56  1  0.14325529  0.65913161  0.18518705  1
  In  In57  1  0.32049153  0.32425234  0.31543266  1
  In  In58  1  0.15729308  -0.00488153  0.83771253  1
  In  In59  1  0.68028873  0.16846767  0.49243432  1
  In  In60  1  0.12648671  0.19662719  0.62075002  1
  In  In61  1  0.83980561  0.84898019  0.32972401  1
  In  In62  1  0.50708101  0.31831772  0.50686068  1
  In  In63  1  0.32180346  0.15986028  0.49207174  1
  In  In64  1  0.29702010  0.85405981  0.49511824  1
  In  In65  1  0.70277231  0.35973825  0.34602941  1
  In  In66  1  0.31293560  0.50763814  0.49978375  1
  In  In67  1  0.48253733  -0.02111206  0.48386338  1
  In  In68  1  0.82451195  0.16562898  0.32901888  1
  In  In69  1  0.85072635  0.18819485  0.65181753  1
  In  In70  1  -0.00132659  0.18545442  0.15699096  1
  In  In71  1  0.31090592  0.65905746  0.34177638  1
  Te  Te72  1  0.08460363  0.07198553  0.09509799  1
  Te  Te73  1  0.04442034  0.05606513  0.41082677  1
  Te  Te74  1  0.08531852  0.08991046  0.74125396  1
  Te  Te75  1  0.08235904  0.40168449  0.10056783  1
  Te  Te76  1  0.05099857  0.41051419  0.44219261  1
  Te  Te77  1  0.06437628  0.39495007  0.73039923  1
  Te  Te78  1  0.06878778  0.74440701  0.08182673  1
  Te  Te79  1  0.07361729  0.73283998  0.40768978  1
  Te  Te80  1  0.07437550  0.74091229  0.76058375  1
  Te  Te81  1  0.40374740  0.08253291  0.08244483  1
  Te  Te82  1  0.42693391  0.09525727  0.40262793  1
  Te  Te83  1  0.42847434  0.07992239  0.75501868  1
  Te  Te84  1  0.42953742  0.43397466  0.08048366  1
  Te  Te85  1  0.41272068  0.40937700  0.41970844  1
  Te  Te86  1  0.44172914  0.41205751  0.77428729  1
  Te  Te87  1  0.42815844  0.75176854  0.08799697  1
  Te  Te88  1  0.40851251  0.75604074  0.43231326  1
  Te  Te89  1  0.43846711  0.73905768  0.75382004  1
  Te  Te90  1  0.75291031  0.09196933  0.07992227  1
  Te  Te91  1  0.75706853  0.06722659  0.41869896  1
  Te  Te92  1  0.74398345  0.09778361  0.73528858  1
  Te  Te93  1  0.74317382  0.41611110  0.02457715  1
  Te  Te94  1  0.76603217  0.45049722  0.44421520  1
  Te  Te95  1  0.76109262  0.41739773  0.75987872  1
  Te  Te96  1  0.73741292  0.74840447  0.06980296  1
  Te  Te97  1  0.75594034  0.74158174  0.41347089  1
  Te  Te98  1  0.72556311  0.74988610  0.75154434  1
  Te  Te99  1  0.08371652  0.26905526  0.25206166  1
  Te  Te100  1  0.02789356  0.27027157  0.53536922  1
  Te  Te101  1  0.07834677  0.24832151  0.91070711  1
  Te  Te102  1  0.07110805  0.55053306  0.25348003  1
  Te  Te103  1  0.06733983  0.58562596  0.54860309  1
  Te  Te104  1  0.08659740  0.59530190  0.91361950  1
  Te  Te105  1  0.08698776  0.94095377  0.28889912  1
  Te  Te106  1  0.07746791  0.91225826  0.58806956  1
  Te  Te107  1  0.05768172  0.90089209  0.90232232  1
  Te  Te108  1  0.43547904  0.24518562  0.25247942  1
  Te  Te109  1  0.40457068  0.24605418  0.59494326  1
  Te  Te110  1  0.41907953  0.27073815  0.92973111  1
  Te  Te111  1  0.42986060  0.59813450  0.26604987  1
  Te  Te112  1  0.42051786  0.57789082  0.58454303  1
  Te  Te113  1  0.43388010  0.58416372  0.92098770  1
  Te  Te114  1  0.41329371  0.91286199  0.25617611  1
  Te  Te115  1  0.40411499  0.91083316  0.59749157  1
  Te  Te116  1  0.40222360  0.93352575  0.93870230  1
  Te  Te117  1  0.76986779  0.27746131  0.23634045  1
  Te  Te118  1  0.76141734  0.27578717  0.56215184  1
  Te  Te119  1  0.77701318  0.28229924  0.94603561  1
  Te  Te120  1  0.77954538  0.54466852  0.23749267  1
  Te  Te121  1  0.74875059  0.56690947  0.58061303  1
  Te  Te122  1  0.76431573  0.55397788  0.95478979  1
  Te  Te123  1  0.73921039  0.91416105  0.24378340  1
  Te  Te124  1  0.77111568  0.92366168  0.57561895  1
  Te  Te125  1  0.77634547  0.90480464  0.93126463  1
  Te  Te126  1  0.24635993  0.28203595  0.08796506  1
  Te  Te127  1  0.23071923  0.25836774  0.42036872  1
  Te  Te128  1  0.24387027  0.24287714  0.73851765  1
  Te  Te129  1  0.25457026  0.59116691  0.09120780  1
  Te  Te130  1  0.21427385  0.56715680  0.40732699  1
  Te  Te131  1  0.23019904  0.58291007  0.73982229  1
  Te  Te132  1  0.23316269  0.93383904  0.08908482  1
  Te  Te133  1  0.20057828  0.91974142  0.40100152  1
  Te  Te134  1  0.25744933  0.91554026  0.74924059  1
  Te  Te135  1  0.60137281  0.25626089  0.07098271  1
  Te  Te136  1  0.59713538  0.25967689  0.39931974  1
  Te  Te137  1  0.58218945  0.25648308  0.78811569  1
  Te  Te138  1  0.63751550  0.57888381  0.06749099  1
  Te  Te139  1  0.60283763  0.56511247  0.42030014  1
  Te  Te140  1  0.62839611  0.57492652  0.76641261  1
  Te  Te141  1  0.58521730  0.91763743  0.09603100  1
  Te  Te142  1  0.59798954  0.91335615  0.40946835  1
  Te  Te143  1  0.63264770  0.87416892  0.78021897  1
  Te  Te144  1  0.88819970  0.25448102  0.08403421  1
  Te  Te145  1  0.91375233  0.25135296  0.41579153  1
  Te  Te146  1  0.90064129  0.27989080  0.75678255  1
  Te  Te147  1  0.93216431  0.55042483  0.10544365  1
  Te  Te148  1  0.88967838  0.54162571  0.40959948  1
  Te  Te149  1  0.90139037  0.58787764  0.74768375  1
  Te  Te150  1  0.91358628  0.89766502  0.08556293  1
  Te  Te151  1  0.93605689  0.93682897  0.40816882  1
  Te  Te152  1  0.90920658  0.90502214  0.75109478  1
  Te  Te153  1  0.24026881  0.09594565  0.25749436  1
  Te  Te154  1  0.21151212  0.07709689  0.55710483  1
  Te  Te155  1  0.24451721  0.08766560  0.92227564  1
  Te  Te156  1  0.23251472  0.43781372  0.27589364  1
  Te  Te157  1  0.23216421  0.39780563  0.57069055  1
  Te  Te158  1  0.25754851  0.41929742  0.92805552  1
  Te  Te159  1  0.22939689  0.76129665  0.26159347  1
  Te  Te160  1  0.23130141  0.73067510  0.55855179  1
  Te  Te161  1  0.23738041  0.74807918  0.90048144  1
  Te  Te162  1  0.60212036  0.08174007  0.27411896  1
  Te  Te163  1  0.57367664  0.07128018  0.57505437  1
  Te  Te164  1  0.58655482  0.07627508  0.90216502  1
  Te  Te165  1  0.61916446  0.43123669  0.22891891  1
  Te  Te166  1  0.59198702  0.41112797  0.58955082  1
  Te  Te167  1  0.64645347  0.41487030  0.90094897  1
  Te  Te168  1  0.60772537  0.74082506  0.23920424  1
  Te  Te169  1  0.61001673  0.72320273  0.60676356  1
  Te  Te170  1  0.62831808  0.74041298  0.95629035  1
  Te  Te171  1  0.93044974  0.08585253  0.25097407  1
  Te  Te172  1  0.91778751  0.09426690  0.55884867  1
  Te  Te173  1  0.90154416  0.09873012  0.92908472  1
  Te  Te174  1  0.89677943  0.43969803  0.22483615  1
  Te  Te175  1  0.95476669  0.40928049  0.56677649  1
  Te  Te176  1  0.90703443  0.43942774  0.92045339  1
  Te  Te177  1  0.91441633  0.74470778  0.24278642  1
  Te  Te178  1  0.89753813  0.76362849  0.59834577  1
  Te  Te179  1  0.88922526  0.75125627  0.92073859  1
