# generated using pymatgen
data_In2Te3
_symmetry_space_group_name_H-M   'P 1'
_cell_length_a   18.94304953
_cell_length_b   18.97024861
_cell_length_c   18.93956356
_cell_angle_alpha   89.76224709
_cell_angle_beta   90.01130703
_cell_angle_gamma   90.14814652
_symmetry_Int_Tables_number   1
_chemical_formula_structural   In2Te3
_chemical_formula_sum   'In72 Te108'
_cell_volume   6805.93325626
_cell_formula_units_Z   36
loop_
 _symmetry_equiv_pos_site_id
 _symmetry_equiv_pos_as_xyz
  1  'x, y, z'
loop_
 _atom_site_type_symbol
 _atom_site_label
 _atom_site_symmetry_multiplicity
 _atom_site_fract_x
 _atom_site_fract_y
 _atom_site_fract_z
 _atom_site_occupancy
  In  In0  1  0.83472549  0.49855247  0.66521026  1
  In  In1  1  -0.00275538  0.15914202  0.82771672  1
  In  In2  1  0.47413783  0.69886749  0.34752361  1
  In  In3  1  0.02951307  0.35579616  0.33631189  1
  In  In4  1  0.03516958  0.66101636  0.67507417  1
  In  In5  1  0.66645999  0.00426266  0.31529817  1
  In  In6  1  0.20036405  0.02352319  0.46196411  1
  In  In7  1  0.47999551  0.33323557  0.15092923  1
  In  In8  1  0.50356796  0.63493613  0.84415863  1
  In  In9  1  0.17181315  0.66860986  0.84544401  1
  In  In10  1  0.84792942  0.65550537  0.48642619  1
  In  In11  1  0.78737353  0.01910326  0.82318392  1
  In  In12  1  0.50169907  0.80943924  0.66950275  1
  In  In13  1  0.14780193  0.33236476  0.82109630  1
  In  In14  1  -0.02656386  0.83738124  0.86354906  1
  In  In15  1  0.67490571  0.35544271  0.32895922  1
  In  In16  1  0.81775131  0.34128787  0.14542611  1
  In  In17  1  0.35600197  0.00003028  0.68340357  1
  In  In18  1  0.81501584  0.00351406  0.15311032  1
  In  In19  1  0.17505343  0.82388194  0.31347512  1
  In  In20  1  0.01032473  0.58916861  0.18857127  1
  In  In21  1  0.18924763  0.01286627  0.86752599  1
  In  In22  1  0.20482546  0.65855871  0.47525651  1
  In  In23  1  0.01461841  0.31718118  0.63623034  1
  In  In24  1  -0.00409072  0.00678150  0.01920629  1
  In  In25  1  0.81454696  0.67751249  0.85270490  1
  In  In26  1  -0.00909959  -0.01718144  0.31893248  1
  In  In27  1  0.33630889  -0.02609784  0.33988071  1
  In  In28  1  0.18653269  0.84740204  0.66965183  1
  In  In29  1  0.34980152  0.15002582  0.08269346  1
  In  In30  1  0.34017889  0.33721944  -0.01024624  1
  In  In31  1  0.50104913  -0.00079593  0.52750782  1
  In  In32  1  0.50555881  0.19791716  0.32919733  1
  In  In33  1  0.85765384  -0.02379565  0.51547947  1
  In  In34  1  0.60289730  0.59877186  0.63888681  1
  In  In35  1  0.83473161  0.15981388  0.66744879  1
  In  In36  1  0.84164250  0.34981200  0.47896787  1
  In  In37  1  0.18061710  0.48764017  0.63187072  1
  In  In38  1  0.65370058  0.85387620  0.83038542  1
  In  In39  1  0.65038481  0.21119315  0.13548913  1
  In  In40  1  0.82225898  0.64621825  0.15930474  1
  In  In41  1  0.67445979  0.63834015  0.00778017  1
  In  In42  1  0.67067382  0.16733892  0.47352648  1
  In  In43  1  0.81558993  0.20187013  -0.01912874  1
  In  In44  1  0.47028042  0.49038182  0.33616758  1
  In  In45  1  -0.00860496  0.33461769  -0.01330545  1
  In  In46  1  0.17674764  0.15517260  0.32729848  1
  In  In47  1  0.68904154  0.82862627  0.49161725  1
  In  In48  1  -0.00843855  0.50122670  0.84938644  1
  In  In49  1  0.47987429  0.00031220  0.15125383  1
  In  In50  1  0.17615528  0.76501664  0.04687559  1
  In  In51  1  0.18778548  0.00513221  0.13387191  1
  In  In52  1  0.52031805  0.85103495  0.00594632  1
  In  In53  1  0.86073434  0.18127285  0.34192995  1
  In  In54  1  0.82723757  0.82576952  0.00971801  1
  In  In55  1  0.17055254  0.52361777  0.03713631  1
  In  In56  1  0.82813186  0.51210728  0.31731451  1
  In  In57  1  0.62674568  0.04643221  0.73851144  1
  In  In58  1  0.33117451  0.34819925  0.67194110  1
  In  In59  1  0.36500016  0.63434987  0.65588478  1
  In  In60  1  0.81899570  0.81467145  0.64164343  1
  In  In61  1  -0.00099562  -0.00523088  0.69608377  1
  In  In62  1  0.50250989  0.36048104  0.84591729  1
  In  In63  1  0.34934415  0.82622929  0.17894178  1
  In  In64  1  0.53450881  0.67024902  0.16754044  1
  In  In65  1  0.33297491  0.17655678  0.48586547  1
  In  In66  1  0.65188207  0.37394016  0.63650171  1
  In  In67  1  0.29326650  0.33881644  0.33334085  1
  In  In68  1  0.33455029  0.49113495  0.84402656  1
  In  In69  1  0.03641207  0.83087820  0.48346463  1
  In  In70  1  0.16309308  0.34783302  0.17777458  1
  In  In71  1  0.48395463  0.17550061  0.69026167  1
  Te  Te72  1  0.08501011  0.09847527  0.08891041  1
  Te  Te73  1  0.07052310  0.07655307  0.40964414  1
  Te  Te74  1  0.10673354  0.08274142  0.75630756  1
  Te  Te75  1  0.06633691  0.42133485  0.08703088  1
  Te  Te76  1  0.12115843  0.44495188  0.41054917  1
  Te  Te77  1  0.07384186  0.43739674  0.73805548  1
  Te  Te78  1  0.05814225  0.72435673  0.12962298  1
  Te  Te79  1  0.08920619  0.72579724  0.39191230  1
  Te  Te80  1  0.08043895  0.77606824  0.76664086  1
  Te  Te81  1  0.42544653  0.04082012  0.01383206  1
  Te  Te82  1  0.43153898  0.08355282  0.41307464  1
  Te  Te83  1  0.39689713  0.10207387  0.78208632  1
  Te  Te84  1  0.39546786  0.43456499  0.08380222  1
  Te  Te85  1  0.39510338  0.39649301  0.42515526  1
  Te  Te86  1  0.43065738  0.44275879  0.73893538  1
  Te  Te87  1  0.43545202  0.75133144  0.08028092  1
  Te  Te88  1  0.34846380  0.71004369  0.43234533  1
  Te  Te89  1  0.41277705  0.72936050  0.76343860  1
  Te  Te90  1  0.73644189  0.10623576  0.06825574  1
  Te  Te91  1  0.77725159  0.07220625  0.41994211  1
  Te  Te92  1  0.73523011  0.15855614  0.78325623  1
  Te  Te93  1  0.69799870  0.39404616  0.07627279  1
  Te  Te94  1  0.73754217  0.44642518  0.43086793  1
  Te  Te95  1  0.75386539  0.40099266  0.73775191  1
  Te  Te96  1  0.72929834  0.75058446  0.09463829  1
  Te  Te97  1  0.75990356  0.73785491  0.40236586  1
  Te  Te98  1  0.73157073  0.75211562  0.74918572  1
  Te  Te99  1  0.07951952  0.24216247  0.24815334  1
  Te  Te100  1  0.13932838  0.26401006  0.58713229  1
  Te  Te101  1  0.08676050  0.23594953  0.92281925  1
  Te  Te102  1  0.12094641  0.53294131  0.27598035  1
  Te  Te103  1  0.09037537  0.58578281  0.55928843  1
  Te  Te104  1  0.07682750  0.59174807  0.93573198  1
  Te  Te105  1  0.09701861  0.92231840  0.23083950  1
  Te  Te106  1  0.08856697  0.92904958  0.58762501  1
  Te  Te107  1  0.08235897  0.91909831  0.92992187  1
  Te  Te108  1  0.39035092  0.25215267  0.25115642  1
  Te  Te109  1  0.41883802  0.25658799  0.58064720  1
  Te  Te110  1  0.40626125  0.25497166  0.88775634  1
  Te  Te111  1  0.42028591  0.59979442  0.24414714  1
  Te  Te112  1  0.42431641  0.61144593  0.51945155  1
  Te  Te113  1  0.41398983  0.56756670  0.94159588  1
  Te  Te114  1  0.44694813  0.90344110  0.26642019  1
  Te  Te115  1  0.40841122  0.89324645  0.58248150  1
  Te  Te116  1  0.44258087  0.92590142  0.90614603  1
  Te  Te117  1  0.74465474  0.23838013  0.25992878  1
  Te  Te118  1  0.76203492  0.24970431  0.56730549  1
  Te  Te119  1  0.71485843  0.30520571  0.94685816  1
  Te  Te120  1  0.72148306  0.57199994  0.23783892  1
  Te  Te121  1  0.75211936  0.59883008  0.58899847  1
  Te  Te122  1  0.74148269  0.55852175  0.90203608  1
  Te  Te123  1  0.76113082  0.91229841  0.25472270  1
  Te  Te124  1  0.73727260  0.93356844  0.59782980  1
  Te  Te125  1  0.73984046  0.92383142  0.93323398  1
  Te  Te126  1  0.24809999  0.25847857  0.08325143  1
  Te  Te127  1  0.20674225  0.25551647  0.44539729  1
  Te  Te128  1  0.24346131  0.25288341  0.74382228  1
  Te  Te129  1  0.24255744  0.63663900  0.09900002  1
  Te  Te130  1  0.23795418  0.54508000  0.37955709  1
  Te  Te131  1  0.24361801  0.57428016  0.74991593  1
  Te  Te132  1  0.26419695  0.89262268  0.07237520  1
  Te  Te133  1  0.25306339  0.88756582  0.43237781  1
  Te  Te134  1  0.26787005  0.91508336  0.77576980  1
  Te  Te135  1  0.52331434  0.22204447  0.06270752  1
  Te  Te136  1  0.58137758  0.28104938  0.42965234  1
  Te  Te137  1  0.57850097  0.28336403  0.73809299  1
  Te  Te138  1  0.55778671  0.56734740  0.06306682  1
  Te  Te139  1  0.55093860  0.58810347  0.41716207  1
  Te  Te140  1  0.61519925  0.56022995  0.78262563  1
  Te  Te141  1  0.59865454  0.93400908  0.09807443  1
  Te  Te142  1  0.59174167  0.93051881  0.42730239  1
  Te  Te143  1  0.53235853  0.92515141  0.76719361  1
  Te  Te144  1  0.91545332  0.24326367  0.08534277  1
  Te  Te145  1  0.95406957  0.25775080  0.43174563  1
  Te  Te146  1  0.92326782  0.26096009  0.74355242  1
  Te  Te147  1  0.90546499  0.54329379  0.09510223  1
  Te  Te148  1  0.93086548  0.56823444  0.40546582  1
  Te  Te149  1  0.91693004  0.60651104  0.75416967  1
  Te  Te150  1  0.92016728  0.90318249  0.10023791  1
  Te  Te151  1  0.91555979  0.88547740  0.40830558  1
  Te  Te152  1  0.88989344  0.90730590  0.75625346  1
  Te  Te153  1  0.27393394  0.07281312  0.24308048  1
  Te  Te154  1  0.26691089  0.07905456  0.58428595  1
  Te  Te155  1  0.26311544  0.09374149  0.96722198  1
  Te  Te156  1  0.26525980  0.44349556  0.22906058  1
  Te  Te157  1  0.29762696  0.43868950  0.55697202  1
  Te  Te158  1  0.21931841  0.42546333  0.92159366  1
  Te  Te159  1  0.25798619  0.72506546  0.24131518  1
  Te  Te160  1  0.24940590  0.72745538  0.60885347  1
  Te  Te161  1  0.26224168  0.74795654  0.92700546  1
  Te  Te162  1  0.57493534  0.09928452  0.23742679  1
  Te  Te163  1  0.59304032  0.10337077  0.59022471  1
  Te  Te164  1  0.62729703  0.08900257  0.87778329  1
  Te  Te165  1  0.56932705  0.41845258  0.24354435  1
  Te  Te166  1  0.56205478  0.47156615  0.57439742  1
  Te  Te167  1  0.58903346  0.39871654  0.96167526  1
  Te  Te168  1  0.59288774  0.74954247  0.27707124  1
  Te  Te169  1  0.59130306  0.74055371  0.57211291  1
  Te  Te170  1  0.59274323  0.74245843  0.91500494  1
  Te  Te171  1  0.91476189  0.08582102  0.23832306  1
  Te  Te172  1  0.93819461  0.08459352  0.58758552  1
  Te  Te173  1  0.90462377  0.07332168  0.91315818  1
  Te  Te174  1  0.90398911  0.39596092  0.25515460  1
  Te  Te175  1  0.93315011  0.42811948  0.57176888  1
  Te  Te176  1  0.89301437  0.41354841  0.91215891  1
  Te  Te177  1  0.93578703  0.71410418  0.23153002  1
  Te  Te178  1  0.94530418  0.75453636  0.58578340  1
  Te  Te179  1  0.92184808  0.72397075  0.95038270  1
