# generated using pymatgen
data_In2Te3
_symmetry_space_group_name_H-M   'P 1'
_cell_length_a   18.79452822
_cell_length_b   18.81135277
_cell_length_c   18.81550189
_cell_angle_alpha   90.00980465
_cell_angle_beta   89.89990816
_cell_angle_gamma   90.08089051
_symmetry_Int_Tables_number   1
_chemical_formula_structural   In2Te3
_chemical_formula_sum   'In72 Te108'
_cell_volume   6652.21323552
_cell_formula_units_Z   36
loop_
 _symmetry_equiv_pos_site_id
 _symmetry_equiv_pos_as_xyz
  1  'x, y, z'
loop_
 _atom_site_type_symbol
 _atom_site_label
 _atom_site_symmetry_multiplicity
 _atom_site_fract_x
 _atom_site_fract_y
 _atom_site_fract_z
 _atom_site_occupancy
  In  In0  1  0.85006589  0.33446259  0.84150041  1
  In  In1  1  0.67596805  0.64600549  0.01082308  1
  In  In2  1  0.51428925  0.84483687  0.00226378  1
  In  In3  1  0.14413910  0.33025920  0.84209891  1
  In  In4  1  0.83571692  0.01529902  0.83380050  1
  In  In5  1  0.49995040  0.16880849  0.34219137  1
  In  In6  1  0.51836942  0.69127057  0.48560719  1
  In  In7  1  0.82837892  0.83541082  0.31209502  1
  In  In8  1  0.18492742  0.48050998  0.68834892  1
  In  In9  1  0.65631696  0.49851986  0.48474972  1
  In  In10  1  0.16903521  0.33856161  0.15542115  1
  In  In11  1  0.15393437  0.47927844  0.31840068  1
  In  In12  1  -0.00093084  0.00891585  0.67503377  1
  In  In13  1  0.69734401  0.87283346  0.51292725  1
  In  In14  1  0.16741338  0.16055657  0.32418484  1
  In  In15  1  0.32213642  0.48720725  0.50799449  1
  In  In16  1  0.31430709  0.35381879  0.68118496  1
  In  In17  1  0.66895962  0.67190746  0.68582797  1
  In  In18  1  0.15249706  0.84229531  0.67957648  1
  In  In19  1  -0.03332481  0.32361923  0.30648774  1
  In  In20  1  0.00010151  0.14599818  0.51928193  1
  In  In21  1  0.16511180  0.80216411  -0.01500825  1
  In  In22  1  0.15105795  0.49119687  0.00389645  1
  In  In23  1  0.32670798  0.32880939  0.32390780  1
  In  In24  1  0.34369795  -0.00469463  0.00086390  1
  In  In25  1  0.53719990  0.81959031  0.29701456  1
  In  In26  1  0.83480173  0.49783108  0.30040691  1
  In  In27  1  0.33976260  0.00877212  0.67419577  1
  In  In28  1  0.01490602  0.48506458  0.48733323  1
  In  In29  1  0.66249796  0.02192167  0.01209295  1
  In  In30  1  0.48759963  0.52181570  0.68264052  1
  In  In31  1  0.15726133  0.18756498  0.00353610  1
  In  In32  1  0.33866329  0.83001008  0.16522500  1
  In  In33  1  0.83279998  0.49870586  0.69555585  1
  In  In34  1  0.34328334  0.20086568  0.86331454  1
  In  In35  1  0.66894353  0.14655693  0.84416288  1
  In  In36  1  0.16393653  0.01571479  0.48919561  1
  In  In37  1  0.37490981  0.65316547  0.30812342  1
  In  In38  1  0.67913586  0.14840666  0.49139720  1
  In  In39  1  0.72025959  0.18278256  0.16433081  1
  In  In40  1  0.67049581  0.50393786  0.16268391  1
  In  In41  1  0.82830279  0.68051813  0.49335405  1
  In  In42  1  0.15487580  0.00989283  0.81503145  1
  In  In43  1  -0.02369077  0.66374304  0.67615542  1
  In  In44  1  0.67317645  -0.00905791  0.32559175  1
  In  In45  1  0.33602625  0.86581783  0.51321273  1
  In  In46  1  0.18301842  0.65783439  0.50603975  1
  In  In47  1  0.50987932  0.33896365  0.14304105  1
  In  In48  1  0.49197404  0.01321441  0.15723799  1
  In  In49  1  0.67037048  0.33252571  0.66414037  1
  In  In50  1  -0.00537063  0.65268457  0.00850965  1
  In  In51  1  0.51454650  0.15333305  0.66999378  1
  In  In52  1  0.00150707  0.31235124  0.68549962  1
  In  In53  1  0.66127306  0.33790940  -0.00824235  1
  In  In54  1  0.15478667  0.67147053  0.15314864  1
  In  In55  1  0.33716723  0.68302771  0.00390435  1
  In  In56  1  0.66604256  0.85648873  0.79886937  1
  In  In57  1  0.36367432  0.67525443  0.69633608  1
  In  In58  1  0.00892281  0.67730273  0.31755658  1
  In  In59  1  0.15347960  0.00695075  0.18060191  1
  In  In60  1  0.49854703  0.68024972  0.83602535  1
  In  In61  1  0.14943255  0.84750791  0.32917211  1
  In  In62  1  0.34009872  0.13911567  0.51005527  1
  In  In63  1  0.82804814  0.32499255  0.50059241  1
  In  In64  1  0.50072025  0.48404474  0.30744845  1
  In  In65  1  0.33875215  0.48844405  0.84763222  1
  In  In66  1  -0.04241904  0.84921624  0.47993503  1
  In  In67  1  0.83787512  0.50129748  0.00214459  1
  In  In68  1  0.82375837  0.83424547  0.02737539  1
  In  In69  1  0.51381549  0.29004935  0.49621476  1
  In  In70  1  -0.03284507  0.01676705  0.00871122  1
  In  In71  1  -0.00372348  0.82700092  0.86247563  1
  Te  Te72  1  0.06828104  0.09668283  0.09155805  1
  Te  Te73  1  0.06151915  0.07448243  0.39526729  1
  Te  Te74  1  0.06406628  0.11195609  0.75879582  1
  Te  Te75  1  0.05709709  0.40137334  0.07743582  1
  Te  Te76  1  0.08201180  0.37831445  0.40429683  1
  Te  Te77  1  0.06182634  0.43099498  0.76278612  1
  Te  Te78  1  0.06159117  0.77196918  0.09044223  1
  Te  Te79  1  0.07870451  0.74733675  0.43713512  1
  Te  Te80  1  0.07906728  0.74101580  0.76424323  1
  Te  Te81  1  0.41704072  0.10369725  0.06831637  1
  Te  Te82  1  0.43525837  0.06583865  0.42571645  1
  Te  Te83  1  0.41595423  0.09750862  0.77271143  1
  Te  Te84  1  0.41466102  0.39063133  0.04059962  1
  Te  Te85  1  0.42402466  0.40854766  0.42328450  1
  Te  Te86  1  0.43365073  0.40291016  0.76202323  1
  Te  Te87  1  0.44290878  0.74521752  0.09552089  1
  Te  Te88  1  0.40125113  0.76000497  0.41557074  1
  Te  Te89  1  0.45731445  0.78608947  0.73494777  1
  Te  Te90  1  0.78916042  0.08468195  0.06741269  1
  Te  Te91  1  0.77335502  0.07022336  0.40555321  1
  Te  Te92  1  0.72811859  0.05618217  0.73538934  1
  Te  Te93  1  0.75772270  0.40280206  0.08950342  1
  Te  Te94  1  0.75317312  0.41469617  0.40279987  1
  Te  Te95  1  0.73438087  0.41437557  0.77546557  1
  Te  Te96  1  0.72386838  0.75193264  0.10786152  1
  Te  Te97  1  0.73406306  0.76252084  0.41038255  1
  Te  Te98  1  0.76676036  0.75975860  0.75138956  1
  Te  Te99  1  0.07662880  0.24362562  0.23469211  1
  Te  Te100  1  0.08556389  0.24828835  0.58363127  1
  Te  Te101  1  0.04771155  0.25631385  0.92911817  1
  Te  Te102  1  0.06987338  0.56832789  0.22893102  1
  Te  Te103  1  0.08451181  0.57790092  0.59195834  1
  Te  Te104  1  0.09699730  0.59764497  0.91780561  1
  Te  Te105  1  0.05191043  0.92363793  0.25166892  1
  Te  Te106  1  0.07768403  0.91272190  0.56668275  1
  Te  Te107  1  0.08561880  0.93205104  0.92973259  1
  Te  Te108  1  0.42276929  0.24954803  0.23893463  1
  Te  Te109  1  0.40631812  0.25393476  0.59921698  1
  Te  Te110  1  0.44755320  0.27840171  0.93735271  1
  Te  Te111  1  0.43499175  0.56806665  0.20397638  1
  Te  Te112  1  0.41718821  0.59507433  0.56475046  1
  Te  Te113  1  0.42666718  0.58303891  0.92933042  1
  Te  Te114  1  0.42417614  0.91641244  0.25572741  1
  Te  Te115  1  0.44193555  0.93045034  0.59625163  1
  Te  Te116  1  0.42139214  0.91046173  0.90904443  1
  Te  Te117  1  0.80972402  0.25785068  0.26285293  1
  Te  Te118  1  0.75833706  0.22907144  0.59709984  1
  Te  Te119  1  0.75844548  0.24079395  0.92354259  1
  Te  Te120  1  0.73597094  0.60106907  0.25718713  1
  Te  Te121  1  0.74856739  0.57586183  0.58110097  1
  Te  Te122  1  0.74689032  0.56937872  0.90650772  1
  Te  Te123  1  0.75856358  0.92957063  0.21901916  1
  Te  Te124  1  0.76382156  0.95904751  0.61353390  1
  Te  Te125  1  0.74718623  0.92087830  0.92351361  1
  Te  Te126  1  0.26079856  0.23987875  0.09424743  1
  Te  Te127  1  0.25813111  0.23603637  0.42240687  1
  Te  Te128  1  0.24038552  0.24574332  0.75869887  1
  Te  Te129  1  0.25234337  0.58158939  0.08016232  1
  Te  Te130  1  0.25135717  0.57486387  0.39739126  1
  Te  Te131  1  0.25534873  0.59001944  0.76624628  1
  Te  Te132  1  0.23845455  0.90802183  0.08244102  1
  Te  Te133  1  0.25514800  0.93239255  0.40064429  1
  Te  Te134  1  0.26033331  0.91093898  0.76213101  1
  Te  Te135  1  0.59754505  0.23010745  0.08087721  1
  Te  Te136  1  0.61871576  0.25206205  0.39492277  1
  Te  Te137  1  0.58714630  0.25012478  0.76199115  1
  Te  Te138  1  0.57010482  0.55790740  0.06745707  1
  Te  Te139  1  0.58087595  0.59036553  0.39028800  1
  Te  Te140  1  0.59448021  0.57322559  0.77604241  1
  Te  Te141  1  0.59953421  0.91796352  0.10502858  1
  Te  Te142  1  0.57959760  0.90767080  0.41286815  1
  Te  Te143  1  0.54841434  0.91415799  0.73240006  1
  Te  Te144  1  0.86940464  0.22370773  0.10770263  1
  Te  Te145  1  0.91679891  0.23146909  0.42193350  1
  Te  Te146  1  0.88929254  0.23386791  0.73919887  1
  Te  Te147  1  0.89663189  0.59552883  0.10303851  1
  Te  Te148  1  0.91803405  0.58071302  0.41558940  1
  Te  Te149  1  0.91540122  0.58271833  0.78277143  1
  Te  Te150  1  0.90535549  0.92698451  0.11164092  1
  Te  Te151  1  0.88666163  0.94801186  0.39679779  1
  Te  Te152  1  0.92051161  0.90963974  0.76042290  1
  Te  Te153  1  0.26311976  0.07717810  0.24952440  1
  Te  Te154  1  0.22955395  0.08958430  0.60452974  1
  Te  Te155  1  0.24402237  0.08751661  0.91458678  1
  Te  Te156  1  0.26855581  0.43188983  0.22915296  1
  Te  Te157  1  0.21828866  0.39389283  0.56604526  1
  Te  Te158  1  0.24881785  0.39763104  0.93082418  1
  Te  Te159  1  0.24174782  0.74499878  0.25683715  1
  Te  Te160  1  0.25804594  0.75534381  0.59638998  1
  Te  Te161  1  0.27433974  0.76119331  0.89590567  1
  Te  Te162  1  0.59653706  0.09598992  0.24192665  1
  Te  Te163  1  0.58021960  0.06940705  0.56841845  1
  Te  Te164  1  0.56342198  0.06891686  0.91438191  1
  Te  Te165  1  0.60564390  0.39199319  0.24935735  1
  Te  Te166  1  0.57108698  0.42141796  0.58618009  1
  Te  Te167  1  0.54148229  0.40663936  0.93525512  1
  Te  Te168  1  0.61795383  0.72265287  0.22257833  1
  Te  Te169  1  0.60499330  0.76566798  0.58399971  1
  Te  Te170  1  0.60608325  0.75697839  0.91380264  1
  Te  Te171  1  0.87232730  0.12409988  0.21863514  1
  Te  Te172  1  0.89314787  0.05956052  0.58222113  1
  Te  Te173  1  0.93406769  0.10883675  0.89630134  1
  Te  Te174  1  0.92700928  0.42797179  0.20706023  1
  Te  Te175  1  0.91481187  0.42029597  0.58624107  1
  Te  Te176  1  0.93667685  0.40502474  0.94129618  1
  Te  Te177  1  0.90352600  0.73260113  0.23196747  1
  Te  Te178  1  0.89727751  0.76941488  0.59670256  1
  Te  Te179  1  0.89195554  0.73937636  0.92919762  1
