# generated using pymatgen
data_In2Te3
_symmetry_space_group_name_H-M   'P 1'
_cell_length_a   18.74177107
_cell_length_b   18.74577786
_cell_length_c   18.75312821
_cell_angle_alpha   90.00110139
_cell_angle_beta   89.97317781
_cell_angle_gamma   89.98678300
_symmetry_Int_Tables_number   1
_chemical_formula_structural   In2Te3
_chemical_formula_sum   'In72 Te108'
_cell_volume   6588.51832960
_cell_formula_units_Z   36
loop_
 _symmetry_equiv_pos_site_id
 _symmetry_equiv_pos_as_xyz
  1  'x, y, z'
loop_
 _atom_site_type_symbol
 _atom_site_label
 _atom_site_symmetry_multiplicity
 _atom_site_fract_x
 _atom_site_fract_y
 _atom_site_fract_z
 _atom_site_occupancy
  In  In0  1  0.81832644  0.67133011  0.16444562  1
  In  In1  1  0.02090879  0.86148064  0.16015056  1
  In  In2  1  0.65587126  0.82709202  0.14188103  1
  In  In3  1  0.17335518  0.64313561  0.17478489  1
  In  In4  1  0.35169858  0.47197485  0.15382455  1
  In  In5  1  0.65203864  0.49870044  0.50400853  1
  In  In6  1  0.83179284  0.00252677  0.15855443  1
  In  In7  1  0.85535757  0.32133808  0.83961725  1
  In  In8  1  0.64330822  0.67878336  0.34451613  1
  In  In9  1  0.01026012  0.00963586  -0.00364270  1
  In  In10  1  0.64861933  0.35947811  0.64433454  1
  In  In11  1  0.49636439  0.00825934  0.84557217  1
  In  In12  1  0.64564863  0.33014051  0.31821507  1
  In  In13  1  0.48654337  0.51459033  0.66598095  1
  In  In14  1  0.32115142  -0.00797807  0.68105254  1
  In  In15  1  0.46872141  0.67625512  0.80899115  1
  In  In16  1  0.19522841  0.47992870  0.00455260  1
  In  In17  1  0.63532335  0.17258799  0.15980887  1
  In  In18  1  0.19053847  0.66659993  0.49917922  1
  In  In19  1  0.16386004  0.48658538  0.67015844  1
  In  In20  1  0.32680630  0.63539554  0.33248761  1
  In  In21  1  0.83032111  0.02703374  0.50118170  1
  In  In22  1  0.01899812  0.83460371  0.51841373  1
  In  In23  1  0.65579465  0.14133009  0.82374972  1
  In  In24  1  0.00104038  0.17784407  0.52150257  1
  In  In25  1  0.84978252  0.34410431  0.50286197  1
  In  In26  1  0.65513849  -0.01430203  -0.00958322  1
  In  In27  1  0.17062130  0.02515010  0.17360790  1
  In  In28  1  0.67267921  0.16602173  0.48030220  1
  In  In29  1  0.82916831  0.82399342  0.32633236  1
  In  In30  1  0.65184225  0.48727773  0.83783467  1
  In  In31  1  0.83329667  0.50690036  0.64499820  1
  In  In32  1  -0.01187996  0.66957623  -0.01346198  1
  In  In33  1  0.84180496  0.15508325  0.67859412  1
  In  In34  1  0.00826353  0.47517648  0.83576011  1
  In  In35  1  0.17750150  -0.00758124  0.50509976  1
  In  In36  1  0.17814073  0.16984652  -0.00903387  1
  In  In37  1  0.17745316  0.32034513  0.16529136  1
  In  In38  1  0.18215897  0.67200256  0.82851182  1
  In  In39  1  -0.00272301  0.66190030  0.36217277  1
  In  In40  1  0.67464812  0.83883004  0.83071430  1
  In  In41  1  0.48846436  0.84811407  0.32136984  1
  In  In42  1  0.66475628  0.64954835  0.00802643  1
  In  In43  1  0.32702557  0.84271245  0.50948776  1
  In  In44  1  0.85668942  0.19818080  0.01964304  1
  In  In45  1  0.48074884  0.16310760  0.31899176  1
  In  In46  1  0.48199559  0.00430058  0.47775014  1
  In  In47  1  0.02573376  0.15838433  0.83838086  1
  In  In48  1  0.34480390  0.33707813  0.35106690  1
  In  In49  1  0.01751010  0.47561172  0.48318852  1
  In  In50  1  0.48054157  0.30306557  0.86693981  1
  In  In51  1  0.87325818  0.85008850  0.69673153  1
  In  In52  1  0.33531576  0.83177564  0.16717303  1
  In  In53  1  0.49373021  0.83581828  0.00052337  1
  In  In54  1  0.19361113  0.17827270  0.32475221  1
  In  In55  1  0.47695199  0.17302667  0.66610051  1
  In  In56  1  0.16464199  0.82837551  -0.02964446  1
  In  In57  1  0.50025901  0.65680300  0.50792193  1
  In  In58  1  0.64784749  0.48486120  0.15913436  1
  In  In59  1  0.33260334  0.49871473  0.84211672  1
  In  In60  1  0.64499460  0.82165392  0.50696261  1
  In  In61  1  0.01149363  0.50094447  0.16677137  1
  In  In62  1  0.65301225  0.32573443  0.01399634  1
  In  In63  1  0.33137465  0.02144351  0.00566036  1
  In  In64  1  0.16857569  0.17374949  0.67034070  1
  In  In65  1  -0.00120067  0.00759573  0.32576334  1
  In  In66  1  0.00832417  0.67832286  0.68427091  1
  In  In67  1  0.85818321  0.49384777  0.31787333  1
  In  In68  1  0.83601952  0.19139684  0.33584073  1
  In  In69  1  0.66115535  -0.01377620  0.66802853  1
  In  In70  1  0.31941987  0.33113131  0.65831485  1
  In  In71  1  0.81678449  0.67607019  0.84473807  1
  Te  Te72  1  0.07178916  0.10747738  0.09374597  1
  Te  Te73  1  0.08454230  0.08985444  0.42123485  1
  Te  Te74  1  0.09376542  0.06471657  0.74328278  1
  Te  Te75  1  0.08291617  0.40397524  0.07232156  1
  Te  Te76  1  0.09939169  0.43222056  0.36963044  1
  Te  Te77  1  0.11104168  0.39029670  0.77068194  1
  Te  Te78  1  0.08966605  0.74258018  0.08883441  1
  Te  Te79  1  0.10252780  0.76032404  0.41352629  1
  Te  Te80  1  0.10131872  0.77186443  0.75112879  1
  Te  Te81  1  0.43648712  0.11202697  0.05841671  1
  Te  Te82  1  0.38655065  0.09615752  0.41527097  1
  Te  Te83  1  0.39673778  0.09599979  0.76994833  1
  Te  Te84  1  0.43524099  0.38982979  0.06200978  1
  Te  Te85  1  0.44340007  0.42195034  0.42237873  1
  Te  Te86  1  0.43034816  0.40285752  0.75602539  1
  Te  Te87  1  0.41564712  0.74083196  0.08317402  1
  Te  Te88  1  0.41385250  0.74988462  0.41218474  1
  Te  Te89  1  0.36926287  0.76692059  0.74514049  1
  Te  Te90  1  0.74445146  0.09334570  0.07161269  1
  Te  Te91  1  0.74680121  0.07448749  0.38273702  1
  Te  Te92  1  0.76348998  0.05245434  0.76159881  1
  Te  Te93  1  0.75136835  0.41436986  0.08095913  1
  Te  Te94  1  0.74608553  0.40995362  0.41271523  1
  Te  Te95  1  0.75618375  0.41099596  0.74700141  1
  Te  Te96  1  0.76211537  0.76061761  0.05451865  1
  Te  Te97  1  0.75409396  0.73997235  0.42913405  1
  Te  Te98  1  0.75528765  0.75653185  0.73030060  1
  Te  Te99  1  0.08328921  0.23520980  0.24297602  1
  Te  Te100  1  0.10810854  0.26795602  0.56918699  1
  Te  Te101  1  0.07959278  0.26228171  0.92875203  1
  Te  Te102  1  0.09244169  0.56347355  0.28738306  1
  Te  Te103  1  0.07673577  0.58847115  0.57932034  1
  Te  Te104  1  0.09469255  0.57785884  0.92282116  1
  Te  Te105  1  0.10961752  0.91839516  0.26903409  1
  Te  Te106  1  0.09640696  0.92164144  0.60831991  1
  Te  Te107  1  0.07262659  0.91912297  0.89111425  1
  Te  Te108  1  0.40406012  0.26114622  0.23649166  1
  Te  Te109  1  0.40184337  0.24791170  0.56489805  1
  Te  Te110  1  0.39260258  0.21971409  0.95878308  1
  Te  Te111  1  0.42323340  0.57273466  0.23940449  1
  Te  Te112  1  0.39026682  0.58938244  0.58210556  1
  Te  Te113  1  0.42502284  0.58635701  0.91733167  1
  Te  Te114  1  0.40344881  0.94084640  0.24232012  1
  Te  Te115  1  0.42974292  0.92111503  0.59234043  1
  Te  Te116  1  0.39711556  0.91407769  0.91302959  1
  Te  Te117  1  0.74560666  0.25613928  0.23040035  1
  Te  Te118  1  0.75543578  0.24620295  0.58487356  1
  Te  Te119  1  0.73972931  0.24470050  0.90809225  1
  Te  Te120  1  0.74326093  0.58357731  0.26442354  1
  Te  Te121  1  0.72948166  0.59331360  0.58673028  1
  Te  Te122  1  0.75633248  0.55969595  0.92417515  1
  Te  Te123  1  0.73901899  0.91188344  0.24058827  1
  Te  Te124  1  0.75858794  0.91329949  0.57530497  1
  Te  Te125  1  0.76388733  0.92289952  0.91284696  1
  Te  Te126  1  0.27572035  0.24871551  0.07577430  1
  Te  Te127  1  0.23363406  0.27506855  0.43085964  1
  Te  Te128  1  0.25188624  0.25428917  0.76621619  1
  Te  Te129  1  0.27443991  0.58760748  0.07648696  1
  Te  Te130  1  0.25937300  0.54944776  0.43557008  1
  Te  Te131  1  0.26378695  0.58284250  0.73431134  1
  Te  Te132  1  0.23100238  0.91815602  0.07792785  1
  Te  Te133  1  0.26473460  0.92621849  0.40473736  1
  Te  Te134  1  0.25742426  0.87533573  0.74759109  1
  Te  Te135  1  0.54058080  0.28369532  0.11135811  1
  Te  Te136  1  0.56478972  0.25133438  0.42118419  1
  Te  Te137  1  0.58541956  0.25631054  0.74859773  1
  Te  Te138  1  0.56261434  0.58799838  0.09389789  1
  Te  Te139  1  0.55864829  0.56376946  0.39903483  1
  Te  Te140  1  0.58969232  0.59303747  0.74857930  1
  Te  Te141  1  0.55782885  0.93609831  0.09760512  1
  Te  Te142  1  0.59191477  0.92429067  0.40754848  1
  Te  Te143  1  0.56189898  0.90596206  0.75140851  1
  Te  Te144  1  0.92285311  0.28109664  0.11938593  1
  Te  Te145  1  0.94451660  0.26962938  0.40929167  1
  Te  Te146  1  0.94321215  0.25070625  0.73738872  1
  Te  Te147  1  0.90877201  0.57882452  0.08188031  1
  Te  Te148  1  0.90078607  0.57399398  0.43985973  1
  Te  Te149  1  0.91416836  0.57974633  0.75999366  1
  Te  Te150  1  0.91298494  0.91020614  0.06665096  1
  Te  Te151  1  0.91806915  0.91298272  0.41703608  1
  Te  Te152  1  0.96297955  0.93480293  0.77702702  1
  Te  Te153  1  0.28369627  0.09443491  0.23923720  1
  Te  Te154  1  0.26578892  0.09170212  0.58070332  1
  Te  Te155  1  0.23163403  0.06266470  0.90314114  1
  Te  Te156  1  0.24796980  0.42210283  0.25380091  1
  Te  Te157  1  0.25098949  0.42692568  0.56395352  1
  Te  Te158  1  0.25438020  0.38808082  0.90428069  1
  Te  Te159  1  0.24638912  0.74571171  0.26100272  1
  Te  Te160  1  0.24924167  0.75704873  0.60486020  1
  Te  Te161  1  0.27293271  0.73818610  0.92621591  1
  Te  Te162  1  0.58250124  0.07420707  0.25580112  1
  Te  Te163  1  0.58502522  0.08888323  0.58353765  1
  Te  Te164  1  0.56642733  0.10580771  0.94386732  1
  Te  Te165  1  0.54992401  0.42385325  0.25488918  1
  Te  Te166  1  0.53115544  0.40766283  0.55334847  1
  Te  Te167  1  0.55431010  0.42091060  0.93543351  1
  Te  Te168  1  0.56419209  0.74574627  0.23338363  1
  Te  Te169  1  0.56599479  0.74727935  0.60558681  1
  Te  Te170  1  0.58394872  0.74405380  0.91188758  1
  Te  Te171  1  0.91746857  0.10090182  0.23792829  1
  Te  Te172  1  0.93768166  0.06280853  0.60155558  1
  Te  Te173  1  0.90937023  0.09677458  0.92007877  1
  Te  Te174  1  0.92552007  0.39101067  0.23337336  1
  Te  Te175  1  0.94391648  0.40990111  0.60285682  1
  Te  Te176  1  0.91717780  0.41397448  0.93560766  1
  Te  Te177  1  0.93399680  0.74599104  0.24247057  1
  Te  Te178  1  0.91254875  0.74883355  0.58650871  1
  Te  Te179  1  0.92513548  0.76487255  0.89338565  1
