# generated using pymatgen
data_In2Te3
_symmetry_space_group_name_H-M   'P 1'
_cell_length_a   19.00146317
_cell_length_b   18.97192892
_cell_length_c   18.98445219
_cell_angle_alpha   89.95734441
_cell_angle_beta   89.91866477
_cell_angle_gamma   90.14846503
_symmetry_Int_Tables_number   1
_chemical_formula_structural   In2Te3
_chemical_formula_sum   'In72 Te108'
_cell_volume   6843.75707843
_cell_formula_units_Z   36
loop_
 _symmetry_equiv_pos_site_id
 _symmetry_equiv_pos_as_xyz
  1  'x, y, z'
loop_
 _atom_site_type_symbol
 _atom_site_label
 _atom_site_symmetry_multiplicity
 _atom_site_fract_x
 _atom_site_fract_y
 _atom_site_fract_z
 _atom_site_occupancy
  In  In0  1  0.15822991  0.00802339  0.51644731  1
  In  In1  1  0.18847177  0.68308164  0.50892870  1
  In  In2  1  0.47052609  0.50179268  0.69370412  1
  In  In3  1  0.00781367  0.35842741  0.31206572  1
  In  In4  1  -0.00349341  0.15844624  0.16192134  1
  In  In5  1  0.02933253  0.85584388  0.85871518  1
  In  In6  1  0.00913157  0.16716705  0.47839184  1
  In  In7  1  0.82577576  0.36028549  0.47996005  1
  In  In8  1  0.64855395  0.02590577  0.65031096  1
  In  In9  1  0.49860422  -0.00384382  0.84115735  1
  In  In10  1  0.17473735  0.00571900  0.16011077  1
  In  In11  1  0.65789883  -0.00830910  0.33513508  1
  In  In12  1  0.19552225  0.84843165  0.65889105  1
  In  In13  1  0.47393683  0.85567509  0.66018621  1
  In  In14  1  0.20909714  0.35653024  0.85295442  1
  In  In15  1  0.84362012  0.18677639  0.64871566  1
  In  In16  1  0.65462483  0.50005144  0.16243889  1
  In  In17  1  0.81885021  0.84432136  0.00744171  1
  In  In18  1  0.32872726  0.65683310  0.01454302  1
  In  In19  1  0.35483612  0.15012519  0.12101781  1
  In  In20  1  0.50096741  0.66148925  0.83511132  1
  In  In21  1  0.30973747  0.86573404  0.82774872  1
  In  In22  1  0.00112613  0.68867455  0.30857464  1
  In  In23  1  0.15464978  0.85037288  -0.00371432  1
  In  In24  1  0.64518000  0.32198494  0.00155877  1
  In  In25  1  0.48856403  0.51483537  0.34110708  1
  In  In26  1  0.34096610  0.15302371  0.86039521  1
  In  In27  1  0.18724730  0.31877033  0.15675829  1
  In  In28  1  0.64395766  0.33862090  0.68550696  1
  In  In29  1  0.36017658  0.68897447  0.37266349  1
  In  In30  1  0.03139785  -0.00855658  -0.02306278  1
  In  In31  1  0.80887182  0.16563654  0.31807962  1
  In  In32  1  0.00511491  0.66431049  -0.01677177  1
  In  In33  1  0.34559351  0.48341450  0.15575210  1
  In  In34  1  0.82810392  0.50819524  0.31980979  1
  In  In35  1  0.02318677  0.32700287  0.67638622  1
  In  In36  1  0.50566942  0.33655125  0.50476405  1
  In  In37  1  0.66839832  0.33884780  0.31955635  1
  In  In38  1  0.51153231  0.48263783  -0.00005586  1
  In  In39  1  -0.00430975  0.31397009  -0.00162053  1
  In  In40  1  0.83812057  0.63298357  0.85202107  1
  In  In41  1  0.64733930  0.79415632  0.83380268  1
  In  In42  1  0.66194119  0.83644838  0.51353081  1
  In  In43  1  0.85348242  0.82722165  0.68649669  1
  In  In44  1  0.85244398  0.00138299  0.83118152  1
  In  In45  1  0.62441786  0.67130657  0.32935453  1
  In  In46  1  0.64452193  0.14375108  0.16052503  1
  In  In47  1  0.00974116  0.48178739  0.83655604  1
  In  In48  1  0.32438589  -0.00614979  0.34081108  1
  In  In49  1  0.81646797  0.49391213  0.67608395  1
  In  In50  1  0.17974861  0.51740976  0.35941844  1
  In  In51  1  0.84426097  -0.00536572  0.49604267  1
  In  In52  1  0.66085751  0.16189455  0.84006883  1
  In  In53  1  0.64142759  -0.01499073  -0.00416711  1
  In  In54  1  0.66319738  0.63790031  0.65091071  1
  In  In55  1  0.02163289  0.69178407  0.66152252  1
  In  In56  1  0.83664506  0.01851122  0.15251777  1
  In  In57  1  0.30797912  0.82616973  0.18218778  1
  In  In58  1  0.62945911  0.16097027  0.52258258  1
  In  In59  1  0.15146729  0.85384222  0.34060518  1
  In  In60  1  0.33023097  0.14968836  0.49019869  1
  In  In61  1  0.20894335  0.64190637  0.81169384  1
  In  In62  1  -0.01173197  0.49700330  0.13188671  1
  In  In63  1  0.16713081  0.65704896  0.16807379  1
  In  In64  1  0.34010667  0.32745753  0.68884202  1
  In  In65  1  0.19221577  0.32213293  0.52823099  1
  In  In66  1  0.64675799  0.64432947  -0.00415244  1
  In  In67  1  0.34788447  0.29930960  0.32100377  1
  In  In68  1  0.82644045  0.82977335  0.33361835  1
  In  In69  1  0.63562761  0.82770590  0.16054753  1
  In  In70  1  0.01634969  0.16220677  0.82687774  1
  In  In71  1  0.00586820  0.52175896  0.50415307  1
  Te  Te72  1  0.09682732  0.09631438  0.06726689  1
  Te  Te73  1  0.09529868  0.07767160  0.40365730  1
  Te  Te74  1  0.08096158  0.05389119  0.75469706  1
  Te  Te75  1  0.09327076  0.40542373  0.07348648  1
  Te  Te76  1  0.08823175  0.40955838  0.43153497  1
  Te  Te77  1  0.11471330  0.42166588  0.74643593  1
  Te  Te78  1  0.08159954  0.75010979  0.08497002  1
  Te  Te79  1  0.07959840  0.74802712  0.42449052  1
  Te  Te80  1  0.10606970  0.75576865  0.77046122  1
  Te  Te81  1  0.46040331  0.06744417  0.05733464  1
  Te  Te82  1  0.42428966  0.08904747  0.39468433  1
  Te  Te83  1  0.44537240  0.10924172  0.76213805  1
  Te  Te84  1  0.40189624  0.39210213  0.05166677  1
  Te  Te85  1  0.40755776  0.40421139  0.41204645  1
  Te  Te86  1  0.44092726  0.38488080  0.78299364  1
  Te  Te87  1  0.40209499  0.74494355  0.10406173  1
  Te  Te88  1  0.44105091  0.79191463  0.44243363  1
  Te  Te89  1  0.41520626  0.76961931  0.77066289  1
  Te  Te90  1  0.74055366  0.08256128  0.05603997  1
  Te  Te91  1  0.74362461  0.09257140  0.43528877  1
  Te  Te92  1  0.76384871  0.08984540  0.73820772  1
  Te  Te93  1  0.73034922  0.43362383  0.05621082  1
  Te  Te94  1  0.72241738  0.44655687  0.41170881  1
  Te  Te95  1  0.75476436  0.39509407  0.76239760  1
  Te  Te96  1  0.73223462  0.74427157  0.07772999  1
  Te  Te97  1  0.73180635  0.74625633  0.41537980  1
  Te  Te98  1  0.75635447  0.72607878  0.75118891  1
  Te  Te99  1  0.08740891  0.24853461  0.24805310  1
  Te  Te100  1  0.09561712  0.22511662  0.59311098  1
  Te  Te101  1  0.10134520  0.25753277  0.90641026  1
  Te  Te102  1  0.07630510  0.55999239  0.25080627  1
  Te  Te103  1  0.10720799  0.58449593  0.59541355  1
  Te  Te104  1  0.10236144  0.58045766  0.90534371  1
  Te  Te105  1  0.08346144  0.91164496  0.22613461  1
  Te  Te106  1  0.08452784  0.89698485  0.57885872  1
  Te  Te107  1  0.14925109  0.98137727  0.87161623  1
  Te  Te108  1  0.42823970  0.25133889  0.20736605  1
  Te  Te109  1  0.41025033  0.24776082  0.57915437  1
  Te  Te110  1  0.38200805  0.26454007  0.95174090  1
  Te  Te111  1  0.39116613  0.59046947  0.25419669  1
  Te  Te112  1  0.40309832  0.61940406  0.63449725  1
  Te  Te113  1  0.40613928  0.56766861  0.91467698  1
  Te  Te114  1  0.40777184  0.89439984  0.26772183  1
  Te  Te115  1  0.38844431  0.89011815  0.54314990  1
  Te  Te116  1  0.41549714  0.90462411  0.92046724  1
  Te  Te117  1  0.74114727  0.25371603  0.21823153  1
  Te  Te118  1  0.74200373  0.26710147  0.56806782  1
  Te  Te119  1  0.74380308  0.25670446  0.91218601  1
  Te  Te120  1  0.73283527  0.59877878  0.24622847  1
  Te  Te121  1  0.76757988  0.57793387  0.56866355  1
  Te  Te122  1  0.73787802  0.55269578  0.92394584  1
  Te  Te123  1  0.74266816  0.92381096  0.22598995  1
  Te  Te124  1  0.76158491  0.92006141  0.60314706  1
  Te  Te125  1  0.74301122  0.91528234  0.89565422  1
  Te  Te126  1  0.26183439  0.24567967  0.04858469  1
  Te  Te127  1  0.23855443  0.24100487  0.40919921  1
  Te  Te128  1  0.24773339  0.23614266  0.76778246  1
  Te  Te129  1  0.23374072  0.55601256  0.07920621  1
  Te  Te130  1  0.28301241  0.57807046  0.44934066  1
  Te  Te131  1  0.30682843  0.55923999  0.73259096  1
  Te  Te132  1  0.26515213  0.92644088  0.06742189  1
  Te  Te133  1  0.25329978  0.90256305  0.44080176  1
  Te  Te134  1  0.28343230  0.95675105  0.71333501  1
  Te  Te135  1  0.56141238  0.25498107  0.10630821  1
  Te  Te136  1  0.58172617  0.24923162  0.40700913  1
  Te  Te137  1  0.57184179  0.21861615  0.73475070  1
  Te  Te138  1  0.55030220  0.59087349  0.09968594  1
  Te  Te139  1  0.55220898  0.60347308  0.43783089  1
  Te  Te140  1  0.59441944  0.56759611  0.76481301  1
  Te  Te141  1  0.55003899  0.93724192  0.10235914  1
  Te  Te142  1  0.57307516  0.92662612  0.43852249  1
  Te  Te143  1  0.59644761  0.91355916  0.74877115  1
  Te  Te144  1  0.90395002  0.24243429  0.08863498  1
  Te  Te145  1  0.90792822  0.26267602  0.39692612  1
  Te  Te146  1  0.91781456  0.25835123  0.75994052  1
  Te  Te147  1  0.90875242  0.60471129  0.07542853  1
  Te  Te148  1  0.92063417  0.59376281  0.40363543  1
  Te  Te149  1  0.93382820  0.58546116  0.74304015  1
  Te  Te150  1  0.92636863  0.92596106  0.07208722  1
  Te  Te151  1  0.92242662  0.91348679  0.40478900  1
  Te  Te152  1  0.95260081  0.92917407  0.74397060  1
  Te  Te153  1  0.27024914  0.09365636  0.23520294  1
  Te  Te154  1  0.26044438  0.07736967  0.59924285  1
  Te  Te155  1  0.27360490  0.04534644  0.93726075  1
  Te  Te156  1  0.24771868  0.41750523  0.26115097  1
  Te  Te157  1  0.26666440  0.42240598  0.60201192  1
  Te  Te158  1  0.28244359  0.47161156  0.90665472  1
  Te  Te159  1  0.23531469  0.72940850  0.28320797  1
  Te  Te160  1  0.28112287  0.73461635  0.61310646  1
  Te  Te161  1  0.24029063  0.74525641  0.92443859  1
  Te  Te162  1  0.56454434  0.08163866  0.26814196  1
  Te  Te163  1  0.53328764  0.05695423  0.56475360  1
  Te  Te164  1  0.55676463  0.10660518  0.94204813  1
  Te  Te165  1  0.56088669  0.41848818  0.24853868  1
  Te  Te166  1  0.57407617  0.43583928  0.59447822  1
  Te  Te167  1  0.55983291  0.38798320  0.89637517  1
  Te  Te168  1  0.54582737  0.78168026  0.26885017  1
  Te  Te169  1  0.57682896  0.75296657  0.60740536  1
  Te  Te170  1  0.55570824  0.75555288  0.94562912  1
  Te  Te171  1  0.91842802  0.07617724  0.26630587  1
  Te  Te172  1  0.93268022  0.08444240  0.58175502  1
  Te  Te173  1  0.92436128  0.09087136  0.92639115  1
  Te  Te174  1  0.89786810  0.41320228  0.22505847  1
  Te  Te175  1  0.92802569  0.41035544  0.58253973  1
  Te  Te176  1  0.91943718  0.42186901  0.93290181  1
  Te  Te177  1  0.90006399  0.75652539  0.23006303  1
  Te  Te178  1  0.91738386  0.75171305  0.57943592  1
  Te  Te179  1  0.90988408  0.76423933  0.90566593  1
