# generated using pymatgen
data_In2Te3
_symmetry_space_group_name_H-M   'P 1'
_cell_length_a   18.79773604
_cell_length_b   18.79694020
_cell_length_c   18.79664956
_cell_angle_alpha   89.98886206
_cell_angle_beta   89.98578083
_cell_angle_gamma   89.98667044
_symmetry_Int_Tables_number   1
_chemical_formula_structural   In2Te3
_chemical_formula_sum   'In72 Te108'
_cell_volume   6641.60614763
_cell_formula_units_Z   36
loop_
 _symmetry_equiv_pos_site_id
 _symmetry_equiv_pos_as_xyz
  1  'x, y, z'
loop_
 _atom_site_type_symbol
 _atom_site_label
 _atom_site_symmetry_multiplicity
 _atom_site_fract_x
 _atom_site_fract_y
 _atom_site_fract_z
 _atom_site_occupancy
  In  In0  1  0.84171078  0.81119795  0.67705422  1
  In  In1  1  0.85319214  0.15738395  -0.01215787  1
  In  In2  1  0.50784058  0.50560715  -0.02594054  1
  In  In3  1  0.15260130  0.54310394  0.30516008  1
  In  In4  1  0.30316620  0.54241684  0.15091547  1
  In  In5  1  0.16101675  0.00656158  0.84667235  1
  In  In6  1  0.31765748  0.18304203  0.18069797  1
  In  In7  1  0.01003763  -0.00924991  0.67924710  1
  In  In8  1  0.83111051  0.35617481  0.17608920  1
  In  In9  1  0.47840650  0.32269758  0.14918049  1
  In  In10  1  0.16482783  0.83623829  0.32408649  1
  In  In11  1  0.66219574  0.49373772  0.15997196  1
  In  In12  1  0.87522239  0.69074366  0.16934463  1
  In  In13  1  0.32361169  0.82056111  0.84024732  1
  In  In14  1  0.34194857  0.17342532  0.82628318  1
  In  In15  1  0.68639830  0.13659442  0.15919865  1
  In  In16  1  0.50067772  0.16193824  -0.01537398  1
  In  In17  1  0.33805796  0.32991660  0.32845817  1
  In  In18  1  0.65508501  0.16510327  0.83577915  1
  In  In19  1  0.01066055  0.16552178  0.16412744  1
  In  In20  1  0.67627575  0.32609209  0.68350286  1
  In  In21  1  0.49407799  0.32513810  0.50666747  1
  In  In22  1  0.47921160  0.49763325  0.30052438  1
  In  In23  1  0.66461918  0.36332342  -0.00159174  1
  In  In24  1  0.14729307  0.82814328  0.66372501  1
  In  In25  1  -0.00574017  0.82162876  0.84501719  1
  In  In26  1  0.49008707  0.82681716  0.34057022  1
  In  In27  1  0.50610205  -0.00021071  0.50340510  1
  In  In28  1  0.31004167  0.33819963  0.67334720  1
  In  In29  1  0.84516949  0.65306787  0.84351682  1
  In  In30  1  -0.01104535  0.48844422  0.51597488  1
  In  In31  1  0.30897617  0.33990121  -0.00720152  1
  In  In32  1  0.68313957  0.17194036  0.52238238  1
  In  In33  1  0.50966952  0.82162435  0.66021817  1
  In  In34  1  0.32749621  0.49365921  0.85144125  1
  In  In35  1  0.15966815  0.66113849  0.48132854  1
  In  In36  1  0.84789629  0.17544082  0.36174805  1
  In  In37  1  0.16935326  0.16943514  0.31341538  1
  In  In38  1  0.15216380  0.00249594  0.17113154  1
  In  In39  1  0.14788239  0.33757698  0.16090414  1
  In  In40  1  0.82486125  0.17879272  0.69219374  1
  In  In41  1  0.33039282  0.14482238  0.50719539  1
  In  In42  1  0.84692957  -0.03190372  0.15553897  1
  In  In43  1  0.66030807  0.80872090  0.50089933  1
  In  In44  1  0.33361359  -0.02262214  0.01404405  1
  In  In45  1  0.14495820  0.34625286  0.51038172  1
  In  In46  1  -0.01212858  -0.01198651  -0.00833205  1
  In  In47  1  0.83709335  0.34870782  0.81920535  1
  In  In48  1  0.83255361  0.66722038  0.51650576  1
  In  In49  1  0.34705894  0.00890772  0.66025937  1
  In  In50  1  0.00359359  0.50803115  0.82407131  1
  In  In51  1  0.66899566  0.65625559  -0.00689508  1
  In  In52  1  0.17667036  -0.00413992  0.51033071  1
  In  In53  1  0.85452486  0.51636167  0.31290878  1
  In  In54  1  0.65149674  0.67885642  0.32869763  1
  In  In55  1  0.49204998  0.67471303  0.49782904  1
  In  In56  1  0.01159213  -0.01954916  0.32582317  1
  In  In57  1  0.02903051  0.33459494  -0.02357358  1
  In  In58  1  0.32270386  0.80425507  0.16602836  1
  In  In59  1  0.51707088  0.51874372  0.69209793  1
  In  In60  1  0.68903771  0.84625209  0.86164423  1
  In  In61  1  0.00054723  0.18473454  0.51255898  1
  In  In62  1  0.67725237  0.83410553  0.17284542  1
  In  In63  1  0.15951427  0.68308404  0.85673406  1
  In  In64  1  0.84322856  -0.00174914  0.48313564  1
  In  In65  1  0.68176267  0.52752226  0.51810666  1
  In  In66  1  0.15438600  0.48649645  0.67388734  1
  In  In67  1  0.32466902  0.67085501  0.65344315  1
  In  In68  1  0.51186811  -0.01253176  0.16205499  1
  In  In69  1  0.48362458  0.83118842  -0.00058956  1
  In  In70  1  0.67955743  0.33404584  0.36845631  1
  In  In71  1  0.67478822  0.00692753  0.67096024  1
  Te  Te72  1  0.08834018  0.08660802  0.06170524  1
  Te  Te73  1  0.07937587  0.08768638  0.41579614  1
  Te  Te74  1  0.07658497  0.09379989  0.76144760  1
  Te  Te75  1  0.07312037  0.43340720  0.07837334  1
  Te  Te76  1  0.08849446  0.44083808  0.40668693  1
  Te  Te77  1  0.05954822  0.39543177  0.74237952  1
  Te  Te78  1  0.07654029  0.68755085  0.07752973  1
  Te  Te79  1  0.06792782  0.75418529  0.40677463  1
  Te  Te80  1  0.06444297  0.73074162  0.74470210  1
  Te  Te81  1  0.41142501  0.09302239  0.09021486  1
  Te  Te82  1  0.41368992  0.07086099  0.41223234  1
  Te  Te83  1  0.43260953  0.07969669  0.75637629  1
  Te  Te84  1  0.40252416  0.43373125  0.08175766  1
  Te  Te85  1  0.41513537  0.42344476  0.42030649  1
  Te  Te86  1  0.41440555  0.41933657  0.75000055  1
  Te  Te87  1  0.40585023  0.72687120  0.06879500  1
  Te  Te88  1  0.39388842  0.74039890  0.41156608  1
  Te  Te89  1  0.41885630  0.73856924  0.75252335  1
  Te  Te90  1  0.75628034  0.05235201  0.04947133  1
  Te  Te91  1  0.73739743  0.08132236  0.41119593  1
  Te  Te92  1  0.76225566  0.06997153  0.77820328  1
  Te  Te93  1  0.77377304  0.44709961  0.06713101  1
  Te  Te94  1  0.76712655  0.44417141  0.42101077  1
  Te  Te95  1  0.74567792  0.44047232  0.74628105  1
  Te  Te96  1  0.75908702  0.74220813  0.08286164  1
  Te  Te97  1  0.76239946  0.74924119  0.40418434  1
  Te  Te98  1  0.73940674  0.73874984  0.76178918  1
  Te  Te99  1  0.06215980  0.26568239  0.26770185  1
  Te  Te100  1  0.08465791  0.25661195  0.61087522  1
  Te  Te101  1  0.11939040  0.25721323  0.89141027  1
  Te  Te102  1  0.05324588  0.62766209  0.22648404  1
  Te  Te103  1  0.07803114  0.58790179  0.59007329  1
  Te  Te104  1  0.05225896  0.60659744  0.92916136  1
  Te  Te105  1  0.05977924  0.88984778  0.21283945  1
  Te  Te106  1  0.06285504  0.90848096  0.56313061  1
  Te  Te107  1  0.09903620  0.89455011  0.92807415  1
  Te  Te108  1  0.43655602  0.23210740  0.26512596  1
  Te  Te109  1  0.40448139  0.24328264  0.59856613  1
  Te  Te110  1  0.42373675  0.27325614  0.91609888  1
  Te  Te111  1  0.39621218  0.60670418  0.24818054  1
  Te  Te112  1  0.41955400  0.57255181  0.58558407  1
  Te  Te113  1  0.41206757  0.59827563  0.91173340  1
  Te  Te114  1  0.40807630  0.91003946  0.24128379  1
  Te  Te115  1  0.41232255  0.90072773  0.57340543  1
  Te  Te116  1  0.41817278  0.92608010  0.89763748  1
  Te  Te117  1  0.75302337  0.24958952  0.25583262  1
  Te  Te118  1  0.78206519  0.27697468  0.57299690  1
  Te  Te119  1  0.75224445  0.25684957  0.92348593  1
  Te  Te120  1  0.74658069  0.59726640  0.23674112  1
  Te  Te121  1  0.78699411  0.56511950  0.61847484  1
  Te  Te122  1  0.74992893  0.56191677  0.91330610  1
  Te  Te123  1  0.76314743  0.91303778  0.26297658  1
  Te  Te124  1  0.75050375  0.90770511  0.58151430  1
  Te  Te125  1  0.77101015  0.93457035  0.94548687  1
  Te  Te126  1  0.22638452  0.23927891  0.07394230  1
  Te  Te127  1  0.24387759  0.25109773  0.42190968  1
  Te  Te128  1  0.23324504  0.27185153  0.78390000  1
  Te  Te129  1  0.21378680  0.61293976  0.05645927  1
  Te  Te130  1  0.25482570  0.57520041  0.40721852  1
  Te  Te131  1  0.23897826  0.59101010  0.75403128  1
  Te  Te132  1  0.22815906  0.89783735  0.08680424  1
  Te  Te133  1  0.25308227  0.92211965  0.40893671  1
  Te  Te134  1  0.24544149  0.91485111  0.74392308  1
  Te  Te135  1  0.59731527  0.24834227  0.08491276  1
  Te  Te136  1  0.58001938  0.23185426  0.42200895  1
  Te  Te137  1  0.57050331  0.24648762  0.74636728  1
  Te  Te138  1  0.56806020  0.58750907  0.08888912  1
  Te  Te139  1  0.57880799  0.57013070  0.40738204  1
  Te  Te140  1  0.60158747  0.62668675  0.74128921  1
  Te  Te141  1  0.59741468  0.90991110  0.06517066  1
  Te  Te142  1  0.59394282  0.91308659  0.41190751  1
  Te  Te143  1  0.59205175  0.90888090  0.75290898  1
  Te  Te144  1  0.91648180  0.25724048  0.08547626  1
  Te  Te145  1  0.92491371  0.28524317  0.42785545  1
  Te  Te146  1  0.93363246  0.25628567  0.75519806  1
  Te  Te147  1  0.95148142  0.58882115  0.09268355  1
  Te  Te148  1  0.92844827  0.59265801  0.42126775  1
  Te  Te149  1  0.91038520  0.57865891  0.72962130  1
  Te  Te150  1  0.92257737  0.87522022  0.06569032  1
  Te  Te151  1  0.91747303  0.89863706  0.40538562  1
  Te  Te152  1  0.90666886  0.91825702  0.76456243  1
  Te  Te153  1  0.26155640  0.06259712  0.25875877  1
  Te  Te154  1  0.23005961  0.09660413  0.61218964  1
  Te  Te155  1  0.26514255  0.08371158  0.92633294  1
  Te  Te156  1  0.25158327  0.41910050  0.24043564  1
  Te  Te157  1  0.25506249  0.43511555  0.57043622  1
  Te  Te158  1  0.21517498  0.43440471  0.92755310  1
  Te  Te159  1  0.23225333  0.72377621  0.25238573  1
  Te  Te160  1  0.24344681  0.76385107  0.56484098  1
  Te  Te161  1  0.26308822  0.73870900  0.95113530  1
  Te  Te162  1  0.59160723  0.07375493  0.25118569  1
  Te  Te163  1  0.57458869  0.09710379  0.59983774  1
  Te  Te164  1  0.58564530  0.06333173  0.91806050  1
  Te  Te165  1  0.59014307  0.39816707  0.25442205  1
  Te  Te166  1  0.58984889  0.41858015  0.58117097  1
  Te  Te167  1  0.58918288  0.42063970  0.88581001  1
  Te  Te168  1  0.56241470  0.74937405  0.22904062  1
  Te  Te169  1  0.60588425  0.70677514  0.60347919  1
  Te  Te170  1  0.58036308  0.74963539  0.91147963  1
  Te  Te171  1  0.91223043  0.08405944  0.24836210  1
  Te  Te172  1  0.90694300  0.08405986  0.59205609  1
  Te  Te173  1  0.94708669  0.09244025  0.89378312  1
  Te  Te174  1  0.94515288  0.42669950  0.23742610  1
  Te  Te175  1  0.90749278  0.37551589  0.56588689  1
  Te  Te176  1  0.91820404  0.42468546  0.92303283  1
  Te  Te177  1  0.96431896  0.74371218  0.27745157  1
  Te  Te178  1  0.93463985  0.75460481  0.57907754  1
  Te  Te179  1  0.89838170  0.75634969  0.93833971  1
