# generated using pymatgen
data_In2Te3
_symmetry_space_group_name_H-M   'P 1'
_cell_length_a   18.97593934
_cell_length_b   18.94644105
_cell_length_c   18.98590143
_cell_angle_alpha   90.10889970
_cell_angle_beta   90.01567094
_cell_angle_gamma   90.25038745
_symmetry_Int_Tables_number   1
_chemical_formula_structural   In2Te3
_chemical_formula_sum   'In72 Te108'
_cell_volume   6825.85721376
_cell_formula_units_Z   36
loop_
 _symmetry_equiv_pos_site_id
 _symmetry_equiv_pos_as_xyz
  1  'x, y, z'
loop_
 _atom_site_type_symbol
 _atom_site_label
 _atom_site_symmetry_multiplicity
 _atom_site_fract_x
 _atom_site_fract_y
 _atom_site_fract_z
 _atom_site_occupancy
  In  In0  1  0.66320667  0.65415828  0.02004182  1
  In  In1  1  0.65494806  -0.00440234  -0.00176995  1
  In  In2  1  0.83294533  0.69968881  0.83754707  1
  In  In3  1  0.01368618  0.17961708  0.17238023  1
  In  In4  1  0.48988195  0.31755634  0.84014330  1
  In  In5  1  -0.00292881  0.69445166  0.33243963  1
  In  In6  1  0.85382074  0.14163285  0.00725781  1
  In  In7  1  0.50232695  0.31941412  0.15776652  1
  In  In8  1  0.64315542  0.48400505  0.84195770  1
  In  In9  1  0.34459934  0.48057517  0.16719280  1
  In  In10  1  0.16468242  0.64623781  0.48908050  1
  In  In11  1  0.35492851  0.86515373  0.16494792  1
  In  In12  1  0.01145996  0.32405635  0.00212428  1
  In  In13  1  0.66846182  0.00916406  0.66099889  1
  In  In14  1  0.49211224  0.00711610  0.51507069  1
  In  In15  1  0.17029645  0.01025457  0.15400974  1
  In  In16  1  0.67861176  0.71587186  0.34822030  1
  In  In17  1  0.02770875  0.87180262  0.81208980  1
  In  In18  1  0.82462389  0.84428468  0.00024137  1
  In  In19  1  0.34646747  0.66320370  0.70637493  1
  In  In20  1  0.17247281  0.30554638  0.48115779  1
  In  In21  1  0.17361576  0.65826334  0.16933290  1
  In  In22  1  0.00448087  0.14894391  0.50601662  1
  In  In23  1  0.47716130  0.67228827  0.49371352  1
  In  In24  1  0.34452555  0.02578600  0.70681142  1
  In  In25  1  0.67562900  0.50838127  0.17214912  1
  In  In26  1  0.83800052  0.50351675  0.00854313  1
  In  In27  1  0.82761059  0.49235835  0.32920794  1
  In  In28  1  0.65410397  0.32097474  0.34727923  1
  In  In29  1  0.01149861  0.66093768  0.02373166  1
  In  In30  1  0.46533984  0.86332470  -0.02746843  1
  In  In31  1  0.48218231  0.68368676  0.12887856  1
  In  In32  1  0.61954467  0.37300563  0.64104177  1
  In  In33  1  0.63445337  0.63559612  0.65361370  1
  In  In34  1  0.67080381  0.84696894  0.15709495  1
  In  In35  1  0.84082277  0.16409062  0.64335071  1
  In  In36  1  0.18546453  0.02750225  0.83230146  1
  In  In37  1  0.48600169  0.51593591  0.34382016  1
  In  In38  1  0.35746533  0.19454950  0.55431270  1
  In  In39  1  0.82779070  0.34478686  0.50572265  1
  In  In40  1  0.01774846  0.82549047  0.16111146  1
  In  In41  1  0.84414063  -0.01082448  0.17914527  1
  In  In42  1  0.18939561  0.18521513  0.68380108  1
  In  In43  1  0.65453050  0.15758796  0.83910615  1
  In  In44  1  0.32039175  0.83193822  0.48521558  1
  In  In45  1  -0.04662158  0.82674106  0.49226554  1
  In  In46  1  0.35896195  0.14834132  0.14093050  1
  In  In47  1  0.15105151  -0.01050736  0.50235082  1
  In  In48  1  0.01228136  0.48059220  0.15066526  1
  In  In49  1  0.47734565  0.46731920  -0.03345999  1
  In  In50  1  0.32315476  0.49277740  0.48944630  1
  In  In51  1  0.65160789  0.84878639  0.81812064  1
  In  In52  1  0.82430050  0.51584384  0.66835847  1
  In  In53  1  0.03669953  0.49888253  0.81870123  1
  In  In54  1  0.83433065  0.31365597  0.84632176  1
  In  In55  1  0.51407511  0.87891717  0.32248359  1
  In  In56  1  0.51497393  0.85034014  0.66033508  1
  In  In57  1  0.01518412  0.33616651  0.32904572  1
  In  In58  1  0.00820751  0.14959223  0.83520050  1
  In  In59  1  -0.02408338  0.49599262  0.50307336  1
  In  In60  1  0.20604247  0.46341970  -0.03243229  1
  In  In61  1  0.51113438  0.66009083  0.86029111  1
  In  In62  1  0.64879026  0.15697190  0.50309675  1
  In  In63  1  0.16470060  0.47685507  0.64966508  1
  In  In64  1  0.83615087  0.84180625  0.66722970  1
  In  In65  1  0.18250067  0.85241264  0.31496654  1
  In  In66  1  0.16861470  0.84023522  0.66554129  1
  In  In67  1  0.00174513  0.70445166  0.68195193  1
  In  In68  1  0.80934396  0.16695886  0.33741253  1
  In  In69  1  0.58403166  0.15467441  0.22659597  1
  In  In70  1  0.18712321  0.16142274  -0.00313311  1
  In  In71  1  0.19241011  0.48546620  0.31489381  1
  Te  Te72  1  0.07259196  0.08955329  0.06681938  1
  Te  Te73  1  0.08364344  0.07764053  0.40741516  1
  Te  Te74  1  0.08758919  0.07777304  0.72742684  1
  Te  Te75  1  0.11672937  0.39941472  0.08180403  1
  Te  Te76  1  0.09276629  0.43347157  0.42828939  1
  Te  Te77  1  0.09652537  0.38886091  0.74619286  1
  Te  Te78  1  0.12008479  0.75902856  0.06953184  1
  Te  Te79  1  0.10209733  0.76445188  0.41761698  1
  Te  Te80  1  0.10705766  0.74709631  0.77763660  1
  Te  Te81  1  0.47613397  0.08678524  0.07070337  1
  Te  Te82  1  0.41318594  0.10947228  0.44387812  1
  Te  Te83  1  0.40249078  0.14842477  0.76793705  1
  Te  Te84  1  0.39949775  0.38161525  0.06350546  1
  Te  Te85  1  0.40688490  0.40459209  0.40308299  1
  Te  Te86  1  0.40449631  0.40965089  0.76124107  1
  Te  Te87  1  0.38210981  0.76077573  0.04677480  1
  Te  Te88  1  0.42097786  0.77074791  0.39462434  1
  Te  Te89  1  0.44716830  0.76263682  0.76518637  1
  Te  Te90  1  0.74793470  0.07025576  0.09117068  1
  Te  Te91  1  0.75448552  0.07646439  0.43857832  1
  Te  Te92  1  0.75932916  0.09167002  0.74964571  1
  Te  Te93  1  0.74841274  0.41708923  0.08452430  1
  Te  Te94  1  0.72969555  0.42715550  0.42544547  1
  Te  Te95  1  0.75751609  0.41788052  0.76483066  1
  Te  Te96  1  0.76257975  0.74208940  0.09325370  1
  Te  Te97  1  0.78866734  0.78543094  0.41974281  1
  Te  Te98  1  0.71912509  0.73362885  0.74384911  1
  Te  Te99  1  0.10973765  0.25588967  0.25378884  1
  Te  Te100  1  0.08299686  0.24773156  0.58803096  1
  Te  Te101  1  0.09915670  0.24845239  0.90641399  1
  Te  Te102  1  0.07649816  0.57842899  0.25878413  1
  Te  Te103  1  0.06579636  0.59264060  0.59177892  1
  Te  Te104  1  0.09877560  0.57142039  0.93593812  1
  Te  Te105  1  0.07584802  0.93388974  0.25022871  1
  Te  Te106  1  0.05689767  0.89942213  0.58120053  1
  Te  Te107  1  0.11092198  0.93060411  0.91544198  1
  Te  Te108  1  0.44487988  0.21814287  0.25058688  1
  Te  Te109  1  0.42708394  0.31021876  0.62103936  1
  Te  Te110  1  0.39214968  0.22498583  0.90483787  1
  Te  Te111  1  0.41522387  0.59656292  0.23673312  1
  Te  Te112  1  0.40287770  0.57938251  0.58652693  1
  Te  Te113  1  0.39665542  0.58463116  0.92307280  1
  Te  Te114  1  0.41206812  0.96531086  0.25835865  1
  Te  Te115  1  0.39326398  0.91167787  0.59497214  1
  Te  Te116  1  0.39128126  0.95559102  0.88625089  1
  Te  Te117  1  0.71955824  0.23746828  0.24085390  1
  Te  Te118  1  0.73255659  0.26307463  0.58968029  1
  Te  Te119  1  0.74938142  0.22936945  0.93575225  1
  Te  Te120  1  0.74743908  0.60284305  0.26441981  1
  Te  Te121  1  0.73463699  0.57064973  0.56793181  1
  Te  Te122  1  0.74558669  0.58774939  0.90925649  1
  Te  Te123  1  0.73124850  0.93538835  0.25848309  1
  Te  Te124  1  0.73578650  0.90534331  0.58251295  1
  Te  Te125  1  0.75070804  0.92961960  0.89976111  1
  Te  Te126  1  0.27336349  0.25072620  0.07527492  1
  Te  Te127  1  0.27405545  0.21425601  0.43010221  1
  Te  Te128  1  0.27796918  0.23746545  0.79549774  1
  Te  Te129  1  0.25099252  0.56398775  0.08069476  1
  Te  Te130  1  0.26575257  0.59627231  0.39037088  1
  Te  Te131  1  0.23382528  0.56908954  0.74698243  1
  Te  Te132  1  0.26975297  0.93867310  0.06911819  1
  Te  Te133  1  0.26181858  0.94526220  0.40516377  1
  Te  Te134  1  0.26166391  0.90846019  0.76260405  1
  Te  Te135  1  0.57311524  0.20781977  0.08424372  1
  Te  Te136  1  0.55849899  0.24518361  0.42847205  1
  Te  Te137  1  0.60078015  0.26634983  0.74985101  1
  Te  Te138  1  0.55981045  0.55758533  0.07571819  1
  Te  Te139  1  0.58637184  0.60573496  0.41166319  1
  Te  Te140  1  0.54857148  0.55813703  0.75126000  1
  Te  Te141  1  0.55657795  0.91548519  0.08360059  1
  Te  Te142  1  0.58911305  0.92407165  0.44259816  1
  Te  Te143  1  0.56319312  0.95456829  0.76019508  1
  Te  Te144  1  0.91056911  0.25669502  0.09060806  1
  Te  Te145  1  0.91504849  0.25976226  0.41698417  1
  Te  Te146  1  0.92232150  0.24167009  0.74886332  1
  Te  Te147  1  0.91149651  0.58790081  0.11095669  1
  Te  Te148  1  0.90914448  0.59262983  0.41057963  1
  Te  Te149  1  0.92208796  0.59482533  0.76789803  1
  Te  Te150  1  0.93110598  0.92007298  0.07657681  1
  Te  Te151  1  0.89614418  0.88620289  0.37148607  1
  Te  Te152  1  0.90865545  0.93303170  0.75542355  1
  Te  Te153  1  0.25316770  0.10140860  0.23309871  1
  Te  Te154  1  0.24591790  0.07486442  0.59407687  1
  Te  Te155  1  0.28779379  0.05419908  0.94607672  1
  Te  Te156  1  0.28182813  0.38456269  0.26101272  1
  Te  Te157  1  0.26025708  0.38637536  0.58011175  1
  Te  Te158  1  0.28449512  0.39814696  0.85732306  1
  Te  Te159  1  0.26703052  0.75789805  0.23637022  1
  Te  Te160  1  0.24851632  0.73727815  0.58464509  1
  Te  Te161  1  0.28995678  0.67319733  0.84867687  1
  Te  Te162  1  0.57333911  0.02059886  0.29019988  1
  Te  Te163  1  0.55919487  0.10303149  0.61291015  1
  Te  Te164  1  0.55825820  0.08159113  0.92416909  1
  Te  Te165  1  0.57564649  0.42245798  0.25168027  1
  Te  Te166  1  0.51635446  0.40340088  0.54156033  1
  Te  Te167  1  0.59752379  0.38073329  0.93945359  1
  Te  Te168  1  0.57977509  0.74529095  0.22918487  1
  Te  Te169  1  0.58367065  0.75178549  0.56905023  1
  Te  Te170  1  0.59679501  0.76468486  0.93838949  1
  Te  Te171  1  0.91772045  0.09610838  0.25949666  1
  Te  Te172  1  0.89417371  0.06196902  0.55140198  1
  Te  Te173  1  0.91891266  0.05848146  0.90695154  1
  Te  Te174  1  0.91299923  0.40419255  0.24073573  1
  Te  Te175  1  0.91735472  0.40849158  0.61095329  1
  Te  Te176  1  0.93040861  0.42271846  0.91564796  1
  Te  Te177  1  0.90653032  0.77369085  0.24619148  1
  Te  Te178  1  0.88873870  0.72531848  0.58549304  1
  Te  Te179  1  0.93548793  0.75755824  0.93198272  1
