# generated using pymatgen
data_In2Te3
_symmetry_space_group_name_H-M   'P 1'
_cell_length_a   18.74651858
_cell_length_b   18.75103923
_cell_length_c   18.74382201
_cell_angle_alpha   89.98533048
_cell_angle_beta   90.01497503
_cell_angle_gamma   89.99176764
_symmetry_Int_Tables_number   1
_chemical_formula_structural   In2Te3
_chemical_formula_sum   'In72 Te108'
_cell_volume   6588.76604856
_cell_formula_units_Z   36
loop_
 _symmetry_equiv_pos_site_id
 _symmetry_equiv_pos_as_xyz
  1  'x, y, z'
loop_
 _atom_site_type_symbol
 _atom_site_label
 _atom_site_symmetry_multiplicity
 _atom_site_fract_x
 _atom_site_fract_y
 _atom_site_fract_z
 _atom_site_occupancy
  In  In0  1  0.67726643  0.51652460  0.83880668  1
  In  In1  1  0.51439168  0.50660449  0.33943055  1
  In  In2  1  0.80333252  0.32520118  0.17432160  1
  In  In3  1  0.17352596  0.52499852  0.67302481  1
  In  In4  1  0.00705010  0.50652821  0.16943682  1
  In  In5  1  0.50844361  0.14895056  0.65434396  1
  In  In6  1  0.64766138  0.82557287  0.19681282  1
  In  In7  1  0.80392102  0.49494001  0.33979413  1
  In  In8  1  0.49919828  0.33135752  0.19152139  1
  In  In9  1  0.83471443  0.83910670  0.66163067  1
  In  In10  1  0.14525990  -0.00891169  0.51879447  1
  In  In11  1  0.49319589  0.84435549  0.00438474  1
  In  In12  1  0.49623816  -0.01225690  0.16808125  1
  In  In13  1  -0.02063769  0.84162982  0.17903640  1
  In  In14  1  0.00267504  0.52799494  0.82663142  1
  In  In15  1  0.49765372  0.65773200  0.49367812  1
  In  In16  1  0.35402250  0.34404725  0.29543710  1
  In  In17  1  0.34778000  0.00123875  0.32916805  1
  In  In18  1  0.68739816  0.83188770  0.45301797  1
  In  In19  1  0.67830850  0.67129302  0.65031185  1
  In  In20  1  0.81325300  0.48620061  0.00424908  1
  In  In21  1  -0.01890224  0.12502395  0.19129945  1
  In  In22  1  0.83211821  0.31363361  0.83837315  1
  In  In23  1  0.33982384  0.15699707  0.84621438  1
  In  In24  1  0.12396321  0.12980370  0.67112000  1
  In  In25  1  -0.00380896  0.67848221  -0.02564158  1
  In  In26  1  0.68448499  0.33958055  0.01466733  1
  In  In27  1  0.15566928  0.34975946  0.16612972  1
  In  In28  1  -0.01721336  0.37613923  0.64879791  1
  In  In29  1  0.15248202  0.34476688  0.48645342  1
  In  In30  1  0.34288678  0.51719766  0.18583711  1
  In  In31  1  -0.00143210  -0.01204026  0.67773280  1
  In  In32  1  0.31093885  -0.03009589  0.68039644  1
  In  In33  1  -0.00262752  0.32859912  0.35742270  1
  In  In34  1  0.67509235  0.84324460  0.82929525  1
  In  In35  1  0.80117352  0.16379125  0.65592154  1
  In  In36  1  0.34384613  0.16814079  0.19086645  1
  In  In37  1  0.53840985  0.33309173  0.47879980  1
  In  In38  1  -0.03987026  0.85645738  0.48721839  1
  In  In39  1  0.35133172  0.15070686  0.48176466  1
  In  In40  1  0.33745878  -0.03104911  0.00892908  1
  In  In41  1  -0.01625961  0.50517321  0.51164529  1
  In  In42  1  0.66296117  0.64309315  0.01900048  1
  In  In43  1  0.35074315  0.35532882  0.02838836  1
  In  In44  1  0.34274763  0.51316762  0.82554033  1
  In  In45  1  0.34423838  0.69097855  0.00267212  1
  In  In46  1  0.16413709  0.83206345  0.31913510  1
  In  In47  1  0.17757432  0.14826900  0.33129959  1
  In  In48  1  0.65234526  0.33217848  0.65026939  1
  In  In49  1  0.17279788  0.66543538  0.50587756  1
  In  In50  1  0.68421886  0.16877039  0.16726554  1
  In  In51  1  0.82991847  0.66568685  0.19095488  1
  In  In52  1  0.82582481  0.14122248  -0.00121515  1
  In  In53  1  0.00840885  0.32877772  0.01913390  1
  In  In54  1  0.34026927  0.81953679  0.50444246  1
  In  In55  1  0.66393001  0.00078071  0.66338563  1
  In  In56  1  0.18690533  0.32640053  0.84374426  1
  In  In57  1  -0.02121947  0.13619966  0.82211970  1
  In  In58  1  0.15265249  0.14443993  0.01679698  1
  In  In59  1  0.19087245  0.68925824  0.16372697  1
  In  In60  1  0.51450795  0.33514024  0.81973476  1
  In  In61  1  0.54030365  0.12340783  -0.01560071  1
  In  In62  1  0.33536284  0.33798496  0.67535791  1
  In  In63  1  0.83673232  0.83553063  -0.01415034  1
  In  In64  1  -0.01981733  0.16111312  0.49100458  1
  In  In65  1  0.49587587  0.68017963  0.82112665  1
  In  In66  1  0.83791196  0.51945915  0.65729751  1
  In  In67  1  0.15714651  0.85123729  -0.01589509  1
  In  In68  1  0.48183160  0.82435265  0.66489195  1
  In  In69  1  -0.01227028  0.67906721  0.31910735  1
  In  In70  1  0.34998015  0.54099361  0.49214206  1
  In  In71  1  0.67624999  -0.00009063  0.34206479  1
  Te  Te72  1  0.06389508  0.05206481  0.09099669  1
  Te  Te73  1  0.07241544  0.06846135  0.40818917  1
  Te  Te74  1  0.10185917  0.03326807  0.79204704  1
  Te  Te75  1  0.09731083  0.44566778  0.06084793  1
  Te  Te76  1  0.07971531  0.44970592  0.40408507  1
  Te  Te77  1  0.09348242  0.41032577  0.75416077  1
  Te  Te78  1  0.06843572  0.75046382  0.09003513  1
  Te  Te79  1  0.07213603  0.75964355  0.42096494  1
  Te  Te80  1  0.12683344  0.78398184  0.71844507  1
  Te  Te81  1  0.41580470  0.09583822  0.07488734  1
  Te  Te82  1  0.45079469  0.05956828  0.42091561  1
  Te  Te83  1  0.41441362  0.06914665  0.74751032  1
  Te  Te84  1  0.45314037  0.45013546  0.09205090  1
  Te  Te85  1  0.40921633  0.41421684  0.42173983  1
  Te  Te86  1  0.43787065  0.43486862  0.73255347  1
  Te  Te87  1  0.44309420  0.74381187  0.10405436  1
  Te  Te88  1  0.43277353  0.75914869  0.40593654  1
  Te  Te89  1  0.38771387  0.76086153  0.76020374  1
  Te  Te90  1  0.75317893  0.05767989  0.09770108  1
  Te  Te91  1  0.78825123  0.07488472  0.41243216  1
  Te  Te92  1  0.75484697  0.06988173  0.76110546  1
  Te  Te93  1  0.72204757  0.44649115  0.12028355  1
  Te  Te94  1  0.75303497  0.40032199  0.44213201  1
  Te  Te95  1  0.75817595  0.41560898  0.74835682  1
  Te  Te96  1  0.75130574  0.75181353  0.08719391  1
  Te  Te97  1  0.77618479  0.73062051  0.39226049  1
  Te  Te98  1  0.76107485  0.74073605  0.75743870  1
  Te  Te99  1  0.07873299  0.24231234  0.24494098  1
  Te  Te100  1  0.07693359  0.25179694  0.58039332  1
  Te  Te101  1  0.07767580  0.23896230  0.91097747  1
  Te  Te102  1  0.09698206  0.59873974  0.25010554  1
  Te  Te103  1  0.06615807  0.60296655  0.59751240  1
  Te  Te104  1  0.10312226  0.60399932  0.90271526  1
  Te  Te105  1  0.07218922  0.92887717  0.25595101  1
  Te  Te106  1  0.07861886  0.87963600  0.59982344  1
  Te  Te107  1  0.06110358  0.92137516  0.89598716  1
  Te  Te108  1  0.44538810  0.22123085  0.28922497  1
  Te  Te109  1  0.42138155  0.25597576  0.57780868  1
  Te  Te110  1  0.41808822  0.26687362  0.91822251  1
  Te  Te111  1  0.43894008  0.60940810  0.25736498  1
  Te  Te112  1  0.41204322  0.61002829  0.60579272  1
  Te  Te113  1  0.43195144  0.58784389  0.92470874  1
  Te  Te114  1  0.40835348  0.89599704  0.24353666  1
  Te  Te115  1  0.41746597  0.93263650  0.57669569  1
  Te  Te116  1  0.41930951  0.91565419  0.89842311  1
  Te  Te117  1  0.71988853  0.26033125  0.28428542  1
  Te  Te118  1  0.73220358  0.24861323  0.55319437  1
  Te  Te119  1  0.73210140  0.23031774  0.91623537  1
  Te  Te120  1  0.72142801  0.59868760  0.26753114  1
  Te  Te121  1  0.74269418  0.57413414  0.55770648  1
  Te  Te122  1  0.77600709  0.60362341  0.91407346  1
  Te  Te123  1  0.75290822  0.92239022  0.23676097  1
  Te  Te124  1  0.74988419  0.91988226  0.56497490  1
  Te  Te125  1  0.74095722  0.94042431  0.92276977  1
  Te  Te126  1  0.24991072  0.25207783  0.08462051  1
  Te  Te127  1  0.25245736  0.25588020  0.40975527  1
  Te  Te128  1  0.24554410  0.22983055  0.73993932  1
  Te  Te129  1  0.25847970  0.58405244  0.07684539  1
  Te  Te130  1  0.25449601  0.60306032  0.39957995  1
  Te  Te131  1  0.24709213  0.61130897  0.76681456  1
  Te  Te132  1  0.24539730  0.89383962  0.09600768  1
  Te  Te133  1  0.24745423  0.92425550  0.42580448  1
  Te  Te134  1  0.22642440  0.88273284  0.77131440  1
  Te  Te135  1  0.57476782  0.24744237  0.07964009  1
  Te  Te136  1  0.61934273  0.23601380  0.40491739  1
  Te  Te137  1  0.59819884  0.22838991  0.75173082  1
  Te  Te138  1  0.57571115  0.55186477  0.09228125  1
  Te  Te139  1  0.60854742  0.58631343  0.42415370  1
  Te  Te140  1  0.58573564  0.58619190  0.73904065  1
  Te  Te141  1  0.60027391  0.92047896  0.08002952  1
  Te  Te142  1  0.57239966  0.90875181  0.40039134  1
  Te  Te143  1  0.56772191  0.91828989  0.75148869  1
  Te  Te144  1  0.91068917  0.24054224  0.09544146  1
  Te  Te145  1  0.89243515  0.23005894  0.39155653  1
  Te  Te146  1  0.92140161  0.24945866  0.73184840  1
  Te  Te147  1  0.91201748  0.58749888  0.07971817  1
  Te  Te148  1  0.90264975  0.59277338  0.41265578  1
  Te  Te149  1  0.92297995  0.61192082  0.73582160  1
  Te  Te150  1  0.91331968  0.92687686  0.07607086  1
  Te  Te151  1  0.89262437  0.95821396  0.40250217  1
  Te  Te152  1  0.91101037  0.90876818  0.77140488  1
  Te  Te153  1  0.24215718  0.06090076  0.22552559  1
  Te  Te154  1  0.25284256  0.08680729  0.58225424  1
  Te  Te155  1  0.24743290  0.06537830  0.92563551  1
  Te  Te156  1  0.23564237  0.43419486  0.26388137  1
  Te  Te157  1  0.24677285  0.42336323  0.58052580  1
  Te  Te158  1  0.26054708  0.42890461  0.92649715  1
  Te  Te159  1  0.27884677  0.75802162  0.26146521  1
  Te  Te160  1  0.24674752  0.75344460  0.60300014  1
  Te  Te161  1  0.24818206  0.75826022  0.90969312  1
  Te  Te162  1  0.58473205  0.08183852  0.24822657  1
  Te  Te163  1  0.60074551  0.08612229  0.55796688  1
  Te  Te164  1  0.62302203  0.04525290  0.89286589  1
  Te  Te165  1  0.59891470  0.40152691  0.27584516  1
  Te  Te166  1  0.57993106  0.43632594  0.57510604  1
  Te  Te167  1  0.59111781  0.42135821  0.92063371  1
  Te  Te168  1  0.54531900  0.72973073  0.24116190  1
  Te  Te169  1  0.59349190  0.77178371  0.57315936  1
  Te  Te170  1  0.59461798  0.74673114  0.92147552  1
  Te  Te171  1  0.87527588  0.05627791  0.27138552  1
  Te  Te172  1  0.90491688  0.07084426  0.58893020  1
  Te  Te173  1  0.92884914  0.05271394  0.93460190  1
  Te  Te174  1  0.91346193  0.41428198  0.24800241  1
  Te  Te175  1  0.87496809  0.39623882  0.53581859  1
  Te  Te176  1  0.92322586  0.41377499  0.91451905  1
  Te  Te177  1  0.87424894  0.78641422  0.28601880  1
  Te  Te178  1  0.91103973  0.74763316  0.57238884  1
  Te  Te179  1  0.93832492  0.78402257  0.88435269  1
