# generated using pymatgen
data_In2Te3
_symmetry_space_group_name_H-M   'P 1'
_cell_length_a   18.96658984
_cell_length_b   18.97527282
_cell_length_c   18.95234103
_cell_angle_alpha   90.02170536
_cell_angle_beta   89.95626398
_cell_angle_gamma   89.91966257
_symmetry_Int_Tables_number   1
_chemical_formula_structural   In2Te3
_chemical_formula_sum   'In72 Te108'
_cell_volume   6820.86664927
_cell_formula_units_Z   36
loop_
 _symmetry_equiv_pos_site_id
 _symmetry_equiv_pos_as_xyz
  1  'x, y, z'
loop_
 _atom_site_type_symbol
 _atom_site_label
 _atom_site_symmetry_multiplicity
 _atom_site_fract_x
 _atom_site_fract_y
 _atom_site_fract_z
 _atom_site_occupancy
  In  In0  1  0.65717168  0.34899029  0.31853776  1
  In  In1  1  0.02887328  0.48028879  0.52159995  1
  In  In2  1  0.04161042  -0.00168303  -0.02323665  1
  In  In3  1  0.49669389  0.01826588  0.17156048  1
  In  In4  1  0.01149769  0.49028438  0.17056084  1
  In  In5  1  0.36543249  0.87142567  0.54593076  1
  In  In6  1  0.82351445  0.50379364  0.00422522  1
  In  In7  1  0.86498660  0.71022334  0.53140650  1
  In  In8  1  0.84870975  0.84762579  0.67332255  1
  In  In9  1  0.00229852  0.83066476  0.52637836  1
  In  In10  1  0.82210037  0.16344927  0.66154052  1
  In  In11  1  0.47621219  0.65655159  0.83065110  1
  In  In12  1  0.86581790  0.16271146  0.32231855  1
  In  In13  1  0.17842245  0.82250169  -0.01632306  1
  In  In14  1  0.65372979  0.64245632  0.67323572  1
  In  In15  1  0.48501994  0.81214423  -0.02729706  1
  In  In16  1  -0.00517982  0.67801675  -0.03175963  1
  In  In17  1  0.18502008  0.67800266  0.16636423  1
  In  In18  1  0.47183552  0.51253418  0.32961282  1
  In  In19  1  0.16938963  0.16504639  0.33769932  1
  In  In20  1  0.04260579  0.87639741  0.16454219  1
  In  In21  1  0.50299250  0.66577543  0.14151821  1
  In  In22  1  0.84217327  0.51816845  0.34808614  1
  In  In23  1  0.00951556  0.32144556  0.02042725  1
  In  In24  1  0.85097760  0.02670742  0.18346245  1
  In  In25  1  0.83406642  0.35169741  0.14868595  1
  In  In26  1  0.82075067  0.18445546  0.00029552  1
  In  In27  1  0.81529474  0.84987637  0.00176087  1
  In  In28  1  0.02166882  0.14923675  0.81539132  1
  In  In29  1  0.61658713  0.33543847  -0.05629855  1
  In  In30  1  0.47320297  0.16765027  -0.02796108  1
  In  In31  1  0.31901818  0.70257911  0.35123922  1
  In  In32  1  0.34904468  0.31695390  0.32191068  1
  In  In33  1  0.35994272  0.36391609  -0.03574223  1
  In  In34  1  0.81679514  0.47950888  0.66740650  1
  In  In35  1  0.18415875  0.34406658  0.15500311  1
  In  In36  1  0.00170455  0.30681361  0.66455176  1
  In  In37  1  0.67303634  0.81016645  0.16226678  1
  In  In38  1  0.47248663  0.65503993  0.50276260  1
  In  In39  1  0.33250418  0.18993564  0.15018041  1
  In  In40  1  0.47472150  -0.00919224  0.83336265  1
  In  In41  1  0.17116021  0.67410820  0.52210557  1
  In  In42  1  0.02343902  0.31208297  0.36050748  1
  In  In43  1  0.33489869  0.00408780  0.35491491  1
  In  In44  1  0.66616950  0.65427251  0.31139669  1
  In  In45  1  0.00980825  0.49177480  0.85678282  1
  In  In46  1  0.83813784  0.70813842  0.13664596  1
  In  In47  1  0.83186743  0.65426673  0.82334674  1
  In  In48  1  0.66466271  -0.00619320  0.36465733  1
  In  In49  1  0.64973581  0.34496077  0.69081499  1
  In  In50  1  0.32158019  0.13086461  0.52342551  1
  In  In51  1  0.82229751  0.02004993  0.83154588  1
  In  In52  1  0.20383405  0.51572780  0.71280820  1
  In  In53  1  0.32780578  0.84985621  0.15764559  1
  In  In54  1  0.64630676  0.17442109  0.52237234  1
  In  In55  1  0.49071840  0.31658512  0.52849105  1
  In  In56  1  0.65162813  0.53901330  0.13298361  1
  In  In57  1  0.32799899  0.50602071  0.13128119  1
  In  In58  1  0.32020534  0.51539574  0.52911220  1
  In  In59  1  0.67173351  0.17420836  0.14276371  1
  In  In60  1  0.18730131  0.13910541  -0.05931895  1
  In  In61  1  0.82860492  0.84582885  0.34205895  1
  In  In62  1  0.46771995  0.16437904  0.32563980  1
  In  In63  1  0.48276459  0.15709144  0.66261944  1
  In  In64  1  0.67272976  0.47809168  0.50423045  1
  In  In65  1  0.17930877  0.82735517  0.68811432  1
  In  In66  1  0.20221048  0.31927274  0.80845799  1
  In  In67  1  0.64122177  -0.02700785  -0.01502850  1
  In  In68  1  0.83610817  0.01112176  0.52020689  1
  In  In69  1  0.01431061  0.66266168  0.33261369  1
  In  In70  1  0.65567725  0.80377021  0.51875384  1
  In  In71  1  0.03635597  0.14467184  0.51862452  1
  Te  Te72  1  0.12328584  0.08510586  0.06197387  1
  Te  Te73  1  0.10215682  0.05817818  0.41622590  1
  Te  Te74  1  0.11524843  0.06580290  0.73488168  1
  Te  Te75  1  0.10193068  0.43478699  0.06240924  1
  Te  Te76  1  0.10432903  0.42073721  0.41243374  1
  Te  Te77  1  0.08446742  0.40667356  0.75370352  1
  Te  Te78  1  0.06835075  0.74999352  0.08679364  1
  Te  Te79  1  0.08994640  0.75652315  0.42284256  1
  Te  Te80  1  0.08050914  0.73442735  0.75154606  1
  Te  Te81  1  0.40001549  0.07756775  0.07252256  1
  Te  Te82  1  0.44001284  0.07414598  0.44284324  1
  Te  Te83  1  0.38661172  0.08075912  0.74909907  1
  Te  Te84  1  0.43900100  0.44010410  0.06323832  1
  Te  Te85  1  0.41631102  0.41178220  0.42758974  1
  Te  Te86  1  0.44346867  0.33200812  0.78919134  1
  Te  Te87  1  0.39177878  0.74180538  0.07098573  1
  Te  Te88  1  0.42119491  0.77698994  0.43054071  1
  Te  Te89  1  0.37814313  0.76409579  0.78230512  1
  Te  Te90  1  0.74341241  0.06265688  0.06821505  1
  Te  Te91  1  0.75977371  0.09837066  0.42013682  1
  Te  Te92  1  0.72860395  0.07970129  0.73609693  1
  Te  Te93  1  0.71768986  0.41016733  0.07348804  1
  Te  Te94  1  0.76631583  0.40165980  0.41171345  1
  Te  Te95  1  0.75468576  0.40337026  0.77499681  1
  Te  Te96  1  0.72156015  0.73233911  0.04252182  1
  Te  Te97  1  0.75088733  0.73495599  0.41113591  1
  Te  Te98  1  0.75083259  0.74383282  0.73076012  1
  Te  Te99  1  0.09444261  0.25469304  0.23826238  1
  Te  Te100  1  0.10908454  0.26162018  0.57288252  1
  Te  Te101  1  0.09099158  0.25910879  0.90706597  1
  Te  Te102  1  0.10683889  0.57540593  0.25087520  1
  Te  Te103  1  0.10058267  0.57607804  0.61308022  1
  Te  Te104  1  0.08818892  0.61926585  0.86872993  1
  Te  Te105  1  0.07604868  0.95485070  0.28148574  1
  Te  Te106  1  0.10828711  0.91080964  0.58635581  1
  Te  Te107  1  0.08323627  0.89020183  0.88506911  1
  Te  Te108  1  0.44511410  0.26840613  0.21637376  1
  Te  Te109  1  0.37773352  0.25279844  0.60168703  1
  Te  Te110  1  0.37084569  0.23347853  0.88305447  1
  Te  Te111  1  0.39752298  0.61472844  0.24872093  1
  Te  Te112  1  0.41829709  0.57949330  0.61551115  1
  Te  Te113  1  0.36880920  0.55277876  0.85879775  1
  Te  Te114  1  0.41933505  0.92100271  0.25782006  1
  Te  Te115  1  0.41797727  0.93591972  0.67197526  1
  Te  Te116  1  0.39607577  0.92743777  0.94364097  1
  Te  Te117  1  0.75545065  0.24922193  0.24629761  1
  Te  Te118  1  0.73973197  0.26952253  0.58870907  1
  Te  Te119  1  0.73604083  0.25594723  0.90668730  1
  Te  Te120  1  0.77208871  0.58286645  0.22738009  1
  Te  Te121  1  0.75906926  0.58597768  0.57031481  1
  Te  Te122  1  0.74031584  0.57703226  0.90876079  1
  Te  Te123  1  0.74389964  0.92428018  0.24057029  1
  Te  Te124  1  0.74221960  0.91225736  0.58521874  1
  Te  Te125  1  0.73404896  0.90647552  0.88608784  1
  Te  Te126  1  0.25672278  0.26815864  0.04691723  1
  Te  Te127  1  0.26922197  0.23943316  0.42289354  1
  Te  Te128  1  0.19061917  0.19874892  0.71336173  1
  Te  Te129  1  0.24081185  0.59681124  0.05818168  1
  Te  Te130  1  0.24616157  0.58801147  0.41933413  1
  Te  Te131  1  0.28050512  0.63612251  0.76501374  1
  Te  Te132  1  0.22284345  0.92261901  0.08325627  1
  Te  Te133  1  0.26348619  0.91969586  0.45096000  1
  Te  Te134  1  0.21119271  0.92843678  0.79873981  1
  Te  Te135  1  0.56968363  0.24834025  0.06153474  1
  Te  Te136  1  0.57571955  0.25641187  0.41021374  1
  Te  Te137  1  0.56876192  0.23769226  0.75703649  1
  Te  Te138  1  0.55515771  0.58316252  0.03054463  1
  Te  Te139  1  0.58512634  0.57971122  0.42269731  1
  Te  Te140  1  0.57616377  0.56054159  0.76951085  1
  Te  Te141  1  0.56413117  0.89992141  0.09202759  1
  Te  Te142  1  0.58144088  0.89427656  0.42769305  1
  Te  Te143  1  0.53895217  0.88320497  0.75386242  1
  Te  Te144  1  0.92051044  0.23356354  0.10469597  1
  Te  Te145  1  0.92772135  0.23105719  0.44180070  1
  Te  Te146  1  0.91039162  0.23859616  0.76404145  1
  Te  Te147  1  0.93241159  0.58452305  0.07969239  1
  Te  Te148  1  0.93464915  0.59367296  0.44394100  1
  Te  Te149  1  0.91967693  0.55503259  0.74992852  1
  Te  Te150  1  0.91957153  0.92289920  0.08593635  1
  Te  Te151  1  0.92070388  0.92322197  0.43036109  1
  Te  Te152  1  0.92260921  0.94656079  0.75086826  1
  Te  Te153  1  0.26803682  0.09289943  0.24735344  1
  Te  Te154  1  0.22335892  0.07169759  0.61934332  1
  Te  Te155  1  0.27743999  0.03391897  0.89026772  1
  Te  Te156  1  0.26965221  0.42408464  0.24979321  1
  Te  Te157  1  0.25334329  0.41770762  0.61470581  1
  Te  Te158  1  0.25062616  0.43636528  0.89243170  1
  Te  Te159  1  0.23223374  0.78664282  0.26106918  1
  Te  Te160  1  0.27565113  0.75410521  0.59323323  1
  Te  Te161  1  0.27184738  0.74858778  0.88957621  1
  Te  Te162  1  0.59811445  0.09333840  0.25657342  1
  Te  Te163  1  0.57904880  0.06738057  0.59240722  1
  Te  Te164  1  0.58019344  0.08299084  0.90364363  1
  Te  Te165  1  0.57911609  0.45234122  0.24100713  1
  Te  Te166  1  0.56323303  0.43046776  0.59751210  1
  Te  Te167  1  0.53056030  0.42782810  0.86417372  1
  Te  Te168  1  0.56774564  0.75102985  0.25419122  1
  Te  Te169  1  0.55414108  0.73596874  0.60676194  1
  Te  Te170  1  0.57702963  0.76563797  0.86681563  1
  Te  Te171  1  0.96932225  0.07756160  0.25748041  1
  Te  Te172  1  0.93797122  0.07397537  0.61096830  1
  Te  Te173  1  0.92803356  0.09075241  0.93031380  1
  Te  Te174  1  0.92108846  0.41056936  0.26298993  1
  Te  Te175  1  0.91537122  0.39985660  0.57999364  1
  Te  Te176  1  0.91341356  0.40184545  0.93419502  1
  Te  Te177  1  0.91969797  0.75591562  0.25792346  1
  Te  Te178  1  0.96522777  0.73933100  0.64884265  1
  Te  Te179  1  0.89937980  0.77065703  0.90002827  1
