# generated using pymatgen
data_In2Te3
_symmetry_space_group_name_H-M   'P 1'
_cell_length_a   18.83329800
_cell_length_b   18.84824393
_cell_length_c   18.85067425
_cell_angle_alpha   89.98186181
_cell_angle_beta   89.87713906
_cell_angle_gamma   90.03146449
_symmetry_Int_Tables_number   1
_chemical_formula_structural   In2Te3
_chemical_formula_sum   'In72 Te108'
_cell_volume   6691.49372145
_cell_formula_units_Z   36
loop_
 _symmetry_equiv_pos_site_id
 _symmetry_equiv_pos_as_xyz
  1  'x, y, z'
loop_
 _atom_site_type_symbol
 _atom_site_label
 _atom_site_symmetry_multiplicity
 _atom_site_fract_x
 _atom_site_fract_y
 _atom_site_fract_z
 _atom_site_occupancy
  In  In0  1  -0.01883376  0.17359742  0.81914036  1
  In  In1  1  0.33618857  0.51411703  0.52367018  1
  In  In2  1  0.50115973  0.49327455  -0.03678760  1
  In  In3  1  0.66029580  0.52062108  0.53998876  1
  In  In4  1  0.84269705  0.62925990  0.83099120  1
  In  In5  1  -0.00092380  0.66670479  0.34227847  1
  In  In6  1  0.66259946  0.82855287  0.83005321  1
  In  In7  1  0.16469593  0.50840174  -0.00696115  1
  In  In8  1  0.52524517  0.32012287  0.12536369  1
  In  In9  1  -0.00252107  0.65469857  -0.00564925  1
  In  In10  1  0.67694678  0.32904365  0.35904621  1
  In  In11  1  0.33894962  0.33988487  -0.00093157  1
  In  In12  1  0.47468897  0.49623607  0.30969737  1
  In  In13  1  0.65217503  0.67744194  0.32124875  1
  In  In14  1  -0.00551482  0.20004527  0.16249408  1
  In  In15  1  0.33774215  0.83092349  0.15762759  1
  In  In16  1  0.81873323  0.01054024  0.81938560  1
  In  In17  1  0.51125348  0.82869861  0.30961026  1
  In  In18  1  0.18151077  0.65427994  0.84418020  1
  In  In19  1  0.17753812  0.66526448  0.15986695  1
  In  In20  1  -0.00178964  0.00487366  0.35431601  1
  In  In21  1  0.32826047  0.65593031  0.33528925  1
  In  In22  1  0.17703428  0.34847489  0.16370611  1
  In  In23  1  0.33524855  0.32955341  0.30565392  1
  In  In24  1  0.51624835  0.01691147  0.15002024  1
  In  In25  1  0.48906223  0.83460982  -0.01537314  1
  In  In26  1  0.18487041  0.16607753  0.31976051  1
  In  In27  1  0.13015695  0.36152781  0.49758907  1
  In  In28  1  0.79707201  0.65276341  0.50751473  1
  In  In29  1  0.36240920  0.16147772  0.85545313  1
  In  In30  1  0.30506743  0.83065898  0.49362175  1
  In  In31  1  0.52180669  0.32631899  0.49840167  1
  In  In32  1  -0.00989607  0.80487311  0.83648441  1
  In  In33  1  0.84447835  0.17075338  0.33608881  1
  In  In34  1  0.17406031  0.81440050  -0.03697684  1
  In  In35  1  -0.02508268  0.18384839  0.53037898  1
  In  In36  1  0.66197641  0.83580255  0.52121576  1
  In  In37  1  0.16894197  0.49469047  0.67478346  1
  In  In38  1  0.17902439  0.18140183  0.68011900  1
  In  In39  1  0.79845480  0.33456663  0.84497169  1
  In  In40  1  0.17481336  0.17269934  0.00257387  1
  In  In41  1  -0.03289772  0.01139751  -0.01017836  1
  In  In42  1  0.35260270  -0.00744242  0.01517890  1
  In  In43  1  0.16838161  0.00908117  0.18525367  1
  In  In44  1  0.81594101  0.15993991  0.67422339  1
  In  In45  1  0.65892745  0.51546590  0.16796692  1
  In  In46  1  0.15980461  -0.01546332  0.50046430  1
  In  In47  1  0.16890172  -0.01555408  0.80515579  1
  In  In48  1  0.49378663  0.80588033  0.69225612  1
  In  In49  1  0.80807435  -0.00136880  0.16841610  1
  In  In50  1  0.32513964  -0.02377282  0.66017763  1
  In  In51  1  0.68739572  0.18266779  0.51017653  1
  In  In52  1  0.81714061  0.49582614  -0.02107953  1
  In  In53  1  0.67623522  0.00774666  0.32411532  1
  In  In54  1  0.66513289  0.02538035  -0.00413161  1
  In  In55  1  0.35892167  0.18316926  0.49792913  1
  In  In56  1  0.15992600  0.34439246  0.83570549  1
  In  In57  1  0.85256532  0.85061753  0.31574514  1
  In  In58  1  0.01131387  0.82988083  0.51055455  1
  In  In59  1  0.52884491  0.19065020  0.70001359  1
  In  In60  1  0.48899164  0.47826079  0.74050174  1
  In  In61  1  0.83532303  0.84306943  0.66834186  1
  In  In62  1  -0.01063985  0.49676384  0.15980556  1
  In  In63  1  0.49347471  0.02373741  0.50533373  1
  In  In64  1  0.81354051  0.49641722  0.35259372  1
  In  In65  1  0.18037856  0.66471694  0.51027943  1
  In  In66  1  -0.01711790  0.64532922  0.69262642  1
  In  In67  1  -0.00362509  0.86203860  0.16742004  1
  In  In68  1  0.50883633  -0.01313819  0.83673480  1
  In  In69  1  0.68412239  0.68820552  0.01292983  1
  In  In70  1  0.81738682  0.34096478  0.15252051  1
  In  In71  1  0.50851308  0.65949762  0.51046355  1
  Te  Te72  1  0.07432078  0.08309967  0.08009816  1
  Te  Te73  1  0.08580523  0.10439007  0.42770906  1
  Te  Te74  1  0.07596587  0.08481963  0.73719660  1
  Te  Te75  1  0.07542469  0.41002529  0.06844201  1
  Te  Te76  1  0.05769920  0.43619368  0.39287691  1
  Te  Te77  1  0.06670185  0.41419787  0.74674263  1
  Te  Te78  1  0.07599551  0.75713319  0.07673465  1
  Te  Te79  1  0.10066983  0.75446651  0.41404376  1
  Te  Te80  1  0.09140455  0.73728502  0.74812497  1
  Te  Te81  1  0.43642257  0.10390174  0.05847014  1
  Te  Te82  1  0.40898424  0.08394053  0.40191449  1
  Te  Te83  1  0.41560810  0.07831541  0.73734548  1
  Te  Te84  1  0.42787032  0.43059987  0.08436147  1
  Te  Te85  1  0.41777219  0.41746124  0.42780312  1
  Te  Te86  1  0.39404986  0.36543914  0.73430248  1
  Te  Te87  1  0.40945589  0.73968451  0.06732485  1
  Te  Te88  1  0.42663061  0.74690139  0.41618126  1
  Te  Te89  1  0.44238653  0.71200951  0.79265680  1
  Te  Te90  1  0.74448653  0.10948196  0.09211705  1
  Te  Te91  1  0.76517323  0.07808849  0.42575817  1
  Te  Te92  1  0.71648949  0.10233782  0.76781463  1
  Te  Te93  1  0.71828471  0.41822621  0.06717775  1
  Te  Te94  1  0.74651897  0.41429305  0.46245697  1
  Te  Te95  1  0.71276153  0.43484721  0.76426300  1
  Te  Te96  1  0.77279039  0.78010309  0.08157564  1
  Te  Te97  1  0.75361023  0.76117721  0.41008645  1
  Te  Te98  1  0.76459933  0.74292338  0.75699943  1
  Te  Te99  1  0.08625928  0.26798520  0.26019354  1
  Te  Te100  1  0.07553884  0.26699638  0.61057663  1
  Te  Te101  1  0.07460034  0.24736971  0.91780515  1
  Te  Te102  1  0.08272765  0.58072730  0.24627347  1
  Te  Te103  1  0.07834235  0.58382595  0.58781095  1
  Te  Te104  1  0.06455087  0.56639699  0.89320266  1
  Te  Te105  1  0.09143000  0.91321240  0.27583110  1
  Te  Te106  1  0.09488300  0.90549848  0.60491989  1
  Te  Te107  1  0.06885788  0.92376319  0.91477703  1
  Te  Te108  1  0.44754033  0.26302637  0.23872198  1
  Te  Te109  1  0.42474870  0.26490409  0.60996020  1
  Te  Te110  1  0.44468616  0.27216798  0.91468124  1
  Te  Te111  1  0.42584857  0.61100944  0.23320727  1
  Te  Te112  1  0.43421965  0.58059075  0.61435052  1
  Te  Te113  1  0.42540662  0.56731269  0.85451303  1
  Te  Te114  1  0.42210405  0.92813275  0.23803450  1
  Te  Te115  1  0.43013443  0.90108064  0.57705767  1
  Te  Te116  1  0.39092831  0.90953964  0.89391450  1
  Te  Te117  1  0.74512086  0.24625543  0.25102164  1
  Te  Te118  1  0.76979047  0.27440781  0.58964558  1
  Te  Te119  1  0.69955314  0.25791966  0.92864151  1
  Te  Te120  1  0.75980910  0.59565638  0.24883999  1
  Te  Te121  1  0.77754129  0.56158628  0.62376994  1
  Te  Te122  1  0.71422899  0.57967163  0.90233835  1
  Te  Te123  1  0.72698248  0.89075346  0.23837337  1
  Te  Te124  1  0.74403380  0.93210282  0.59538161  1
  Te  Te125  1  0.74570208  0.92003982  0.91748093  1
  Te  Te126  1  0.26857952  0.24454921  0.09641518  1
  Te  Te127  1  0.25077735  0.26084739  0.42201824  1
  Te  Te128  1  0.27482427  0.25899905  0.76923644  1
  Te  Te129  1  0.26284325  0.58003053  0.07619143  1
  Te  Te130  1  0.23946136  0.56128521  0.41453201  1
  Te  Te131  1  0.26664274  0.57235984  0.75481142  1
  Te  Te132  1  0.23159496  0.91594273  0.07347333  1
  Te  Te133  1  0.26343017  0.93998365  0.40629570  1
  Te  Te134  1  0.25957241  0.88076886  0.75258529  1
  Te  Te135  1  0.62741872  0.22951593  0.06410987  1
  Te  Te136  1  0.57987479  0.22053673  0.40725276  1
  Te  Te137  1  0.61704363  0.28927346  0.77412677  1
  Te  Te138  1  0.57750392  0.58526257  0.06174128  1
  Te  Te139  1  0.58497304  0.56995054  0.40792081  1
  Te  Te140  1  0.61840558  0.55064257  0.76428042  1
  Te  Te141  1  0.58908249  0.91160932  0.06800078  1
  Te  Te142  1  0.58306461  0.91718803  0.41654749  1
  Te  Te143  1  0.59082334  0.91818243  0.72957083  1
  Te  Te144  1  0.90788477  0.26347635  0.06373654  1
  Te  Te145  1  0.91994085  0.26882871  0.41868121  1
  Te  Te146  1  0.89881567  0.27366205  0.74355038  1
  Te  Te147  1  0.89347661  0.58363393  0.08018245  1
  Te  Te148  1  0.91202530  0.58169855  0.43356260  1
  Te  Te149  1  0.90239704  0.52748826  0.73784360  1
  Te  Te150  1  0.88645747  0.90540154  0.06810999  1
  Te  Te151  1  0.90822215  0.91933800  0.44107619  1
  Te  Te152  1  0.92919450  0.92119946  0.75891626  1
  Te  Te153  1  0.27740117  0.09661491  0.22859291  1
  Te  Te154  1  0.25686029  0.09357637  0.58290357  1
  Te  Te155  1  0.24413731  0.07438183  0.90706593  1
  Te  Te156  1  0.25773283  0.43896684  0.24687222  1
  Te  Te157  1  0.25255247  0.40333300  0.58473660  1
  Te  Te158  1  0.26419858  0.43177460  0.90470643  1
  Te  Te159  1  0.24644770  0.75961828  0.25767719  1
  Te  Te160  1  0.27403151  0.73529641  0.59943292  1
  Te  Te161  1  0.28087942  0.71661783  0.93800113  1
  Te  Te162  1  0.59186235  0.09885782  0.24699688  1
  Te  Te163  1  0.59173039  0.09641084  0.59491986  1
  Te  Te164  1  0.56547482  0.09889737  0.91320790  1
  Te  Te165  1  0.59163753  0.40963735  0.25738574  1
  Te  Te166  1  0.56564941  0.42330627  0.60382898  1
  Te  Te167  1  0.56913347  0.37497163  0.89749205  1
  Te  Te168  1  0.57178370  0.73610397  0.21224081  1
  Te  Te169  1  0.60247624  0.72753186  0.60957567  1
  Te  Te170  1  0.57173525  0.73297098  0.90508887  1
  Te  Te171  1  0.92704942  0.07512457  0.23777797  1
  Te  Te172  1  0.91104604  0.07268695  0.59948203  1
  Te  Te173  1  0.88164197  0.11248654  0.91852457  1
  Te  Te174  1  0.90226412  0.41576804  0.25618495  1
  Te  Te175  1  0.97680721  0.39455086  0.51018242  1
  Te  Te176  1  0.91034642  0.40182876  0.91577771  1
  Te  Te177  1  0.92332555  0.74338096  0.23429802  1
  Te  Te178  1  0.91223546  0.73717856  0.58399181  1
  Te  Te179  1  0.88961071  0.74158107  0.92898349  1
