# generated using pymatgen
data_In2Te3
_symmetry_space_group_name_H-M   'P 1'
_cell_length_a   18.91978279
_cell_length_b   18.92060209
_cell_length_c   18.93226527
_cell_angle_alpha   90.45763223
_cell_angle_beta   89.92744276
_cell_angle_gamma   90.08549647
_symmetry_Int_Tables_number   1
_chemical_formula_structural   In2Te3
_chemical_formula_sum   'In72 Te108'
_cell_volume   6777.02364734
_cell_formula_units_Z   36
loop_
 _symmetry_equiv_pos_site_id
 _symmetry_equiv_pos_as_xyz
  1  'x, y, z'
loop_
 _atom_site_type_symbol
 _atom_site_label
 _atom_site_symmetry_multiplicity
 _atom_site_fract_x
 _atom_site_fract_y
 _atom_site_fract_z
 _atom_site_occupancy
  In  In0  1  0.48474830  0.85660025  0.66677974  1
  In  In1  1  0.84398373  0.00277567  0.85163319  1
  In  In2  1  0.49701368  0.33053608  0.84016088  1
  In  In3  1  0.00994232  0.66000137  -0.00791062  1
  In  In4  1  0.82030277  0.33262353  0.51661009  1
  In  In5  1  0.85042179  0.82752532  0.31447798  1
  In  In6  1  0.30463134  0.27953390  0.01952203  1
  In  In7  1  -0.01478004  0.17329976  0.84996470  1
  In  In8  1  0.69538779  0.67880640  0.32062892  1
  In  In9  1  0.85652797  0.00576420  0.16316845  1
  In  In10  1  0.65126271  0.83582636  0.50893119  1
  In  In11  1  0.33189149  0.82464232  0.15687185  1
  In  In12  1  0.12770258  0.48322411  0.00448748  1
  In  In13  1  0.49398348  0.33123741  0.50066540  1
  In  In14  1  -0.01221991  -0.00615005  0.67009684  1
  In  In15  1  0.68053234  0.00191636  0.02675764  1
  In  In16  1  0.49741405  -0.00814007  0.85077350  1
  In  In17  1  0.17800622  0.50096897  0.67114234  1
  In  In18  1  0.87603249  0.48425041  0.00579586  1
  In  In19  1  0.50898493  0.51084980  0.00621275  1
  In  In20  1  -0.01003281  0.83334658  0.47408460  1
  In  In21  1  0.31301313  0.17200676  0.50840143  1
  In  In22  1  0.29037321  0.32119893  0.68598752  1
  In  In23  1  0.86189555  0.84130347  0.00498066  1
  In  In24  1  0.30105756  0.52965568  0.44165264  1
  In  In25  1  0.52730493  0.67599966  0.85090611  1
  In  In26  1  0.49749642  0.17535794  0.32499407  1
  In  In27  1  0.71557902  0.19460057  0.86765347  1
  In  In28  1  0.62363283  0.49489853  0.50142440  1
  In  In29  1  0.50725135  0.34530184  0.16038692  1
  In  In30  1  0.01210666  0.32290628  0.32241427  1
  In  In31  1  0.15330977  0.32946483  0.51270744  1
  In  In32  1  0.31456252  0.33760457  0.29134940  1
  In  In33  1  0.50933670  0.15073426  0.01539861  1
  In  In34  1  0.32017823  -0.03280108  0.34331936  1
  In  In35  1  0.85236863  0.14782256  0.34285915  1
  In  In36  1  0.17515538  0.66772206  0.14846600  1
  In  In37  1  0.31214447  0.83229323  0.84316192  1
  In  In38  1  0.50424383  0.15249864  0.68958978  1
  In  In39  1  0.15086541  0.16378326  0.67829863  1
  In  In40  1  0.00973214  0.51489162  0.47746817  1
  In  In41  1  0.63809143  0.33886698  0.33091705  1
  In  In42  1  0.30957162  0.49004635  0.82952960  1
  In  In43  1  0.85716293  0.18259449  0.66552962  1
  In  In44  1  0.85110398  -0.02729966  0.47336120  1
  In  In45  1  0.33331302  0.69236590  -0.01119566  1
  In  In46  1  0.50189668  0.51080339  0.64827134  1
  In  In47  1  0.02740330  0.68444089  0.29989904  1
  In  In48  1  0.45262842  0.71209633  0.46368789  1
  In  In49  1  0.67690070  0.68124566  0.67183180  1
  In  In50  1  0.81686741  0.83193837  0.69406715  1
  In  In51  1  0.85072796  0.49075387  0.68947526  1
  In  In52  1  0.05147368  -0.01786512  -0.01532028  1
  In  In53  1  0.69568955  0.48376508  0.84996835  1
  In  In54  1  0.30485436  0.02373749  -0.01621053  1
  In  In55  1  0.14129192  0.14886469  0.31772561  1
  In  In56  1  0.14983096  0.32374174  0.81996178  1
  In  In57  1  0.84575560  0.65033298  0.51620476  1
  In  In58  1  0.81846901  0.49603317  0.30318519  1
  In  In59  1  0.33390278  0.51432769  0.16621493  1
  In  In60  1  0.18451612  0.83518664  0.67779591  1
  In  In61  1  0.85165749  0.33409466  0.16061781  1
  In  In62  1  0.33487333  0.65494453  0.66671278  1
  In  In63  1  0.64825582  0.00859906  0.68627846  1
  In  In64  1  0.50426819  0.51153001  0.32864338  1
  In  In65  1  0.66398196  0.67015953  0.01060210  1
  In  In66  1  0.15622287  -0.00723162  0.18571267  1
  In  In67  1  0.66181881  0.84406259  0.16635909  1
  In  In68  1  0.47806829  -0.03374023  0.48744633  1
  In  In69  1  0.67372495  0.16943499  0.18642842  1
  In  In70  1  0.01650164  0.66556226  0.68100008  1
  In  In71  1  0.15653285  0.01212708  0.47835154  1
  Te  Te72  1  0.10607468  0.08808211  0.07988274  1
  Te  Te73  1  0.06349819  0.11691192  0.43715524  1
  Te  Te74  1  0.07111230  0.07317061  0.76933275  1
  Te  Te75  1  0.04423554  0.36964795  0.04903234  1
  Te  Te76  1  0.10123577  0.41966601  0.40288233  1
  Te  Te77  1  0.07797285  0.43595880  0.75737274  1
  Te  Te78  1  0.09691943  0.76050033  0.06606654  1
  Te  Te79  1  0.08270397  0.72623124  0.43084335  1
  Te  Te80  1  0.08549780  0.76833059  0.76588468  1
  Te  Te81  1  0.40539153  0.07203313  0.08156022  1
  Te  Te82  1  0.40552178  0.09079908  0.41863830  1
  Te  Te83  1  0.41098786  0.05620067  0.74992609  1
  Te  Te84  1  0.40686046  0.40972917  0.06759775  1
  Te  Te85  1  0.41688477  0.40283794  0.39249517  1
  Te  Te86  1  0.41420517  0.41697332  0.74170724  1
  Te  Te87  1  0.43059861  0.73298423  0.09085733  1
  Te  Te88  1  0.37190278  0.78472269  0.36411726  1
  Te  Te89  1  0.42016239  0.74470107  0.75920483  1
  Te  Te90  1  0.77077970  0.10748342  0.08665617  1
  Te  Te91  1  0.75437887  0.06189372  0.41030559  1
  Te  Te92  1  0.76515139  0.08476124  0.75241938  1
  Te  Te93  1  0.76161251  0.41512191  0.07494709  1
  Te  Te94  1  0.73791339  0.42826302  0.41721020  1
  Te  Te95  1  0.75063015  0.39827515  0.74282645  1
  Te  Te96  1  0.76149022  0.76073396  0.08846526  1
  Te  Te97  1  0.76882097  0.76227284  0.43646495  1
  Te  Te98  1  0.75311314  0.73496819  0.78455521  1
  Te  Te99  1  0.10170192  0.25563092  0.22226886  1
  Te  Te100  1  0.06843885  0.26473218  0.61234039  1
  Te  Te101  1  0.08158370  0.25468294  0.93446960  1
  Te  Te102  1  0.10796209  0.57192187  0.24194181  1
  Te  Te103  1  0.09885253  0.59031436  0.57619291  1
  Te  Te104  1  0.07051037  0.56118455  0.89505016  1
  Te  Te105  1  0.10053399  0.90631367  0.29175023  1
  Te  Te106  1  0.07729823  0.91427642  0.57684172  1
  Te  Te107  1  0.11791601  0.88608833  0.89304513  1
  Te  Te108  1  0.41122806  0.24382379  0.22082969  1
  Te  Te109  1  0.41066404  0.24672800  0.60048992  1
  Te  Te110  1  0.41753808  0.23397928  0.92576093  1
  Te  Te111  1  0.40914864  0.59862316  0.25999533  1
  Te  Te112  1  0.40912438  0.58055073  0.54834611  1
  Te  Te113  1  0.41757036  0.57562640  0.90180700  1
  Te  Te114  1  0.41916334  0.90110904  0.25535014  1
  Te  Te115  1  0.38103771  0.88997170  0.56804311  1
  Te  Te116  1  0.40478716  0.90943937  0.93565028  1
  Te  Te117  1  0.75855427  0.26699860  0.27141705  1
  Te  Te118  1  0.74505467  0.22639381  0.58173827  1
  Te  Te119  1  0.79552378  0.29539491  0.95428203  1
  Te  Te120  1  0.76350182  0.59999902  0.21727336  1
  Te  Te121  1  0.73538404  0.57030350  0.58319068  1
  Te  Te122  1  0.76487366  0.57866174  0.94337273  1
  Te  Te123  1  0.75983685  0.92966683  0.25059434  1
  Te  Te124  1  0.74654186  0.92478923  0.59503566  1
  Te  Te125  1  0.74951392  0.91224515  0.92572841  1
  Te  Te126  1  0.20707111  0.20696824  0.10191443  1
  Te  Te127  1  0.24388470  0.25799397  0.40581153  1
  Te  Te128  1  0.25988964  0.20857115  0.78643752  1
  Te  Te129  1  0.25002501  0.57624292  0.04274144  1
  Te  Te130  1  0.21265101  0.61589200  0.36440281  1
  Te  Te131  1  0.23470910  0.60658511  0.77034311  1
  Te  Te132  1  0.24352086  0.92152798  0.08459152  1
  Te  Te133  1  0.20559830  0.88958466  0.40379262  1
  Te  Te134  1  0.26482478  0.93567153  0.75193835  1
  Te  Te135  1  0.60027039  0.25382109  0.08317552  1
  Te  Te136  1  0.59058868  0.23605472  0.43140090  1
  Te  Te137  1  0.59749750  0.23868454  0.77217122  1
  Te  Te138  1  0.55938086  0.61226901  0.10040439  1
  Te  Te139  1  0.58546334  0.61114008  0.41361500  1
  Te  Te140  1  0.59212464  0.56906355  0.75845685  1
  Te  Te141  1  0.57107979  0.94058453  0.10113534  1
  Te  Te142  1  0.57910738  0.90243135  0.40002567  1
  Te  Te143  1  0.59041847  0.89648974  0.76812103  1
  Te  Te144  1  0.92865439  0.26551641  0.05265144  1
  Te  Te145  1  0.91968485  0.25957552  0.42447299  1
  Te  Te146  1  0.91520505  0.27576036  0.76690502  1
  Te  Te147  1  0.93979376  0.58137530  0.09599248  1
  Te  Te148  1  0.91099241  0.59273327  0.39145800  1
  Te  Te149  1  0.90157656  0.61058461  0.75681570  1
  Te  Te150  1  0.95914404  0.91857249  0.09321728  1
  Te  Te151  1  0.95550216  0.93551900  0.36529777  1
  Te  Te152  1  0.92631679  0.90193448  0.77390204  1
  Te  Te153  1  0.26102747  0.07782453  0.25874500  1
  Te  Te154  1  0.23913691  0.07204856  0.59208659  1
  Te  Te155  1  0.22378590  0.12234320  0.91125130  1
  Te  Te156  1  0.22817334  0.42015976  0.20757724  1
  Te  Te157  1  0.26444261  0.42172415  0.57119569  1
  Te  Te158  1  0.24872234  0.39011413  0.92432905  1
  Te  Te159  1  0.25572460  0.73970085  0.25899218  1
  Te  Te160  1  0.25939136  0.74841154  0.58236018  1
  Te  Te161  1  0.21191253  0.77297866  0.94092005  1
  Te  Te162  1  0.57746545  0.07888295  0.24857733  1
  Te  Te163  1  0.56135503  0.06469567  0.57755964  1
  Te  Te164  1  0.60532610  0.08463189  0.91176990  1
  Te  Te165  1  0.59933261  0.44486479  0.22966919  1
  Te  Te166  1  0.58880025  0.39038837  0.60491825  1
  Te  Te167  1  0.59162194  0.40664074  0.93168249  1
  Te  Te168  1  0.59045763  0.77034894  0.27390192  1
  Te  Te169  1  0.56330651  0.74082975  0.58983867  1
  Te  Te170  1  0.58028082  0.77280179  0.94568733  1
  Te  Te171  1  0.93805858  0.10827928  0.23117957  1
  Te  Te172  1  0.91406504  0.07596486  0.56802907  1
  Te  Te173  1  0.93011609  0.07467196  0.95117344  1
  Te  Te174  1  0.94020653  0.42988062  0.24092018  1
  Te  Te175  1  0.92661184  0.42915073  0.57264128  1
  Te  Te176  1  0.89083710  0.38966047  0.88826211  1
  Te  Te177  1  0.92581465  0.74812080  0.21711372  1
  Te  Te178  1  0.91662104  0.76077424  0.59417859  1
  Te  Te179  1  0.91889367  0.74471986  0.91104094  1
