# generated using pymatgen
data_In2Te3
_symmetry_space_group_name_H-M   'P 1'
_cell_length_a   19.06044757
_cell_length_b   19.04571492
_cell_length_c   19.05726969
_cell_angle_alpha   89.90661612
_cell_angle_beta   89.96181123
_cell_angle_gamma   90.13344964
_symmetry_Int_Tables_number   1
_chemical_formula_structural   In2Te3
_chemical_formula_sum   'In72 Te108'
_cell_volume   6918.13768795
_cell_formula_units_Z   36
loop_
 _symmetry_equiv_pos_site_id
 _symmetry_equiv_pos_as_xyz
  1  'x, y, z'
loop_
 _atom_site_type_symbol
 _atom_site_label
 _atom_site_symmetry_multiplicity
 _atom_site_fract_x
 _atom_site_fract_y
 _atom_site_fract_z
 _atom_site_occupancy
  In  In0  1  0.32141947  0.48841863  0.49477427  1
  In  In1  1  0.15821070  0.50651247  0.31994837  1
  In  In2  1  -0.01138622  0.64903150  -0.00478255  1
  In  In3  1  0.19398423  0.68498010  0.13588075  1
  In  In4  1  0.15370666  0.35101170  0.12846003  1
  In  In5  1  0.81528555  0.48988390  0.32069364  1
  In  In6  1  0.49368678  0.33166826  0.82904645  1
  In  In7  1  0.50219025  0.32890446  0.50083566  1
  In  In8  1  0.64742806  -0.02063273  0.63783665  1
  In  In9  1  0.02619988  0.17490869  0.83728599  1
  In  In10  1  0.18592091  0.67676084  0.50471401  1
  In  In11  1  0.49785815  0.52402175  -0.02456128  1
  In  In12  1  0.17693497  -0.02008800  0.84171692  1
  In  In13  1  0.82749277  0.63328795  0.49255689  1
  In  In14  1  0.85271086  0.15113281  0.00795470  1
  In  In15  1  0.02457299  0.53935697  0.51069315  1
  In  In16  1  0.15807154  0.16694332  0.33959232  1
  In  In17  1  0.66412704  0.31709852  0.34110785  1
  In  In18  1  0.67228029  0.15195325  0.83082825  1
  In  In19  1  0.36832041  0.83731959  0.13382274  1
  In  In20  1  -0.01782620  0.31713688  0.35703705  1
  In  In21  1  -0.01236828  0.87127819  0.17053201  1
  In  In22  1  0.80900190  -0.04287697  0.51003957  1
  In  In23  1  0.51112656  0.66150795  0.15767257  1
  In  In24  1  0.35845753  0.16915294  0.48744304  1
  In  In25  1  0.63891336  0.67301003  0.35207468  1
  In  In26  1  0.82379268  0.35100284  0.81024153  1
  In  In27  1  0.16002255  0.17400543  0.64829380  1
  In  In28  1  0.17246763  0.81247622  0.31852281  1
  In  In29  1  -0.01452295  0.18518888  0.17714556  1
  In  In30  1  0.65236307  0.49044900  0.48939851  1
  In  In31  1  -0.00285921  0.51042359  0.16945575  1
  In  In32  1  0.15914485  0.36425680  0.84933927  1
  In  In33  1  0.82443224  0.85622755  0.33030783  1
  In  In34  1  0.81851563  0.52524808  0.68846309  1
  In  In35  1  0.50043394  0.16568295  0.00916531  1
  In  In36  1  0.18719170  0.20417947  -0.02222745  1
  In  In37  1  0.01468584  0.64373374  0.69294891  1
  In  In38  1  0.16035155  0.80643684  -0.01780414  1
  In  In39  1  0.50849462  0.17020650  0.66485585  1
  In  In40  1  0.17917242  0.01126828  0.50197879  1
  In  In41  1  0.51731047  0.81597888  0.64996867  1
  In  In42  1  0.63143177  -0.01945905  0.35066476  1
  In  In43  1  -0.02864976  -0.01023049  0.67349819  1
  In  In44  1  0.65425081  0.49453104  0.16137763  1
  In  In45  1  0.78270247  0.77389128  -0.02157563  1
  In  In46  1  0.68211013  -0.01957672  0.00919367  1
  In  In47  1  0.01403455  0.02202317  0.00775970  1
  In  In48  1  0.34632812  -0.01289384  0.35474827  1
  In  In49  1  0.48522151  0.34707792  0.18739538  1
  In  In50  1  0.31563787  0.31966568  0.32583009  1
  In  In51  1  0.38706980  0.83423491  0.80832865  1
  In  In52  1  -0.01828497  0.70375241  0.31239710  1
  In  In53  1  0.81709354  0.16464955  0.33858006  1
  In  In54  1  0.15584047  0.35043944  0.54221572  1
  In  In55  1  0.48505133  0.48503796  0.65497012  1
  In  In56  1  0.34210283  0.53570108  0.15509038  1
  In  In57  1  0.38689991  0.69423749  0.35908100  1
  In  In58  1  0.81212775  -0.01964704  0.81326092  1
  In  In59  1  0.52103355  0.00006685  0.15641913  1
  In  In60  1  0.65286226  0.58113424  0.83258412  1
  In  In61  1  0.32011160  0.64495515  -0.03659211  1
  In  In62  1  0.18214818  0.00380603  0.17494481  1
  In  In63  1  0.33102759  0.17205203  0.81654903  1
  In  In64  1  0.81997731  0.01517889  0.17661194  1
  In  In65  1  0.39020372  -0.00672371  0.66232139  1
  In  In66  1  -0.04146279  0.34269189  0.66528157  1
  In  In67  1  0.17638401  0.81245902  0.67441448  1
  In  In68  1  0.67446137  0.31623357  0.01292981  1
  In  In69  1  0.36505903  -0.02682526  -0.01105478  1
  In  In70  1  0.82698149  0.50853795  -0.01470374  1
  In  In71  1  -0.01808804  0.82200041  0.53882202  1
  Te  Te72  1  0.09888425  0.10620439  0.10011456  1
  Te  Te73  1  0.07823593  0.08822052  0.43189831  1
  Te  Te74  1  0.09954054  0.06979764  0.74813355  1
  Te  Te75  1  0.07232404  0.44953792  0.06053373  1
  Te  Te76  1  0.08601147  0.42391449  0.42310543  1
  Te  Te77  1  0.06451000  0.41235959  0.74315721  1
  Te  Te78  1  0.06807624  0.76490525  0.09767959  1
  Te  Te79  1  0.07568478  0.74729423  0.42884863  1
  Te  Te80  1  0.08978397  0.74427163  0.77240367  1
  Te  Te81  1  0.40640827  0.07679442  0.08868397  1
  Te  Te82  1  0.44390565  0.06475716  0.43294975  1
  Te  Te83  1  0.44298356  0.08329536  0.77194598  1
  Te  Te84  1  0.42623293  0.43736661  0.07991047  1
  Te  Te85  1  0.41073253  0.40515242  0.40760266  1
  Te  Te86  1  0.39744815  0.40925203  0.74951728  1
  Te  Te87  1  0.42006126  0.72315139  0.05276272  1
  Te  Te88  1  0.46248446  0.79354170  0.43924637  1
  Te  Te89  1  0.40307652  0.73373474  0.70236625  1
  Te  Te90  1  0.73478299  0.10056209  0.08647978  1
  Te  Te91  1  0.74190371  0.05905594  0.41915161  1
  Te  Te92  1  0.73889103  0.07451672  0.72253583  1
  Te  Te93  1  0.75927429  0.41606720  0.08707848  1
  Te  Te94  1  0.76020125  0.40432533  0.42995521  1
  Te  Te95  1  0.71896790  0.45340577  0.77593618  1
  Te  Te96  1  0.68765917  0.77394684  0.08959970  1
  Te  Te97  1  0.76440490  0.74033477  0.40954155  1
  Te  Te98  1  0.72280002  0.70590510  0.77919809  1
  Te  Te99  1  0.09356214  0.27474185  0.25402718  1
  Te  Te100  1  0.05141826  0.24967224  0.57986277  1
  Te  Te101  1  0.06127083  0.27243420  0.94244715  1
  Te  Te102  1  0.09487035  0.61668365  0.23895123  1
  Te  Te103  1  0.12951969  0.58451398  0.60847976  1
  Te  Te104  1  0.09900674  0.62762366  0.90027360  1
  Te  Te105  1  0.08921753  0.92759782  0.26731944  1
  Te  Te106  1  0.09220627  0.91226509  0.59386912  1
  Te  Te107  1  0.06817053  0.91112557  0.91944086  1
  Te  Te108  1  0.41996453  0.24066037  0.26403796  1
  Te  Te109  1  0.40662129  0.25880156  0.59776289  1
  Te  Te110  1  0.40745756  0.24833467  0.92291484  1
  Te  Te111  1  0.43340292  0.58439528  0.26415880  1
  Te  Te112  1  0.42720987  0.57612938  0.55073663  1
  Te  Te113  1  0.40255631  0.56549600  0.87124954  1
  Te  Te114  1  0.42701373  0.91626492  0.24673280  1
  Te  Te115  1  0.43113592  0.89969045  0.55603554  1
  Te  Te116  1  0.46384021  0.89613866  0.91664259  1
  Te  Te117  1  0.75497304  0.25624720  0.24536557  1
  Te  Te118  1  0.81194300  0.29856690  0.67094503  1
  Te  Te119  1  0.76599227  0.24285023  0.91052469  1
  Te  Te120  1  0.72795078  0.58991127  0.25371067  1
  Te  Te121  1  0.72144450  0.58503794  0.58676567  1
  Te  Te122  1  0.77205735  0.63183343  0.91858871  1
  Te  Te123  1  0.72377228  0.91990273  0.24117073  1
  Te  Te124  1  0.74911318  0.86741815  0.61338510  1
  Te  Te125  1  0.72222645  0.89249793  0.89489937  1
  Te  Te126  1  0.26339833  0.26853259  0.08246908  1
  Te  Te127  1  0.23622454  0.25720432  0.44156286  1
  Te  Te128  1  0.22500747  0.25689533  0.75554101  1
  Te  Te129  1  0.23133536  0.56375337  0.05588103  1
  Te  Te130  1  0.25545553  0.59450255  0.39691380  1
  Te  Te131  1  0.17779649  0.51714523  0.82496523  1
  Te  Te132  1  0.24104531  0.90748820  0.07433286  1
  Te  Te133  1  0.24353700  0.89862978  0.42149865  1
  Te  Te134  1  0.27303955  0.92470125  0.73977537  1
  Te  Te135  1  0.57602234  0.25216049  0.10661809  1
  Te  Te136  1  0.59408481  0.23411541  0.43976591  1
  Te  Te137  1  0.59891525  0.25581753  0.74996574  1
  Te  Te138  1  0.60479755  0.59264170  0.05776915  1
  Te  Te139  1  0.55449226  0.59208963  0.44475895  1
  Te  Te140  1  0.55380501  0.60386401  0.71955427  1
  Te  Te141  1  0.58482378  0.88683927  0.07728816  1
  Te  Te142  1  0.59785839  0.87070482  0.44703666  1
  Te  Te143  1  0.56448216  0.91975933  0.74331274  1
  Te  Te144  1  0.91053561  0.26305801  0.08069761  1
  Te  Te145  1  0.88951150  0.24359987  0.43996428  1
  Te  Te146  1  0.91994685  0.21034743  0.74234180  1
  Te  Te147  1  0.89250412  0.59064462  0.09696488  1
  Te  Te148  1  0.92864672  0.58155290  0.38419793  1
  Te  Te149  1  0.92727097  0.56306361  0.78143792  1
  Te  Te150  1  0.89951538  0.94123407  0.07125718  1
  Te  Te151  1  0.93009875  0.90652780  0.42532526  1
  Te  Te152  1  0.90014147  0.88537466  0.74479653  1
  Te  Te153  1  0.26456218  0.08588192  0.27016180  1
  Te  Te154  1  0.27674253  0.08260560  0.59378684  1
  Te  Te155  1  0.25614040  0.07647512  0.92678426  1
  Te  Te156  1  0.25740658  0.43163151  0.23539705  1
  Te  Te157  1  0.25748836  0.42679534  0.61132286  1
  Te  Te158  1  0.28713950  0.42986422  0.88692289  1
  Te  Te159  1  0.28575844  0.75127527  0.23909125  1
  Te  Te160  1  0.27969602  0.75670506  0.58443685  1
  Te  Te161  1  0.27275434  0.76907599  0.89249053  1
  Te  Te162  1  0.58564914  0.08282760  0.25647194  1
  Te  Te163  1  0.57502505  0.08668546  0.56398776  1
  Te  Te164  1  0.58966420  0.07414182  0.92975180  1
  Te  Te165  1  0.58090731  0.42556671  0.27369050  1
  Te  Te166  1  0.59560356  0.39974699  0.59609419  1
  Te  Te167  1  0.57962995  0.40105397  0.93226925  1
  Te  Te168  1  0.57969627  0.75576612  0.24569677  1
  Te  Te169  1  0.63381135  0.77481548  0.56439650  1
  Te  Te170  1  0.58031558  0.71374599  0.83130423  1
  Te  Te171  1  0.92502050  0.07914840  0.26238693  1
  Te  Te172  1  0.89270278  0.05947907  0.57477389  1
  Te  Te173  1  0.91664166  0.07114555  0.89694551  1
  Te  Te174  1  0.92105991  0.40773782  0.25137876  1
  Te  Te175  1  0.91657140  0.46722525  0.58035453  1
  Te  Te176  1  0.91517930  0.43539561  0.89118944  1
  Te  Te177  1  0.88546863  0.76892326  0.21930443  1
  Te  Te178  1  0.90926519  0.70826418  0.60009804  1
  Te  Te179  1  0.92030212  0.75981659  0.92828199  1
