# generated using pymatgen
data_In2Te3
_symmetry_space_group_name_H-M   'P 1'
_cell_length_a   18.74150046
_cell_length_b   18.75006448
_cell_length_c   18.74370311
_cell_angle_alpha   90.06736546
_cell_angle_beta   89.98995851
_cell_angle_gamma   89.92685033
_symmetry_Int_Tables_number   1
_chemical_formula_structural   In2Te3
_chemical_formula_sum   'In72 Te108'
_cell_volume   6586.60863417
_cell_formula_units_Z   36
loop_
 _symmetry_equiv_pos_site_id
 _symmetry_equiv_pos_as_xyz
  1  'x, y, z'
loop_
 _atom_site_type_symbol
 _atom_site_label
 _atom_site_symmetry_multiplicity
 _atom_site_fract_x
 _atom_site_fract_y
 _atom_site_fract_z
 _atom_site_occupancy
  In  In0  1  0.16548910  0.45047976  -0.01754729  1
  In  In1  1  0.47767691  -0.00871297  0.18431204  1
  In  In2  1  0.64696149  0.64725462  0.32835977  1
  In  In3  1  0.03927173  0.85547781  0.50121994  1
  In  In4  1  0.17360176  0.30644616  0.50179604  1
  In  In5  1  0.49452973  0.16308510  0.66531880  1
  In  In6  1  -0.01072362  0.64997426  0.02100313  1
  In  In7  1  0.64970982  0.02336472  0.65537352  1
  In  In8  1  0.31108969  0.31688240  0.68280284  1
  In  In9  1  0.83108940  0.33410029  0.14649546  1
  In  In10  1  0.19305276  0.15645507  0.33501514  1
  In  In11  1  0.63261532  0.00421435  0.33933273  1
  In  In12  1  0.33690798  0.65777291  0.01139869  1
  In  In13  1  0.84957610  0.02710329  0.52779155  1
  In  In14  1  0.51108093  0.65512602  0.49682926  1
  In  In15  1  0.00410942  0.82589907  0.83696374  1
  In  In16  1  -0.00567038  0.17647833  0.16733067  1
  In  In17  1  -0.00849460  0.65978698  0.68522204  1
  In  In18  1  0.81326856  0.66978407  0.52490040  1
  In  In19  1  0.19447889  0.48140264  0.31086264  1
  In  In20  1  0.16306415  0.67213778  0.52006374  1
  In  In21  1  0.18864091  0.68032276  0.19096966  1
  In  In22  1  0.83231665  0.83317397  0.67261374  1
  In  In23  1  0.65785365  0.00582411  0.01530047  1
  In  In24  1  0.81909818  0.49948832  0.32605520  1
  In  In25  1  0.49775558  0.51409203  0.66928809  1
  In  In26  1  0.01011826  0.01607263  -0.00332944  1
  In  In27  1  0.48681729  0.48246892  -0.00372343  1
  In  In28  1  0.19698358  0.00676719  0.17230058  1
  In  In29  1  0.49792938  0.66794147  0.16216115  1
  In  In30  1  0.46536364  0.02127437  0.83546572  1
  In  In31  1  0.32767872  0.85037102  0.81695917  1
  In  In32  1  0.86606221  -0.00400835  0.84853562  1
  In  In33  1  0.83276495  0.20674791  0.35248194  1
  In  In34  1  -0.01557440  0.83379465  0.19650309  1
  In  In35  1  0.67371506  0.34507033  0.69031428  1
  In  In36  1  0.67004158  0.64141083  -0.02966491  1
  In  In37  1  0.64101146  0.86343550  0.46563857  1
  In  In38  1  0.17172481  0.65815181  0.82028097  1
  In  In39  1  0.00815866  0.50047741  0.14167541  1
  In  In40  1  0.31543727  0.84262490  0.49971490  1
  In  In41  1  0.64972191  0.33706933  0.01033190  1
  In  In42  1  0.00302536  0.30492296  0.33729702  1
  In  In43  1  0.64046352  0.36302476  0.29447132  1
  In  In44  1  0.65682633  0.64325341  0.66518364  1
  In  In45  1  0.81631227  0.00425517  0.15485767  1
  In  In46  1  0.17554418  0.04903505  0.82037182  1
  In  In47  1  0.86363796  0.18058493  0.67369081  1
  In  In48  1  -0.00193684  0.48716663  0.81988104  1
  In  In49  1  -0.00096139  0.69207203  0.34394861  1
  In  In50  1  0.45351218  0.19408715  -0.00099622  1
  In  In51  1  0.66777835  0.17155749  0.82102045  1
  In  In52  1  0.85330138  0.35009243  0.48518754  1
  In  In53  1  0.03518685  0.33743434  0.66022781  1
  In  In54  1  0.81836575  0.81689947  -0.01018363  1
  In  In55  1  0.35262856  0.48318675  0.50198409  1
  In  In56  1  0.46496345  0.16233945  0.31995461  1
  In  In57  1  0.34991935  0.48783128  0.15297647  1
  In  In58  1  0.02026266  0.00396702  0.33488058  1
  In  In59  1  0.19863631  0.01571345  0.50598358  1
  In  In60  1  -0.00579584  0.48656094  0.51250780  1
  In  In61  1  0.85672315  0.81584210  0.32238064  1
  In  In62  1  0.64846473  0.83217540  0.16009991  1
  In  In63  1  0.83234288  0.35353195  0.83628107  1
  In  In64  1  0.65519557  0.16677534  0.50468652  1
  In  In65  1  0.31989960  0.49405259  0.83908141  1
  In  In66  1  0.63642792  0.81007077  0.82979845  1
  In  In67  1  0.18141979  0.85231511  0.02413535  1
  In  In68  1  0.85352768  0.14230938  -0.00269479  1
  In  In69  1  0.49363384  0.32672857  0.50089261  1
  In  In70  1  0.32749678  0.66931794  0.31557781  1
  In  In71  1  0.47491544  0.83582443  0.65676115  1
  Te  Te72  1  0.09936145  0.09516699  0.08922254  1
  Te  Te73  1  0.08678583  0.09904915  0.43023492  1
  Te  Te74  1  0.08000442  0.10579163  0.72117857  1
  Te  Te75  1  0.09883168  0.39098198  0.09981756  1
  Te  Te76  1  0.08863833  0.41517104  0.41284268  1
  Te  Te77  1  0.11186404  0.40968019  0.76471654  1
  Te  Te78  1  0.08216754  0.75321032  0.09185393  1
  Te  Te79  1  0.11845275  0.76539597  0.40494059  1
  Te  Te80  1  0.09611066  0.75967588  0.73395023  1
  Te  Te81  1  0.40335883  0.09199521  0.09785788  1
  Te  Te82  1  0.43687501  0.06190946  0.42349701  1
  Te  Te83  1  0.37974225  0.07996638  0.72594275  1
  Te  Te84  1  0.42823894  0.37495270  0.08602156  1
  Te  Te85  1  0.41381569  0.39867070  0.39594844  1
  Te  Te86  1  0.41306378  0.41238791  0.74554895  1
  Te  Te87  1  0.40041292  0.76086350  0.09799143  1
  Te  Te88  1  0.40956785  0.74145054  0.42332630  1
  Te  Te89  1  0.42027994  0.74835152  0.76140867  1
  Te  Te90  1  0.73410985  0.11568535  0.09007931  1
  Te  Te91  1  0.75227432  0.08062797  0.41467208  1
  Te  Te92  1  0.76767463  0.07685203  0.74939260  1
  Te  Te93  1  0.74405087  0.43166225  0.07693279  1
  Te  Te94  1  0.73357788  0.40886522  0.41506689  1
  Te  Te95  1  0.72001512  0.44772518  0.79212454  1
  Te  Te96  1  0.73734058  0.73300423  0.08448935  1
  Te  Te97  1  0.74602941  0.75050353  0.41322529  1
  Te  Te98  1  0.74912259  0.73839626  0.75547776  1
  Te  Te99  1  0.10735959  0.24804215  0.24227077  1
  Te  Te100  1  0.12117186  0.22030735  0.61470258  1
  Te  Te101  1  0.14428117  0.22282305  0.92154611  1
  Te  Te102  1  0.08157925  0.58310599  0.25949559  1
  Te  Te103  1  0.08507127  0.56892022  0.60371154  1
  Te  Te104  1  0.08865056  0.57936514  0.92383788  1
  Te  Te105  1  0.10518059  0.90940652  0.25256972  1
  Te  Te106  1  0.12508332  0.92282758  0.60092552  1
  Te  Te107  1  0.09857709  0.92288000  0.91140343  1
  Te  Te108  1  0.38673375  0.27490254  0.26294061  1
  Te  Te109  1  0.39350765  0.23885826  0.57501673  1
  Te  Te110  1  0.38277141  0.24170012  0.87664542  1
  Te  Te111  1  0.43295731  0.56247379  0.26406880  1
  Te  Te112  1  0.40115672  0.60076571  0.58829898  1
  Te  Te113  1  0.42130175  0.58959784  0.90559725  1
  Te  Te114  1  0.39134344  0.90365726  0.26926702  1
  Te  Te115  1  0.38498994  0.93850180  0.59657338  1
  Te  Te116  1  0.39886206  0.92474776  0.92553728  1
  Te  Te117  1  0.73986524  0.25559236  0.24177398  1
  Te  Te118  1  0.74875174  0.24984893  0.59343370  1
  Te  Te119  1  0.75894982  0.24444723  0.91926876  1
  Te  Te120  1  0.73646844  0.57785796  0.23315085  1
  Te  Te121  1  0.74586354  0.55474601  0.58564246  1
  Te  Te122  1  0.76347990  0.57207291  0.87866549  1
  Te  Te123  1  0.74150256  0.91416485  0.25342313  1
  Te  Te124  1  0.74585386  0.91811945  0.57743333  1
  Te  Te125  1  0.74261530  0.92470135  0.91033984  1
  Te  Te126  1  0.24935704  0.24126390  0.02426454  1
  Te  Te127  1  0.27866950  0.25490902  0.40989302  1
  Te  Te128  1  0.24976682  0.23037563  0.79088746  1
  Te  Te129  1  0.23473518  0.57052417  0.08662389  1
  Te  Te130  1  0.24732752  0.57681712  0.41971526  1
  Te  Te131  1  0.25610317  0.57573643  0.73234923  1
  Te  Te132  1  0.28499660  0.95262900  0.06227275  1
  Te  Te133  1  0.26171568  0.93620134  0.39520190  1
  Te  Te134  1  0.22617810  0.93012012  0.74111762  1
  Te  Te135  1  0.55077264  0.26208723  0.09470389  1
  Te  Te136  1  0.58366429  0.24982952  0.39884951  1
  Te  Te137  1  0.56250618  0.26286041  0.75889440  1
  Te  Te138  1  0.58125689  0.57105655  0.07843989  1
  Te  Te139  1  0.58867404  0.55215295  0.42563333  1
  Te  Te140  1  0.57511281  0.58614293  0.77408879  1
  Te  Te141  1  0.55421356  0.91061168  0.06964451  1
  Te  Te142  1  0.51626294  0.92636175  0.39991842  1
  Te  Te143  1  0.57506599  0.92934095  0.75398487  1
  Te  Te144  1  0.93330121  0.26086037  0.05689596  1
  Te  Te145  1  0.94226252  0.22965350  0.45718515  1
  Te  Te146  1  0.94248453  0.26965920  0.76681913  1
  Te  Te147  1  0.88936294  0.54664218  0.06267826  1
  Te  Te148  1  0.91551446  0.58480146  0.42388244  1
  Te  Te149  1  0.89334397  0.57696757  0.75880087  1
  Te  Te150  1  0.91591058  0.91071704  0.07410950  1
  Te  Te151  1  0.91795512  0.92249014  0.42296791  1
  Te  Te152  1  0.93983859  0.92220792  0.73576233  1
  Te  Te153  1  0.29449366  0.10040939  0.23832792  1
  Te  Te154  1  0.29055327  0.09084941  0.59555953  1
  Te  Te155  1  0.25653670  0.10837778  0.93367705  1
  Te  Te156  1  0.26911621  0.38008005  0.22862205  1
  Te  Te157  1  0.24351005  0.41561330  0.58477988  1
  Te  Te158  1  0.29588947  0.38383957  0.94312918  1
  Te  Te159  1  0.28858229  0.79157091  0.22907439  1
  Te  Te160  1  0.25815584  0.74916348  0.60151858  1
  Te  Te161  1  0.24342507  0.74901710  0.92475166  1
  Te  Te162  1  0.57773942  0.09739370  0.23348049  1
  Te  Te163  1  0.54518368  0.06715068  0.54888683  1
  Te  Te164  1  0.57685674  0.09790575  0.92050006  1
  Te  Te165  1  0.54882837  0.45792366  0.23071923  1
  Te  Te166  1  0.58355523  0.41536358  0.58775072  1
  Te  Te167  1  0.57688537  0.40862848  0.90250369  1
  Te  Te168  1  0.56460950  0.76052870  0.26596158  1
  Te  Te169  1  0.59320616  0.76371578  0.57996859  1
  Te  Te170  1  0.56953993  0.74833623  0.94444079  1
  Te  Te171  1  0.91000343  0.08081191  0.25251474  1
  Te  Te172  1  0.96057914  0.07872620  0.61421814  1
  Te  Te173  1  0.95779968  0.11146613  0.88823459  1
  Te  Te174  1  0.92304680  0.40681574  0.25505835  1
  Te  Te175  1  0.90309005  0.41593305  0.61189194  1
  Te  Te176  1  0.93088667  0.41386769  0.93105136  1
  Te  Te177  1  0.90225624  0.70674224  0.22351351  1
  Te  Te178  1  0.93259699  0.75645825  0.57159927  1
  Te  Te179  1  0.91300260  0.72785189  0.90908374  1
