# generated using pymatgen
data_In2Te3
_symmetry_space_group_name_H-M   'P 1'
_cell_length_a   18.84302912
_cell_length_b   18.83307672
_cell_length_c   18.84197286
_cell_angle_alpha   89.94279149
_cell_angle_beta   89.91252227
_cell_angle_gamma   90.08962848
_symmetry_Int_Tables_number   1
_chemical_formula_structural   In2Te3
_chemical_formula_sum   'In72 Te108'
_cell_volume   6686.47328148
_cell_formula_units_Z   36
loop_
 _symmetry_equiv_pos_site_id
 _symmetry_equiv_pos_as_xyz
  1  'x, y, z'
loop_
 _atom_site_type_symbol
 _atom_site_label
 _atom_site_symmetry_multiplicity
 _atom_site_fract_x
 _atom_site_fract_y
 _atom_site_fract_z
 _atom_site_occupancy
  In  In0  1  0.84780067  0.17307981  -0.01167697  1
  In  In1  1  -0.00152727  0.01296231  0.32093775  1
  In  In2  1  0.67622858  0.31432551  0.67227438  1
  In  In3  1  0.51963339  0.80547474  -0.02004938  1
  In  In4  1  0.16802834  0.48034393  0.68237053  1
  In  In5  1  0.16154643  0.85480948  0.70397746  1
  In  In6  1  0.83355194  0.65571464  0.53124940  1
  In  In7  1  0.32557598  0.34901636  0.33216922  1
  In  In8  1  0.66091964  0.14088242  0.81757952  1
  In  In9  1  0.00792645  0.34833960  -0.02489407  1
  In  In10  1  0.52213037  0.80053119  0.70719134  1
  In  In11  1  0.53476438  0.53562218  0.00371276  1
  In  In12  1  0.51711070  0.18319870  0.32976493  1
  In  In13  1  0.48244824  0.49882665  0.67684303  1
  In  In14  1  0.84737793  0.17712695  0.66855967  1
  In  In15  1  -0.01902401  0.80459276  0.51220732  1
  In  In16  1  0.33723651  -0.01443383  0.67470763  1
  In  In17  1  0.00375401  0.51054102  0.16682586  1
  In  In18  1  0.80434570  0.00048004  0.50889022  1
  In  In19  1  0.00126904  0.83488192  0.83854497  1
  In  In20  1  -0.00213620  0.00996664  0.67405141  1
  In  In21  1  0.50149664  0.15817534  0.64862208  1
  In  In22  1  0.35304553  0.65296894  0.32771495  1
  In  In23  1  0.84124604  0.49154183  0.35543161  1
  In  In24  1  0.18196681  0.19882892  0.69269802  1
  In  In25  1  0.32875512  0.83383064  0.13674531  1
  In  In26  1  0.66640526  0.66823710  0.32944616  1
  In  In27  1  0.46985409  0.19484564  -0.01470762  1
  In  In28  1  0.00834291  0.50356335  0.82606274  1
  In  In29  1  0.14501477  0.01259540  0.48507969  1
  In  In30  1  -0.01336541  0.01444120  0.00996626  1
  In  In31  1  0.83423472  -0.01610041  0.16940320  1
  In  In32  1  0.81969229  0.68927701  0.17079935  1
  In  In33  1  0.49747860  -0.02631582  0.83320478  1
  In  In34  1  -0.03602859  0.65279192  0.33255323  1
  In  In35  1  0.47408153  0.34959744  0.85116058  1
  In  In36  1  0.53969332  -0.00863832  0.51575546  1
  In  In37  1  0.68853423  0.15137021  0.17919577  1
  In  In38  1  0.32830425  0.15689845  0.15412814  1
  In  In39  1  0.17202760  0.49603634  0.34117064  1
  In  In40  1  0.16572865  0.17055226  0.31334228  1
  In  In41  1  0.82353001  0.85360600  0.32569750  1
  In  In42  1  0.33790138  0.64725764  -0.02092415  1
  In  In43  1  0.66251989  0.33247462  0.02882258  1
  In  In44  1  0.17980377  0.14305457  -0.01716223  1
  In  In45  1  -0.00029777  0.67061613  0.67567110  1
  In  In46  1  0.32993100  0.82253865  0.49666441  1
  In  In47  1  0.50732871  0.49979970  0.32412893  1
  In  In48  1  0.33851477  0.17355996  0.51463462  1
  In  In49  1  0.18401678  0.67700352  0.14281679  1
  In  In50  1  0.65874700  0.81546663  0.51790634  1
  In  In51  1  0.66522937  -0.03389854  -0.02041860  1
  In  In52  1  0.30513379  0.37490701  -0.02437382  1
  In  In53  1  0.68703489  0.51157261  0.51151347  1
  In  In54  1  0.16757085  0.65276681  0.51869382  1
  In  In55  1  0.16444497  0.33982568  0.18542079  1
  In  In56  1  0.49296335  0.01885415  0.14706302  1
  In  In57  1  0.82647986  0.35049183  0.15070928  1
  In  In58  1  0.01416447  0.65633346  -0.00391968  1
  In  In59  1  0.51229205  0.36497562  0.16250965  1
  In  In60  1  0.67892252  0.50968626  0.81222606  1
  In  In61  1  0.80859000  0.79969347  -0.02721646  1
  In  In62  1  0.14257017  0.84670233  0.31997097  1
  In  In63  1  0.33747350  0.03245818  0.32668660  1
  In  In64  1  0.83425855  0.34626333  0.84006776  1
  In  In65  1  0.12779565  0.35192595  0.53225883  1
  In  In66  1  0.50507826  0.82162580  0.32306826  1
  In  In67  1  0.34502045  0.66122094  0.69218768  1
  In  In68  1  0.17308780  0.82383065  -0.01438042  1
  In  In69  1  0.50707858  0.32045774  0.49639280  1
  In  In70  1  0.01043841  0.16136477  0.84843460  1
  In  In71  1  0.84273076  0.17592950  0.35199370  1
  Te  Te72  1  0.07218665  0.11322851  0.07778969  1
  Te  Te73  1  0.06176828  0.11622178  0.41447972  1
  Te  Te74  1  0.10319278  0.08022359  0.75775725  1
  Te  Te75  1  0.09188048  0.42379608  0.07901015  1
  Te  Te76  1  0.07310006  0.40513006  0.40118431  1
  Te  Te77  1  0.07397911  0.39105944  0.75612425  1
  Te  Te78  1  0.07283117  0.76283578  0.08697316  1
  Te  Te79  1  0.08527961  0.73864429  0.42030111  1
  Te  Te80  1  0.09819481  0.73426035  0.77193433  1
  Te  Te81  1  0.39359694  0.07375271  0.04561962  1
  Te  Te82  1  0.43328432  0.08273935  0.43465477  1
  Te  Te83  1  0.42074658  0.08575252  0.75405204  1
  Te  Te84  1  0.43283249  0.42436208  0.05085483  1
  Te  Te85  1  0.41953448  0.42258829  0.42478735  1
  Te  Te86  1  0.38082309  0.41534248  0.75357526  1
  Te  Te87  1  0.42082731  0.73252853  0.07711084  1
  Te  Te88  1  0.43484467  0.73641932  0.42846999  1
  Te  Te89  1  0.39168249  0.77663656  0.77445238  1
  Te  Te90  1  0.74833196  0.07691489  0.05969330  1
  Te  Te91  1  0.74974961  0.06869004  0.39089915  1
  Te  Te92  1  0.76837391  0.07538398  0.74397037  1
  Te  Te93  1  0.74201773  0.44588605  0.07652878  1
  Te  Te94  1  0.76163156  0.40262251  0.44440190  1
  Te  Te95  1  0.77198843  0.42204886  0.72352651  1
  Te  Te96  1  0.71402667  0.73704051  0.07488656  1
  Te  Te97  1  0.76945049  0.74276072  0.41964557  1
  Te  Te98  1  0.72996224  0.73317097  0.80429542  1
  Te  Te99  1  0.06391991  0.26363256  0.26097549  1
  Te  Te100  1  0.07730900  0.22036826  0.58996934  1
  Te  Te101  1  0.11180231  0.25953128  0.90773787  1
  Te  Te102  1  0.09115115  0.60311212  0.25438361  1
  Te  Te103  1  0.07021556  0.56476669  0.59100259  1
  Te  Te104  1  0.10778333  0.56371031  0.92456104  1
  Te  Te105  1  0.07019017  0.92893108  0.22312347  1
  Te  Te106  1  0.08246161  0.90667276  0.57741139  1
  Te  Te107  1  0.08100801  0.93160919  0.92288411  1
  Te  Te108  1  0.41035500  0.25231843  0.24607056  1
  Te  Te109  1  0.40950740  0.27277009  0.60366718  1
  Te  Te110  1  0.35906671  0.24853808  0.89403061  1
  Te  Te111  1  0.42365762  0.57330832  0.22721448  1
  Te  Te112  1  0.41405028  0.59133258  0.58368184  1
  Te  Te113  1  0.44053095  0.57773802  0.89347781  1
  Te  Te114  1  0.41113184  0.92281029  0.24733315  1
  Te  Te115  1  0.42852075  0.90599994  0.58048516  1
  Te  Te116  1  0.41636061  0.89878540  0.93060995  1
  Te  Te117  1  0.75291923  0.26439868  0.25354310  1
  Te  Te118  1  0.76312836  0.25049055  0.56876937  1
  Te  Te119  1  0.73857542  0.24893482  0.91328499  1
  Te  Te120  1  0.76081962  0.57450135  0.25571167  1
  Te  Te121  1  0.72333975  0.60716849  0.61923371  1
  Te  Te122  1  0.73213428  0.61707319  0.90441022  1
  Te  Te123  1  0.72722634  0.89938407  0.22528958  1
  Te  Te124  1  0.74239918  0.90395610  0.60134604  1
  Te  Te125  1  0.73912151  0.89084992  0.87484026  1
  Te  Te126  1  0.25557085  0.26940647  0.08266551  1
  Te  Te127  1  0.24885381  0.24820583  0.41706192  1
  Te  Te128  1  0.28065446  0.28724064  0.75531495  1
  Te  Te129  1  0.25450350  0.56927755  0.07451780  1
  Te  Te130  1  0.26554878  0.57712582  0.43068775  1
  Te  Te131  1  0.24904468  0.57464431  0.76995645  1
  Te  Te132  1  0.23252408  0.92519707  0.07677223  1
  Te  Te133  1  0.25422306  0.92674966  0.41181775  1
  Te  Te134  1  0.25299338  0.93670280  0.79136332  1
  Te  Te135  1  0.57328622  0.22804105  0.09796047  1
  Te  Te136  1  0.60766495  0.23620091  0.43130365  1
  Te  Te137  1  0.56783184  0.25354740  0.76545139  1
  Te  Te138  1  0.61181572  0.61768201  0.09925093  1
  Te  Te139  1  0.58469767  0.58452209  0.42670810  1
  Te  Te140  1  0.55012138  0.58809009  0.78028874  1
  Te  Te141  1  0.57552601  0.90673927  0.08741625  1
  Te  Te142  1  0.60227969  0.90445273  0.40680607  1
  Te  Te143  1  0.59627212  0.92464754  0.73576691  1
  Te  Te144  1  0.92935190  0.26354380  0.07680066  1
  Te  Te145  1  0.89192248  0.27824037  0.45126223  1
  Te  Te146  1  0.93410324  0.26254684  0.76124822  1
  Te  Te147  1  0.90642168  0.59416820  0.08543389  1
  Te  Te148  1  0.93079058  0.56656490  0.45426749  1
  Te  Te149  1  0.90979558  0.57207093  0.73987662  1
  Te  Te150  1  0.89459548  0.90187450  0.05762629  1
  Te  Te151  1  0.92691912  0.91604723  0.42249290  1
  Te  Te152  1  0.91573589  0.90865061  0.74261831  1
  Te  Te153  1  0.22874668  0.06435483  0.22483128  1
  Te  Te154  1  0.24544145  0.07491812  0.58590473  1
  Te  Te155  1  0.24750064  0.06774987  0.87860466  1
  Te  Te156  1  0.26689448  0.44579744  0.23157139  1
  Te  Te157  1  0.25025790  0.42476345  0.57355349  1
  Te  Te158  1  0.22634158  0.46398801  0.88601846  1
  Te  Te159  1  0.25628180  0.75869537  0.26238904  1
  Te  Te160  1  0.23816400  0.76034692  0.60257557  1
  Te  Te161  1  0.26165490  0.74525780  0.89621357  1
  Te  Te162  1  0.58620623  0.06847069  0.25767151  1
  Te  Te163  1  0.61801390  0.09376829  0.58645522  1
  Te  Te164  1  0.57171747  0.08609689  0.92963625  1
  Te  Te165  1  0.60715328  0.40892459  0.26342157  1
  Te  Te166  1  0.58567986  0.41611139  0.59693544  1
  Te  Te167  1  0.60006129  0.41541248  0.91065622  1
  Te  Te168  1  0.56667401  0.72086772  0.23125745  1
  Te  Te169  1  0.58550073  0.71744283  0.60181769  1
  Te  Te170  1  0.60112062  0.71922438  0.88430211  1
  Te  Te171  1  0.90832282  0.09901942  0.23325490  1
  Te  Te172  1  0.91839987  0.08302683  0.56749176  1
  Te  Te173  1  0.89872356  0.06654718  0.89315888  1
  Te  Te174  1  0.92286407  0.41410760  0.25235723  1
  Te  Te175  1  0.97596666  0.35355598  0.55430181  1
  Te  Te176  1  0.90013405  0.44582825  0.93121631  1
  Te  Te177  1  0.92560276  0.77083033  0.24531490  1
  Te  Te178  1  0.88821283  0.76505718  0.62590252  1
  Te  Te179  1  0.91802097  0.72177731  0.89826828  1
