# generated using pymatgen
data_In2Te3
_symmetry_space_group_name_H-M   'P 1'
_cell_length_a   18.85701484
_cell_length_b   18.84673947
_cell_length_c   18.86565072
_cell_angle_alpha   90.02747054
_cell_angle_beta   89.97992641
_cell_angle_gamma   90.03364182
_symmetry_Int_Tables_number   1
_chemical_formula_structural   In2Te3
_chemical_formula_sum   'In72 Te108'
_cell_volume   6704.72250659
_cell_formula_units_Z   36
loop_
 _symmetry_equiv_pos_site_id
 _symmetry_equiv_pos_as_xyz
  1  'x, y, z'
loop_
 _atom_site_type_symbol
 _atom_site_label
 _atom_site_symmetry_multiplicity
 _atom_site_fract_x
 _atom_site_fract_y
 _atom_site_fract_z
 _atom_site_occupancy
  In  In0  1  0.50121518  0.15635264  0.63141634  1
  In  In1  1  0.32988610  0.66354338  0.34930990  1
  In  In2  1  0.65831172  0.83568459  0.48758830  1
  In  In3  1  0.30927290  0.16916045  0.81990107  1
  In  In4  1  0.84331631  0.35109700  0.50419051  1
  In  In5  1  0.47482477  0.16551853  0.00674057  1
  In  In6  1  0.02284465  0.81582815  0.80157446  1
  In  In7  1  0.68574191  0.18341410  0.83786729  1
  In  In8  1  0.49257780  0.35034792  0.19336036  1
  In  In9  1  0.35633785  0.00448219  0.33559858  1
  In  In10  1  0.31529610  0.80157865  0.84138865  1
  In  In11  1  -0.02890391  -0.00666501  0.33854472  1
  In  In12  1  0.86945251  0.48854099  -0.02009368  1
  In  In13  1  0.67583837  0.34037437  0.00592661  1
  In  In14  1  0.51753332  0.49731347  0.65759400  1
  In  In15  1  0.00195758  0.32710453  0.65183133  1
  In  In16  1  0.84102894  0.62795703  0.47858523  1
  In  In17  1  0.19024424  0.84502364  -0.02991616  1
  In  In18  1  0.65321553  0.15540443  0.47536714  1
  In  In19  1  0.52043267  -0.00199791  0.84081826  1
  In  In20  1  0.82319752  -0.00713203  0.83628499  1
  In  In21  1  0.69512410  0.48826115  0.83445373  1
  In  In22  1  0.83136404  0.82645968  0.33093042  1
  In  In23  1  0.69371835  0.34661922  0.67000501  1
  In  In24  1  0.49824321  0.66852576  0.17538519  1
  In  In25  1  0.02008644  0.18354725  0.83703999  1
  In  In26  1  -0.00645470  0.20565937  0.18445136  1
  In  In27  1  0.16201575  0.67664194  0.83225339  1
  In  In28  1  0.82134477  -0.00337823  0.49104155  1
  In  In29  1  0.18259484  0.32713290  0.17595984  1
  In  In30  1  0.81485501  0.33076079  0.18175806  1
  In  In31  1  0.16372320  0.01065629  0.14770632  1
  In  In32  1  -0.02071884  0.48557065  0.15628904  1
  In  In33  1  0.49387800  0.83125154  0.34187384  1
  In  In34  1  -0.00667334  0.81827188  0.19058538  1
  In  In35  1  0.66808133  0.67775330  0.01472723  1
  In  In36  1  0.16850451  0.17685051  0.32807191  1
  In  In37  1  0.30095411  0.64898305  0.63726657  1
  In  In38  1  0.65547994  0.84062206  0.17370280  1
  In  In39  1  0.66148039  0.16667969  0.17804412  1
  In  In40  1  0.18390610  0.66769978  0.15458859  1
  In  In41  1  0.16308597  0.01334279  0.82087010  1
  In  In42  1  0.49636826  0.16591471  0.32883548  1
  In  In43  1  0.33693644  0.00884566  -0.00882947  1
  In  In44  1  0.33392992  0.49353950  0.48501842  1
  In  In45  1  0.51202868  0.83357456  0.02339902  1
  In  In46  1  0.48737787  0.63851770  0.82797676  1
  In  In47  1  0.32861080  0.31053222  0.66575892  1
  In  In48  1  0.51450038  0.50480639  0.34119181  1
  In  In49  1  -0.01815958  0.18362262  0.49572239  1
  In  In50  1  0.18020361  0.82076439  0.65536617  1
  In  In51  1  0.52086415  0.34816900  0.83530952  1
  In  In52  1  0.14035738  0.50340656  0.64218437  1
  In  In53  1  0.84599036  0.82675329  -0.01931511  1
  In  In54  1  0.03975701  0.62890944  0.35589632  1
  In  In55  1  0.33717262  0.01442974  0.64137387  1
  In  In56  1  0.03148441  0.64444396  0.00601914  1
  In  In57  1  0.65648470  0.50374363  0.50294096  1
  In  In58  1  0.32367983  0.33171152  0.33574789  1
  In  In59  1  0.83881843  0.14627906  0.66454779  1
  In  In60  1  0.16154543  0.80992153  0.34804206  1
  In  In61  1  0.32945835  0.34017478  0.02271348  1
  In  In62  1  0.68953600  0.68574243  0.64190162  1
  In  In63  1  0.47903231  0.85374365  0.65970994  1
  In  In64  1  0.80958897  0.01359187  0.15815297  1
  In  In65  1  0.69171600  0.83104296  0.83978770  1
  In  In66  1  0.16456207  -0.00332361  0.51332934  1
  In  In67  1  0.79289328  0.62681808  0.20779142  1
  In  In68  1  0.33606177  0.49292948  0.86819993  1
  In  In69  1  0.85002315  0.82322184  0.65606998  1
  In  In70  1  -0.00688075  0.02512388  0.00582306  1
  In  In71  1  0.15751790  0.48123229  0.00405973  1
  Te  Te72  1  0.07894879  0.12129254  0.08629332  1
  Te  Te73  1  0.07428342  0.08187591  0.40774491  1
  Te  Te74  1  0.07180243  0.08902824  0.73566140  1
  Te  Te75  1  0.06669590  0.38541040  0.08203947  1
  Te  Te76  1  0.07536714  0.50115120  0.43260441  1
  Te  Te77  1  0.06036179  0.43171981  0.74442131  1
  Te  Te78  1  0.08568062  0.77148833  0.07798714  1
  Te  Te79  1  0.07599956  0.74167837  0.44647363  1
  Te  Te80  1  0.07472403  0.70452177  0.70757395  1
  Te  Te81  1  0.42594235  0.05988867  0.09690919  1
  Te  Te82  1  0.40276620  0.10941870  0.43049814  1
  Te  Te83  1  0.42346454  0.08357599  0.75795845  1
  Te  Te84  1  0.42996447  0.42721149  0.08352305  1
  Te  Te85  1  0.43348776  0.40059249  0.41843525  1
  Te  Te86  1  0.41689092  0.42379075  0.74659957  1
  Te  Te87  1  0.41232238  0.74506496  0.08191434  1
  Te  Te88  1  0.40103799  0.76017291  0.43667370  1
  Te  Te89  1  0.40714990  0.73465736  0.73908470  1
  Te  Te90  1  0.76307019  0.12794173  0.07402137  1
  Te  Te91  1  0.76367341  0.09408932  0.39876583  1
  Te  Te92  1  0.73132714  0.07217926  0.74378906  1
  Te  Te93  1  0.76644676  0.43640940  0.08110422  1
  Te  Te94  1  0.74269577  0.41977594  0.41250845  1
  Te  Te95  1  0.79360472  0.42268182  0.74713257  1
  Te  Te96  1  0.76591948  0.76216755  0.09734122  1
  Te  Te97  1  0.74693204  0.73332855  0.41656330  1
  Te  Te98  1  0.78030741  0.72816099  0.76626159  1
  Te  Te99  1  0.07526668  0.28973980  0.28122165  1
  Te  Te100  1  0.09262845  0.26568850  0.55024927  1
  Te  Te101  1  0.05452121  0.28407844  0.93955803  1
  Te  Te102  1  0.08848364  0.57116638  0.22307542  1
  Te  Te103  1  0.08111587  0.62030136  0.57282823  1
  Te  Te104  1  0.08302909  0.55884417  0.89321366  1
  Te  Te105  1  0.08598285  0.92403641  0.25244902  1
  Te  Te106  1  0.07934931  0.90505910  0.59190406  1
  Te  Te107  1  0.06795961  0.91965693  0.91544944  1
  Te  Te108  1  0.39804095  0.24144341  0.23788305  1
  Te  Te109  1  0.40363393  0.23870539  0.55898554  1
  Te  Te110  1  0.41443696  0.25835897  0.89889420  1
  Te  Te111  1  0.40842936  0.57383398  0.25604771  1
  Te  Te112  1  0.42315683  0.58202394  0.57350985  1
  Te  Te113  1  0.42537975  0.57935280  0.94660146  1
  Te  Te114  1  0.42882369  0.91790736  0.24061900  1
  Te  Te115  1  0.41862704  0.93216090  0.55140281  1
  Te  Te116  1  0.41710733  0.90387071  0.90604430  1
  Te  Te117  1  0.71920129  0.26390246  0.27652016  1
  Te  Te118  1  0.75175574  0.23659215  0.57772009  1
  Te  Te119  1  0.76492069  0.29070289  0.89888837  1
  Te  Te120  1  0.72895522  0.52668618  0.29734532  1
  Te  Te121  1  0.76270711  0.56270080  0.59660246  1
  Te  Te122  1  0.76182615  0.59378182  0.92553315  1
  Te  Te123  1  0.74116964  0.92918002  0.26589571  1
  Te  Te124  1  0.74483330  0.91099175  0.59122388  1
  Te  Te125  1  0.73731581  0.93095146  0.94618122  1
  Te  Te126  1  0.25629408  0.23228817  0.08950585  1
  Te  Te127  1  0.22659349  0.26832789  0.43000291  1
  Te  Te128  1  0.21706968  0.25494577  0.74470719  1
  Te  Te129  1  0.25229855  0.55148893  0.09394223  1
  Te  Te130  1  0.22854534  0.57845586  0.42075726  1
  Te  Te131  1  0.25544595  0.57255358  0.75981171  1
  Te  Te132  1  0.26123122  0.91100464  0.08608086  1
  Te  Te133  1  0.24435269  0.92247996  0.40785435  1
  Te  Te134  1  0.26043621  0.91790020  0.75310076  1
  Te  Te135  1  0.57038273  0.26103142  0.08377949  1
  Te  Te136  1  0.59777484  0.26203870  0.38531821  1
  Te  Te137  1  0.58134495  0.24876987  0.73638055  1
  Te  Te138  1  0.60005127  0.58522018  0.10540232  1
  Te  Te139  1  0.57478297  0.60366643  0.43252309  1
  Te  Te140  1  0.60675187  0.58788293  0.74406066  1
  Te  Te141  1  0.59137704  0.94033882  0.08447763  1
  Te  Te142  1  0.57883925  0.93248382  0.41172813  1
  Te  Te143  1  0.59551729  0.90597903  0.74541682  1
  Te  Te144  1  0.88601080  0.23944361  0.08629207  1
  Te  Te145  1  0.91270880  0.27152248  0.40023626  1
  Te  Te146  1  0.91068161  0.24816362  0.74763898  1
  Te  Te147  1  0.90852797  0.60351623  0.08516011  1
  Te  Te148  1  0.92637916  0.52986551  0.39566358  1
  Te  Te149  1  0.88259034  0.61883969  0.80950998  1
  Te  Te150  1  0.92125969  0.92183353  0.09527231  1
  Te  Te151  1  0.92180048  0.88874965  0.43530024  1
  Te  Te152  1  0.92392711  0.92105748  0.74749572  1
  Te  Te153  1  0.25403039  0.08274358  0.24558604  1
  Te  Te154  1  0.22810355  0.10041050  0.59775532  1
  Te  Te155  1  0.22944697  0.09774664  0.92916315  1
  Te  Te156  1  0.25513709  0.43172595  0.25009932  1
  Te  Te157  1  0.24720134  0.41479710  0.58270177  1
  Te  Te158  1  0.23657858  0.38731969  0.90962518  1
  Te  Te159  1  0.26247137  0.75833810  0.24699870  1
  Te  Te160  1  0.27499500  0.76814794  0.55274866  1
  Te  Te161  1  0.25708596  0.70947422  0.94760683  1
  Te  Te162  1  0.57260279  0.07040977  0.24422756  1
  Te  Te163  1  0.58529130  0.05736612  0.56419737  1
  Te  Te164  1  0.59089623  0.10224115  0.92606250  1
  Te  Te165  1  0.60519920  0.44080070  0.23802507  1
  Te  Te166  1  0.58103015  0.38799571  0.57529807  1
  Te  Te167  1  0.58554545  0.44299222  0.93218886  1
  Te  Te168  1  0.59519472  0.73949695  0.26828145  1
  Te  Te169  1  0.56919450  0.75229817  0.58251453  1
  Te  Te170  1  0.57922395  0.74760349  0.90230294  1
  Te  Te171  1  0.90593065  0.09381793  0.24663328  1
  Te  Te172  1  0.92967122  0.06414697  0.57573226  1
  Te  Te173  1  0.90571556  0.09820959  0.90791665  1
  Te  Te174  1  0.90482374  0.41758362  0.26519027  1
  Te  Te175  1  0.92910203  0.43940756  0.58523054  1
  Te  Te176  1  0.96457083  0.40418215  0.90269534  1
  Te  Te177  1  0.91586669  0.71548018  0.26865886  1
  Te  Te178  1  0.91226974  0.71338352  0.57860920  1
  Te  Te179  1  0.94064600  0.72868102  0.90185875  1
