# generated using pymatgen
data_In2Te3
_symmetry_space_group_name_H-M   'P 1'
_cell_length_a   18.76900447
_cell_length_b   18.76776585
_cell_length_c   18.77289265
_cell_angle_alpha   89.94877469
_cell_angle_beta   89.96777372
_cell_angle_gamma   90.02042557
_symmetry_Int_Tables_number   1
_chemical_formula_structural   In2Te3
_chemical_formula_sum   'In72 Te108'
_cell_volume   6612.79015028
_cell_formula_units_Z   36
loop_
 _symmetry_equiv_pos_site_id
 _symmetry_equiv_pos_as_xyz
  1  'x, y, z'
loop_
 _atom_site_type_symbol
 _atom_site_label
 _atom_site_symmetry_multiplicity
 _atom_site_fract_x
 _atom_site_fract_y
 _atom_site_fract_z
 _atom_site_occupancy
  In  In0  1  0.01062617  0.35767796  0.66149689  1
  In  In1  1  0.82396473  -0.01435220  0.19409067  1
  In  In2  1  0.00261637  0.65257804  0.67320761  1
  In  In3  1  0.65054611  0.00612566  0.68129123  1
  In  In4  1  0.66252697  0.50232639  0.16546495  1
  In  In5  1  0.00182222  0.17424683  0.83222620  1
  In  In6  1  0.82272302  0.50989817  0.00745707  1
  In  In7  1  0.36206986  -0.03193577  -0.00723975  1
  In  In8  1  0.34687849  0.67590107  0.01518362  1
  In  In9  1  0.66954541  0.66323583  0.30837258  1
  In  In10  1  0.18464657  0.20315385  0.66264884  1
  In  In11  1  0.81927676  0.19384854  0.35535136  1
  In  In12  1  0.35327957  0.34774533  0.01242967  1
  In  In13  1  0.48803015  0.82644244  0.68504930  1
  In  In14  1  0.16345638  0.66239809  0.85381658  1
  In  In15  1  0.18178307  0.16897040  0.03386574  1
  In  In16  1  0.16909313  -0.01204747  0.84068476  1
  In  In17  1  0.82133466  -0.00684053  0.82723486  1
  In  In18  1  0.48472676  0.51547717  0.30687184  1
  In  In19  1  0.66040205  0.66136575  0.02206478  1
  In  In20  1  0.80827598  0.32481247  0.84782179  1
  In  In21  1  0.50454272  0.00398486  0.51450655  1
  In  In22  1  0.00395549  0.82550679  0.17222432  1
  In  In23  1  0.68501663  0.46670353  0.46662247  1
  In  In24  1  -0.00200599  0.50694599  0.17209429  1
  In  In25  1  0.82452140  0.15936413  0.64916798  1
  In  In26  1  0.63100811  0.01356124  -0.01556017  1
  In  In27  1  0.14405578  0.01877641  0.47680759  1
  In  In28  1  0.16784440  0.49943893  0.65011146  1
  In  In29  1  0.84655271  0.51225636  0.67966607  1
  In  In30  1  0.00033897  0.02248892  0.33241800  1
  In  In31  1  0.31534250  0.33356318  0.67114501  1
  In  In32  1  -0.00043662  0.34944681  0.00734437  1
  In  In33  1  0.50029499  0.51906368  0.65697802  1
  In  In34  1  0.14696994  0.49965128  0.00172055  1
  In  In35  1  0.82398676  0.18225235  0.00421845  1
  In  In36  1  0.47510304  0.65882823  0.49006172  1
  In  In37  1  0.33262644  -0.00377736  0.33452906  1
  In  In38  1  0.18533886  0.02048997  0.13626882  1
  In  In39  1  0.83892785  0.78447141  -0.01961146  1
  In  In40  1  0.33881961  0.15100892  0.17774027  1
  In  In41  1  0.00189458  0.66112174  0.32801133  1
  In  In42  1  0.52463289  0.31508976  0.44978660  1
  In  In43  1  0.15281071  0.32866323  0.49757631  1
  In  In44  1  -0.02712196  0.00408531  0.67526785  1
  In  In45  1  0.32694471  0.17857084  0.49838687  1
  In  In46  1  0.16683264  0.32772213  0.79490657  1
  In  In47  1  0.51110032  0.33109390  0.16381671  1
  In  In48  1  0.67013372  0.85069710  0.50633649  1
  In  In49  1  0.51319078  0.00992367  0.16670769  1
  In  In50  1  0.66583996  0.66411044  0.68482348  1
  In  In51  1  0.84936910  0.65535073  0.50529112  1
  In  In52  1  0.33005533  0.36279789  0.30866450  1
  In  In53  1  0.82221620  0.84491269  0.31747798  1
  In  In54  1  0.48976296  0.16302202  0.68200562  1
  In  In55  1  0.35266847  -0.00273427  0.67143301  1
  In  In56  1  0.01477114  0.82095093  0.50303066  1
  In  In57  1  0.67528283  0.32699559  0.65579582  1
  In  In58  1  0.33003489  0.50998968  0.84037485  1
  In  In59  1  0.17969114  0.66272285  0.15849732  1
  In  In60  1  0.65681095  0.17183030  0.16051797  1
  In  In61  1  0.02644773  -0.00313879  0.00792303  1
  In  In62  1  0.80677697  0.00456513  0.49105495  1
  In  In63  1  0.00349610  0.47928013  0.47906401  1
  In  In64  1  0.52499966  0.36218974  0.86908508  1
  In  In65  1  0.18640702  0.83500166  0.31751543  1
  In  In66  1  0.17041427  0.83599562  -0.00361328  1
  In  In67  1  0.82933071  0.37454981  0.16922998  1
  In  In68  1  0.67029708  0.80336872  0.85307686  1
  In  In69  1  0.49974438  0.81209744  0.32432595  1
  In  In70  1  0.19467205  0.81418655  0.64649569  1
  In  In71  1  0.49648072  0.67918177  0.84055772  1
  Te  Te72  1  0.05179985  0.11139345  0.11036428  1
  Te  Te73  1  0.07157904  0.12790161  0.40881334  1
  Te  Te74  1  0.09203211  0.08571547  0.74637135  1
  Te  Te75  1  0.09701267  0.40556146  0.11065596  1
  Te  Te76  1  0.08945224  0.40205881  0.38299730  1
  Te  Te77  1  0.07519498  0.44762838  0.76409745  1
  Te  Te78  1  0.07955274  0.73848301  0.07221310  1
  Te  Te79  1  0.10366321  0.74133558  0.40968138  1
  Te  Te80  1  0.09557626  0.75014991  0.74535104  1
  Te  Te81  1  0.42293588  0.08789743  0.06888195  1
  Te  Te82  1  0.42108132  0.08973569  0.41741625  1
  Te  Te83  1  0.42574010  0.06813457  0.78491090  1
  Te  Te84  1  0.42863358  0.43953370  0.10123613  1
  Te  Te85  1  0.42278149  0.42423850  0.41458936  1
  Te  Te86  1  0.41634866  0.41957096  0.75071008  1
  Te  Te87  1  0.43377477  0.72110592  0.12785890  1
  Te  Te88  1  0.38869931  0.75154167  0.40843233  1
  Te  Te89  1  0.39803779  0.72275121  0.73885776  1
  Te  Te90  1  0.74837028  0.07105852  0.08109297  1
  Te  Te91  1  0.72430055  0.08299157  0.39625560  1
  Te  Te92  1  0.73860109  0.10394791  0.76258448  1
  Te  Te93  1  0.72122339  0.39820821  0.05864808  1
  Te  Te94  1  0.77575294  0.37039912  0.40028453  1
  Te  Te95  1  0.74289862  0.42488288  0.75157061  1
  Te  Te96  1  0.75499788  0.74957503  0.09554449  1
  Te  Te97  1  0.75148346  0.74626499  0.42457177  1
  Te  Te98  1  0.76375560  0.75250705  0.75007017  1
  Te  Te99  1  0.13070140  0.20523635  0.20112909  1
  Te  Te100  1  0.06146676  0.23891891  0.58025623  1
  Te  Te101  1  0.09383289  0.25016191  0.92712390  1
  Te  Te102  1  0.11647741  0.57685545  0.27087026  1
  Te  Te103  1  0.08069710  0.58511607  0.55839904  1
  Te  Te104  1  0.05333524  0.58668190  0.92409309  1
  Te  Te105  1  0.09202271  0.92999678  0.24127778  1
  Te  Te106  1  0.08707869  0.92418280  0.59104197  1
  Te  Te107  1  0.06377707  0.89404355  0.90212887  1
  Te  Te108  1  0.42110867  0.24946608  0.25938085  1
  Te  Te109  1  0.42528659  0.26332790  0.57916467  1
  Te  Te110  1  0.42982998  0.26005942  0.92175024  1
  Te  Te111  1  0.39942935  0.61918204  0.24262749  1
  Te  Te112  1  0.38443083  0.57786477  0.58201305  1
  Te  Te113  1  0.43054066  0.57365124  0.93327510  1
  Te  Te114  1  0.41711683  0.91370259  0.24066694  1
  Te  Te115  1  0.41144234  0.89707693  0.57191334  1
  Te  Te116  1  0.44648631  0.92492616  0.87934798  1
  Te  Te117  1  0.74411821  0.26788115  0.24040452  1
  Te  Te118  1  0.75107079  0.24829368  0.55575329  1
  Te  Te119  1  0.71665726  0.23068433  0.91518391  1
  Te  Te120  1  0.76474762  0.56543388  0.25274812  1
  Te  Te121  1  0.73817678  0.57408225  0.57862348  1
  Te  Te122  1  0.72408718  0.57582029  0.91425365  1
  Te  Te123  1  0.70877341  0.90936552  0.24862255  1
  Te  Te124  1  0.75773980  0.92160912  0.60977024  1
  Te  Te125  1  0.75000068  0.91068476  0.93478346  1
  Te  Te126  1  0.26251496  0.27503283  0.11342013  1
  Te  Te127  1  0.25014935  0.26017638  0.39955139  1
  Te  Te128  1  0.28149735  0.22550079  0.77817281  1
  Te  Te129  1  0.26237653  0.56258139  0.07785744  1
  Te  Te130  1  0.30616850  0.61531732  0.44595697  1
  Te  Te131  1  0.24644553  0.59210969  0.74362961  1
  Te  Te132  1  0.26811343  0.89778684  0.09536519  1
  Te  Te133  1  0.24788599  0.91561390  0.43302803  1
  Te  Te134  1  0.26211539  0.90382480  0.75357004  1
  Te  Te135  1  0.56984456  0.24035948  0.06151121  1
  Te  Te136  1  0.60494532  0.20659597  0.39228409  1
  Te  Te137  1  0.57498856  0.26752028  0.75443221  1
  Te  Te138  1  0.55787159  0.57053006  0.08525839  1
  Te  Te139  1  0.58693846  0.58236028  0.41487882  1
  Te  Te140  1  0.58323235  0.57090358  0.77227541  1
  Te  Te141  1  0.57934280  0.91211689  0.07737447  1
  Te  Te142  1  0.57635763  0.91896654  0.40860668  1
  Te  Te143  1  0.57884379  0.91013700  0.77642657  1
  Te  Te144  1  0.91280825  0.26184058  0.09654093  1
  Te  Te145  1  0.90386835  0.29006234  0.42903005  1
  Te  Te146  1  0.91320175  0.25892046  0.74195261  1
  Te  Te147  1  0.91313545  0.59431101  0.08928899  1
  Te  Te148  1  0.90444330  0.56426836  0.39669580  1
  Te  Te149  1  0.89915480  0.61190737  0.77768957  1
  Te  Te150  1  0.91836811  0.91907266  0.08667716  1
  Te  Te151  1  0.92209733  0.91111634  0.41618445  1
  Te  Te152  1  0.91847973  0.90100015  0.76492478  1
  Te  Te153  1  0.22813257  0.09121982  0.27209465  1
  Te  Te154  1  0.25033121  0.07763314  0.58799814  1
  Te  Te155  1  0.25312670  0.06863441  0.93755077  1
  Te  Te156  1  0.22613707  0.46114579  0.27477446  1
  Te  Te157  1  0.25887231  0.41999277  0.55713234  1
  Te  Te158  1  0.23885891  0.40993440  0.91394046  1
  Te  Te159  1  0.27549103  0.73324160  0.25080120  1
  Te  Te160  1  0.25829871  0.72104596  0.55196817  1
  Te  Te161  1  0.26989350  0.75803754  0.91114411  1
  Te  Te162  1  0.56983879  0.10754766  0.26684834  1
  Te  Te163  1  0.59377877  0.10762694  0.58283797  1
  Te  Te164  1  0.54639090  0.08038474  0.88517240  1
  Te  Te165  1  0.59066751  0.41221141  0.26755909  1
  Te  Te166  1  0.57659871  0.41832911  0.57024614  1
  Te  Te167  1  0.62473118  0.44617848  0.93864920  1
  Te  Te168  1  0.57743709  0.73895153  0.21859077  1
  Te  Te169  1  0.58256966  0.74794617  0.58220195  1
  Te  Te170  1  0.56118470  0.76173678  0.95039702  1
  Te  Te171  1  0.89958026  0.10428044  0.25365515  1
  Te  Te172  1  0.92037304  0.08418524  0.55594512  1
  Te  Te173  1  0.91987330  0.08123344  0.92112643  1
  Te  Te174  1  0.94657332  0.39660448  0.25883348  1
  Te  Te175  1  0.89978064  0.41454305  0.57457389  1
  Te  Te176  1  0.90838076  0.42239209  0.91020655  1
  Te  Te177  1  0.90114954  0.73682315  0.24202553  1
  Te  Te178  1  0.91253133  0.75815996  0.59721899  1
  Te  Te179  1  0.93543424  0.70192014  0.90865777  1
