# generated using pymatgen
data_In2Te3
_symmetry_space_group_name_H-M   'P 1'
_cell_length_a   19.01371085
_cell_length_b   19.01640196
_cell_length_c   19.03183307
_cell_angle_alpha   89.98456229
_cell_angle_beta   90.13116112
_cell_angle_gamma   89.81077113
_symmetry_Int_Tables_number   1
_chemical_formula_structural   In2Te3
_chemical_formula_sum   'In72 Te108'
_cell_volume   6881.32913000
_cell_formula_units_Z   36
loop_
 _symmetry_equiv_pos_site_id
 _symmetry_equiv_pos_as_xyz
  1  'x, y, z'
loop_
 _atom_site_type_symbol
 _atom_site_label
 _atom_site_symmetry_multiplicity
 _atom_site_fract_x
 _atom_site_fract_y
 _atom_site_fract_z
 _atom_site_occupancy
  In  In0  1  0.13601342  0.64953772  0.83312564  1
  In  In1  1  0.51522573  0.64442707  0.80998225  1
  In  In2  1  0.16480785  0.02444427  0.50194416  1
  In  In3  1  0.18798731  0.66767453  0.49912352  1
  In  In4  1  0.18130317  0.64166815  0.18994941  1
  In  In5  1  0.20407021  0.18808779  -0.00735055  1
  In  In6  1  0.81755946  0.53348283  0.33070144  1
  In  In7  1  0.65821814  0.49890445  0.51850178  1
  In  In8  1  0.16573339  0.83737538  0.31199625  1
  In  In9  1  0.52667637  0.38826718  0.81868400  1
  In  In10  1  -0.01454557  0.68682084  0.01411824  1
  In  In11  1  0.00157420  0.30728224  -0.00882291  1
  In  In12  1  0.34893028  0.16859316  0.16664392  1
  In  In13  1  0.30851952  0.81169974  0.83520826  1
  In  In14  1  0.84031155  0.85330447  -0.02520374  1
  In  In15  1  0.82338633  0.82576375  0.67546171  1
  In  In16  1  0.79829405  0.49124013  -0.02305409  1
  In  In17  1  0.48296939  0.83328785  0.34097979  1
  In  In18  1  0.32588237  -0.01113192  0.68386660  1
  In  In19  1  0.65605091  0.85597748  0.19129113  1
  In  In20  1  0.18959067  0.31811043  0.50549503  1
  In  In21  1  -0.01494838  0.65844939  0.67296631  1
  In  In22  1  0.66427290  0.51090395  0.13454318  1
  In  In23  1  0.64598275  0.31825884  -0.01241621  1
  In  In24  1  0.47687636  -0.02518793  0.82761042  1
  In  In25  1  0.45019084  0.16459378  -0.01942380  1
  In  In26  1  0.02395806  0.15991633  0.14937410  1
  In  In27  1  0.65429629  0.81775599  0.79536745  1
  In  In28  1  0.35192118  0.02030444  0.32244112  1
  In  In29  1  0.51612598  0.81330799  0.63434009  1
  In  In30  1  0.83667704  0.14823011  0.33506620  1
  In  In31  1  0.64188630  0.16850744  0.81170183  1
  In  In32  1  0.81728235  0.51014567  0.66053726  1
  In  In33  1  0.14924889  0.48732462  0.01042888  1
  In  In34  1  -0.03383260  0.50848360  0.50029782  1
  In  In35  1  0.84159914  -0.02327977  0.49638460  1
  In  In36  1  0.83119568  0.03208661  0.81832026  1
  In  In37  1  0.02379171  0.01523591  0.67400800  1
  In  In38  1  0.51535984  0.00765549  0.16881645  1
  In  In39  1  -0.00438465  0.16889475  0.50101901  1
  In  In40  1  -0.00822484  0.33341042  0.67421299  1
  In  In41  1  0.69294752  0.79622040  0.47596656  1
  In  In42  1  0.16783479  0.49800308  0.36364847  1
  In  In43  1  0.82976723  -0.00225479  0.14665272  1
  In  In44  1  0.33067801  0.33706182  0.33840750  1
  In  In45  1  0.49798023  0.48948669  0.35049910  1
  In  In46  1  0.80931537  0.19554146  0.65750714  1
  In  In47  1  0.85522298  0.31336875  0.18035236  1
  In  In48  1  0.32919822  0.52357310  0.84639360  1
  In  In49  1  0.34190569  0.79423620  0.13453923  1
  In  In50  1  0.66565576  0.68309752  0.00143670  1
  In  In51  1  0.18139119  0.14785614  0.69824927  1
  In  In52  1  0.34312428  0.34856859  -0.01253607  1
  In  In53  1  0.16087200  0.47241107  0.66206506  1
  In  In54  1  0.19408514  -0.00959057  0.14847851  1
  In  In55  1  0.48667645  0.33569941  0.16397422  1
  In  In56  1  0.65781786  -0.01239784  0.00185233  1
  In  In57  1  0.00253401  0.51474559  0.16620682  1
  In  In58  1  -0.02281091  0.84158154  0.15737743  1
  In  In59  1  0.33565440  0.32467329  0.67159201  1
  In  In60  1  0.54186179  0.16195315  0.40948697  1
  In  In61  1  0.81543593  0.33254080  0.81253317  1
  In  In62  1  0.34189762  0.49409506  0.17707091  1
  In  In63  1  0.82636547  0.68427286  0.17828562  1
  In  In64  1  0.32631129  0.83478012  0.49968294  1
  In  In65  1  0.66629599  -0.00293560  0.35663166  1
  In  In66  1  0.35891727  0.64570030  0.64231679  1
  In  In67  1  0.01043705  0.84522908  0.50351451  1
  In  In68  1  0.02289232  0.85208972  0.84488654  1
  In  In69  1  -0.00813712  0.31055075  0.34260999  1
  In  In70  1  0.49590519  0.16879117  0.64579019  1
  In  In71  1  0.67176390  0.33478939  0.34341734  1
  Te  Te72  1  0.11478220  0.08131316  0.05700976  1
  Te  Te73  1  0.06749367  0.08193580  0.40758142  1
  Te  Te74  1  0.10729487  0.05746352  0.78781792  1
  Te  Te75  1  0.06760873  0.39697458  0.09860658  1
  Te  Te76  1  0.06990380  0.40394726  0.43965530  1
  Te  Te77  1  0.05838310  0.43429346  0.75934938  1
  Te  Te78  1  0.07892138  0.73509988  0.11941358  1
  Te  Te79  1  0.09396324  0.75328279  0.41501461  1
  Te  Te80  1  0.07962189  0.75564193  0.74078251  1
  Te  Te81  1  0.40181560  0.05558457  0.07978612  1
  Te  Te82  1  0.42864835  0.06793586  0.43800699  1
  Te  Te83  1  0.41528082  0.09183835  0.74976003  1
  Te  Te84  1  0.43349292  0.43869047  0.06792312  1
  Te  Te85  1  0.42979084  0.38985958  0.43401787  1
  Te  Te86  1  0.40517974  0.44135711  0.74496329  1
  Te  Te87  1  0.42288364  0.69672280  0.06419174  1
  Te  Te88  1  0.41798983  0.74092532  0.43569398  1
  Te  Te89  1  0.42171469  0.74902647  0.73690059  1
  Te  Te90  1  0.73060434  0.08295470  0.08310397  1
  Te  Te91  1  0.75120484  0.08759982  0.44422439  1
  Te  Te92  1  0.72794946  0.08344547  0.72028117  1
  Te  Te93  1  0.75739067  0.39438709  0.09215641  1
  Te  Te94  1  0.75757394  0.43059185  0.42208064  1
  Te  Te95  1  0.72757481  0.43866449  0.75666821  1
  Te  Te96  1  0.75895731  0.78442146  0.08340623  1
  Te  Te97  1  0.80166544  0.74987885  0.39084036  1
  Te  Te98  1  0.76004630  0.72312710  0.75912047  1
  Te  Te99  1  0.08369240  0.24777093  0.25040627  1
  Te  Te100  1  0.08806227  0.24138315  0.59797132  1
  Te  Te101  1  0.10181526  0.24796253  0.90425961  1
  Te  Te102  1  0.07214191  0.58506926  0.27903926  1
  Te  Te103  1  0.08150431  0.57851473  0.57466321  1
  Te  Te104  1  0.05187513  0.57468290  0.93427468  1
  Te  Te105  1  0.08038623  0.92919547  0.22838180  1
  Te  Te106  1  0.10793428  0.91880257  0.59311879  1
  Te  Te107  1  0.12324331  0.85179805  0.95265405  1
  Te  Te108  1  0.43122941  0.24402954  0.26984706  1
  Te  Te109  1  0.41921836  0.26780898  0.56518780  1
  Te  Te110  1  0.43669639  0.28452799  0.88893311  1
  Te  Te111  1  0.42342061  0.57862541  0.26120571  1
  Te  Te112  1  0.46538751  0.59324376  0.55446542  1
  Te  Te113  1  0.42076847  0.61156447  0.92224696  1
  Te  Te114  1  0.40781862  0.91238915  0.23232379  1
  Te  Te115  1  0.41707501  0.91966093  0.58478111  1
  Te  Te116  1  0.40520527  0.88582913  0.91717180  1
  Te  Te117  1  0.74550809  0.23773388  0.25269552  1
  Te  Te118  1  0.70301120  0.28040840  0.60462215  1
  Te  Te119  1  0.74123127  0.23525151  0.90447028  1
  Te  Te120  1  0.71655604  0.60372073  0.24402675  1
  Te  Te121  1  0.74501051  0.60707470  0.57454485  1
  Te  Te122  1  0.75580127  0.61246790  0.90860494  1
  Te  Te123  1  0.76452409  0.92764166  0.26634430  1
  Te  Te124  1  0.73944794  0.90521344  0.57905053  1
  Te  Te125  1  0.73695694  0.92162517  0.88643858  1
  Te  Te126  1  0.26838685  0.27660696  0.09755204  1
  Te  Te127  1  0.25048463  0.23371237  0.40580506  1
  Te  Te128  1  0.23709693  0.26634378  0.76242024  1
  Te  Te129  1  0.25215137  0.57371686  0.07663720  1
  Te  Te130  1  0.27332534  0.57934747  0.42140035  1
  Te  Te131  1  0.24335225  0.58842735  0.73595803  1
  Te  Te132  1  0.24452115  0.88084729  0.06021254  1
  Te  Te133  1  0.24730186  0.93022474  0.40404904  1
  Te  Te134  1  0.23384221  0.92878933  0.78140108  1
  Te  Te135  1  0.55725647  0.23624150  0.07543625  1
  Te  Te136  1  0.61913545  0.27866363  0.47253945  1
  Te  Te137  1  0.58321928  0.27616926  0.72299591  1
  Te  Te138  1  0.56731355  0.61510817  0.09013577  1
  Te  Te139  1  0.57968471  0.58674349  0.42672673  1
  Te  Te140  1  0.60242218  0.54641349  0.74094463  1
  Te  Te141  1  0.56418943  0.89663491  0.07689589  1
  Te  Te142  1  0.58589716  0.89733444  0.43323453  1
  Te  Te143  1  0.57512610  0.92487545  0.72383767  1
  Te  Te144  1  0.90660774  0.22223142  0.07173885  1
  Te  Te145  1  0.88731016  0.25216670  0.43418609  1
  Te  Te146  1  0.91768378  0.23147272  0.75793821  1
  Te  Te147  1  0.89085053  0.57975598  0.08618412  1
  Te  Te148  1  0.89912198  0.61734083  0.42276159  1
  Te  Te149  1  0.92741163  0.55040133  0.75234185  1
  Te  Te150  1  0.94202039  0.94483005  0.04299178  1
  Te  Te151  1  0.95296236  0.94227611  0.40847614  1
  Te  Te152  1  0.92057285  0.92069158  0.74547159  1
  Te  Te153  1  0.24413231  0.09478108  0.24722563  1
  Te  Te154  1  0.26640257  0.09416473  0.58695946  1
  Te  Te155  1  0.31661973  0.11347225  0.93261709  1
  Te  Te156  1  0.23410477  0.41877507  0.25363811  1
  Te  Te157  1  0.26904636  0.42785986  0.57007645  1
  Te  Te158  1  0.23587935  0.42083034  0.90629759  1
  Te  Te159  1  0.27029517  0.74201271  0.25896153  1
  Te  Te160  1  0.25429262  0.75319534  0.60388586  1
  Te  Te161  1  0.21859202  0.73088912  0.92742758  1
  Te  Te162  1  0.58220070  0.09100617  0.27331693  1
  Te  Te163  1  0.56890884  0.09486745  0.54081119  1
  Te  Te164  1  0.56859629  0.07754573  0.91019143  1
  Te  Te165  1  0.59526995  0.41451790  0.23699155  1
  Te  Te166  1  0.54497618  0.47518179  0.61562752  1
  Te  Te167  1  0.59741999  0.44454804  0.93443072  1
  Te  Te168  1  0.57965966  0.75578394  0.26186829  1
  Te  Te169  1  0.62526776  0.72316625  0.58843197  1
  Te  Te170  1  0.57332083  0.75475329  0.90338255  1
  Te  Te171  1  0.92320254  0.07956692  0.23386802  1
  Te  Te172  1  0.91244656  0.08118991  0.59374076  1
  Te  Te173  1  0.91958272  0.04884228  0.92959756  1
  Te  Te174  1  0.91407810  0.42730605  0.26452415  1
  Te  Te175  1  0.89513832  0.40376817  0.58251910  1
  Te  Te176  1  0.90174982  0.40099268  0.91792570  1
  Te  Te177  1  0.91115964  0.76638943  0.26823915  1
  Te  Te178  1  0.91506058  0.75391941  0.57862349  1
  Te  Te179  1  0.91912590  0.75212664  0.89466756  1
