# generated using pymatgen
data_In2Te3
_symmetry_space_group_name_H-M   'P 1'
_cell_length_a   18.93121594
_cell_length_b   18.89728203
_cell_length_c   18.90462360
_cell_angle_alpha   89.91853932
_cell_angle_beta   90.15525590
_cell_angle_gamma   89.82738390
_symmetry_Int_Tables_number   1
_chemical_formula_structural   In2Te3
_chemical_formula_sum   'In72 Te108'
_cell_volume   6763.03880463
_cell_formula_units_Z   36
loop_
 _symmetry_equiv_pos_site_id
 _symmetry_equiv_pos_as_xyz
  1  'x, y, z'
loop_
 _atom_site_type_symbol
 _atom_site_label
 _atom_site_symmetry_multiplicity
 _atom_site_fract_x
 _atom_site_fract_y
 _atom_site_fract_z
 _atom_site_occupancy
  In  In0  1  0.67607317  0.56321879  0.19519069  1
  In  In1  1  0.35676417  0.65372244  0.32997354  1
  In  In2  1  0.75627269  0.68089272  0.91048064  1
  In  In3  1  0.34967728  0.31858110  0.68763289  1
  In  In4  1  0.82755859  0.49410359  0.64553669  1
  In  In5  1  0.70722259  0.38252970  0.30476858  1
  In  In6  1  0.67185679  0.34295983  0.02670135  1
  In  In7  1  -0.03199309  0.83634869  0.86404844  1
  In  In8  1  0.17086528  0.32352537  0.83384035  1
  In  In9  1  0.84883435  0.66800354  0.47686892  1
  In  In10  1  0.00831417  0.32688910  0.66048312  1
  In  In11  1  -0.01608143  -0.00560996  0.32641991  1
  In  In12  1  -0.01749998  0.17520132  0.47679768  1
  In  In13  1  0.33825135  0.81847215  0.50525786  1
  In  In14  1  0.52627264  -0.01636185  0.48727826  1
  In  In15  1  0.00226266  0.17000369  0.83799042  1
  In  In16  1  -0.01960266  0.50482455  0.83820373  1
  In  In17  1  0.68286354  -0.01139240  0.67596796  1
  In  In18  1  0.80433042  0.39071209  0.87625962  1
  In  In19  1  0.34453806  0.82160026  0.85501882  1
  In  In20  1  0.48337002  0.15829476  0.69122218  1
  In  In21  1  0.32826240  0.34114916  0.36916123  1
  In  In22  1  0.65735348  0.14243030  0.13269749  1
  In  In23  1  0.84548985  0.36927445  0.17088262  1
  In  In24  1  0.35137566  0.84747302  0.16140950  1
  In  In25  1  0.34943743  0.49123881  0.51486774  1
  In  In26  1  0.86278507  0.16004720  0.66738306  1
  In  In27  1  0.82070663  0.81932144  0.65626862  1
  In  In28  1  0.15525844  -0.02000592  0.82988866  1
  In  In29  1  0.81111494  0.17187708  0.32319203  1
  In  In30  1  0.15882021  0.02146799  0.16602417  1
  In  In31  1  0.52271225  0.85037849  0.68300126  1
  In  In32  1  0.65321413  0.31927171  0.65639641  1
  In  In33  1  0.14403930  0.85459225  0.67155748  1
  In  In34  1  0.52464702  0.52480244  0.02858794  1
  In  In35  1  0.52345689  0.67697791  0.47702707  1
  In  In36  1  0.34604629  0.66485583  0.65560531  1
  In  In37  1  0.51945106  0.32170436  0.16738904  1
  In  In38  1  0.65739343  0.18190104  0.49761584  1
  In  In39  1  0.81542958  0.35859099  0.46163454  1
  In  In40  1  0.17248940  0.52942285  0.66035135  1
  In  In41  1  0.00345121  0.66156826  0.65792848  1
  In  In42  1  0.16118748  0.66572003  0.16451539  1
  In  In43  1  0.50038030  0.16951366  0.36948090  1
  In  In44  1  0.18747728  0.67111012  0.83465717  1
  In  In45  1  0.52267715  0.64889049  0.86042480  1
  In  In46  1  0.00167889  -0.00978486  0.65109195  1
  In  In47  1  0.15090288  0.15667424  0.00085677  1
  In  In48  1  0.15451190  0.32365937  0.49242861  1
  In  In49  1  0.13592026  0.67803878  0.48497224  1
  In  In50  1  0.50597852  0.35133509  0.49637263  1
  In  In51  1  -0.01466318  0.62710375  0.03170911  1
  In  In52  1  0.51290173  0.81911049  0.01691561  1
  In  In53  1  -0.00690318  0.17369606  0.17614551  1
  In  In54  1  0.33166492  0.31636214  -0.00133385  1
  In  In55  1  0.50958071  -0.01203119  0.15961993  1
  In  In56  1  0.19905135  0.00726968  0.53761142  1
  In  In57  1  0.77242141  -0.00792428  0.87485522  1
  In  In58  1  0.33615692  0.16586299  0.16575494  1
  In  In59  1  0.49199528  0.33654832  0.84468347  1
  In  In60  1  0.14956175  0.47454238  0.02276827  1
  In  In61  1  0.83431580  0.82754658  0.31400834  1
  In  In62  1  0.15784061  0.83225229  0.34423692  1
  In  In63  1  0.33527607  0.51048521  0.17381005  1
  In  In64  1  0.16986003  0.49916106  0.33994182  1
  In  In65  1  -0.03574106  0.83831306  0.13449886  1
  In  In66  1  0.83328720  0.15668897  -0.00247027  1
  In  In67  1  0.15972905  0.19782327  0.31387652  1
  In  In68  1  0.32038761  -0.00308779  -0.00117377  1
  In  In69  1  0.51685634  0.12823233  -0.07551909  1
  In  In70  1  0.65788544  0.67318759  0.68503999  1
  In  In71  1  0.68141881  -0.01532554  0.31122754  1
  Te  Te72  1  0.04873238  0.07320995  0.07440290  1
  Te  Te73  1  0.07910257  0.09340173  0.39246335  1
  Te  Te74  1  0.08113015  0.08190855  0.74195697  1
  Te  Te75  1  0.07487928  0.42968656  0.14105614  1
  Te  Te76  1  0.07433626  0.41024079  0.40645153  1
  Te  Te77  1  0.08516925  0.43005968  0.74564328  1
  Te  Te78  1  0.07195634  0.74666032  0.07183941  1
  Te  Te79  1  0.05285060  0.73511072  0.37932499  1
  Te  Te80  1  0.07440939  0.75100367  0.76018880  1
  Te  Te81  1  0.42259651  0.08341233  0.07295723  1
  Te  Te82  1  0.41860584  0.07579399  0.44350250  1
  Te  Te83  1  0.39001371  0.05865468  0.73938427  1
  Te  Te84  1  0.41828639  0.40561424  0.08558290  1
  Te  Te85  1  0.43366077  0.44593609  0.39682982  1
  Te  Te86  1  0.43145929  0.42482184  0.74405461  1
  Te  Te87  1  0.41996207  0.73442525  0.09716095  1
  Te  Te88  1  0.43079648  0.76866828  0.39552079  1
  Te  Te89  1  0.43083459  0.74588050  0.75180122  1
  Te  Te90  1  0.76937369  0.05576369  0.08878357  1
  Te  Te91  1  0.73960947  0.08112191  0.42002299  1
  Te  Te92  1  0.76104544  0.09357818  0.75482852  1
  Te  Te93  1  0.74598736  0.45802327  0.08973085  1
  Te  Te94  1  0.73899440  0.48100291  0.41429592  1
  Te  Te95  1  0.74104987  0.41377346  0.74000402  1
  Te  Te96  1  0.74351169  0.72940903  0.05171914  1
  Te  Te97  1  0.74253858  0.74596844  0.40424878  1
  Te  Te98  1  0.74547130  0.76017690  0.77212667  1
  Te  Te99  1  0.07255216  0.28725187  0.23218719  1
  Te  Te100  1  0.08310443  0.22158445  0.58157724  1
  Te  Te101  1  0.07083556  0.26783108  0.93322423  1
  Te  Te102  1  0.08038363  0.55753813  0.23123602  1
  Te  Te103  1  0.06507894  0.56472057  0.55811255  1
  Te  Te104  1  0.09047568  0.57930326  0.91643378  1
  Te  Te105  1  0.07451559  0.90851902  0.23559643  1
  Te  Te106  1  0.08041929  0.91312096  0.54578295  1
  Te  Te107  1  0.07502953  0.91036632  0.93035314  1
  Te  Te108  1  0.41540613  0.25680269  0.26133106  1
  Te  Te109  1  0.42795530  0.25081288  0.57668190  1
  Te  Te110  1  0.40063390  0.22569594  0.89834729  1
  Te  Te111  1  0.43878383  0.60892741  0.21524957  1
  Te  Te112  1  0.44884323  0.58547719  0.57885308  1
  Te  Te113  1  0.42122599  0.58230811  0.94266012  1
  Te  Te114  1  0.41178761  0.93899895  0.25691318  1
  Te  Te115  1  0.42449510  0.91323285  0.58455489  1
  Te  Te116  1  0.43102812  0.91937581  0.93119389  1
  Te  Te117  1  0.73581428  0.25291609  0.21710829  1
  Te  Te118  1  0.77320452  0.24954536  0.57200530  1
  Te  Te119  1  0.74316451  0.25560349  0.92566214  1
  Te  Te120  1  0.77702045  0.65627587  0.26236212  1
  Te  Te121  1  0.75172841  0.60915985  0.58275964  1
  Te  Te122  1  0.77711317  0.53432007  0.92473421  1
  Te  Te123  1  0.74028630  0.88900797  0.21370646  1
  Te  Te124  1  0.74124938  0.90781091  0.56983149  1
  Te  Te125  1  0.77317561  0.86838061  0.96296805  1
  Te  Te126  1  0.23262111  0.24910952  0.09125941  1
  Te  Te127  1  0.25559148  0.22654259  0.43314763  1
  Te  Te128  1  0.23933932  0.23648621  0.73830508  1
  Te  Te129  1  0.24721980  0.58070674  0.07190867  1
  Te  Te130  1  0.26076898  0.59291993  0.43497617  1
  Te  Te131  1  0.27911155  0.57446725  0.75854244  1
  Te  Te132  1  0.23307163  0.91301617  0.08848897  1
  Te  Te133  1  0.25432509  0.91854199  0.42563116  1
  Te  Te134  1  0.26247726  0.90343981  0.75211142  1
  Te  Te135  1  0.56205222  0.23115807  0.05106351  1
  Te  Te136  1  0.60709421  0.28311592  0.39509002  1
  Te  Te137  1  0.58593383  0.24107366  0.76746478  1
  Te  Te138  1  0.62176967  0.63362501  0.06911131  1
  Te  Te139  1  0.60217380  0.58509493  0.39276058  1
  Te  Te140  1  0.58875692  0.56730000  0.75849400  1
  Te  Te141  1  0.60613694  0.88544973  0.11467021  1
  Te  Te142  1  0.58420272  0.90090628  0.38129127  1
  Te  Te143  1  0.58298376  0.94718712  0.77773370  1
  Te  Te144  1  0.90679432  0.25944916  0.08344357  1
  Te  Te145  1  0.91136346  0.26997841  0.38044241  1
  Te  Te146  1  0.91204686  0.26955035  0.76212479  1
  Te  Te147  1  0.90342068  0.53738441  0.11777148  1
  Te  Te148  1  0.89437707  0.55109697  0.39829926  1
  Te  Te149  1  0.89994401  0.59006943  0.74152288  1
  Te  Te150  1  0.87889621  0.92764568  0.05217418  1
  Te  Te151  1  0.89796114  0.91649469  0.41348513  1
  Te  Te152  1  0.91194189  0.90919256  0.74203988  1
  Te  Te153  1  0.25497722  0.08412465  0.26370531  1
  Te  Te154  1  0.27641724  0.08016291  0.63676231  1
  Te  Te155  1  0.24132484  0.08576558  0.90433204  1
  Te  Te156  1  0.25616695  0.40779950  0.25303502  1
  Te  Te157  1  0.24258831  0.41297789  0.58892525  1
  Te  Te158  1  0.25244402  0.41834195  0.91877094  1
  Te  Te159  1  0.25179313  0.74645050  0.25824562  1
  Te  Te160  1  0.22930436  0.74429713  0.59521315  1
  Te  Te161  1  0.24657381  0.75396783  0.93924045  1
  Te  Te162  1  0.57840576  0.09875493  0.25708299  1
  Te  Te163  1  0.58733171  0.08928018  0.59417826  1
  Te  Te164  1  0.63122305  0.03485858  0.92347587  1
  Te  Te165  1  0.58570114  0.43963030  0.23233374  1
  Te  Te166  1  0.60382261  0.42844831  0.57231416  1
  Te  Te167  1  0.58321813  0.42267840  0.93103086  1
  Te  Te168  1  0.62660658  0.68833191  0.28012190  1
  Te  Te169  1  0.59457366  0.76549898  0.58002829  1
  Te  Te170  1  0.59836551  0.76719245  0.90603168  1
  Te  Te171  1  0.89257546  0.07653632  0.23723297  1
  Te  Te172  1  0.90869617  0.06773233  0.55693539  1
  Te  Te173  1  0.90770398  0.06829216  0.89683814  1
  Te  Te174  1  0.89665369  0.47509918  0.26132752  1
  Te  Te175  1  0.92196587  0.40681699  0.56469466  1
  Te  Te176  1  0.93214533  0.41732499  0.94570781  1
  Te  Te177  1  0.91550701  0.73217669  0.22660149  1
  Te  Te178  1  0.93101127  0.76049027  0.56950483  1
  Te  Te179  1  0.91216930  0.71193834  0.92651531  1
