# generated using pymatgen
data_In2Te3
_symmetry_space_group_name_H-M   'P 1'
_cell_length_a   18.78384798
_cell_length_b   18.78480059
_cell_length_c   18.77933658
_cell_angle_alpha   89.92739954
_cell_angle_beta   89.96939034
_cell_angle_gamma   89.98467645
_symmetry_Int_Tables_number   1
_chemical_formula_structural   In2Te3
_chemical_formula_sum   'In72 Te108'
_cell_volume   6626.29815947
_cell_formula_units_Z   36
loop_
 _symmetry_equiv_pos_site_id
 _symmetry_equiv_pos_as_xyz
  1  'x, y, z'
loop_
 _atom_site_type_symbol
 _atom_site_label
 _atom_site_symmetry_multiplicity
 _atom_site_fract_x
 _atom_site_fract_y
 _atom_site_fract_z
 _atom_site_occupancy
  In  In0  1  0.34364584  0.18671817  0.50634430  1
  In  In1  1  0.31651841  0.82645804  0.17377179  1
  In  In2  1  0.15215513  -0.00447322  0.86776392  1
  In  In3  1  0.15595723  0.84508599  0.00377950  1
  In  In4  1  0.20068711  0.48588070  0.64363984  1
  In  In5  1  0.49298578  0.49539958  0.61960567  1
  In  In6  1  0.65800388  0.48371136  0.48248891  1
  In  In7  1  0.87590310  0.67354283  0.85300337  1
  In  In8  1  0.50666569  0.32942872  0.80947854  1
  In  In9  1  0.66683197  0.83074965  0.50411717  1
  In  In10  1  -0.01544870  0.32232529  0.34850308  1
  In  In11  1  0.33155503  0.18066878  0.17987811  1
  In  In12  1  0.15262816  0.18612714  0.65482632  1
  In  In13  1  0.33647680  0.81259536  0.81109669  1
  In  In14  1  0.15674865  0.18298427  0.34360095  1
  In  In15  1  0.18072282  0.48492161  0.32811682  1
  In  In16  1  -0.00665649  0.01460625  0.00986071  1
  In  In17  1  0.16564494  0.80667787  0.67296213  1
  In  In18  1  0.84710876  0.02900289  0.48622402  1
  In  In19  1  0.51237169  0.18092917  -0.00352758  1
  In  In20  1  0.83704539  0.49870675  0.68550468  1
  In  In21  1  0.67451267  0.32409182  0.33644223  1
  In  In22  1  0.31474901  -0.01357844  -0.00083635  1
  In  In23  1  0.68058419  0.00650030  0.33985150  1
  In  In24  1  0.32844783  0.34173932  0.01378167  1
  In  In25  1  0.48775548  0.00530280  0.80222728  1
  In  In26  1  0.83496285  0.66546612  0.50274023  1
  In  In27  1  0.66646687  0.83887668  0.84566557  1
  In  In28  1  0.19612393  0.65944448  0.49866750  1
  In  In29  1  0.48728205  0.81898435  0.66038126  1
  In  In30  1  0.68465509  0.17129111  0.82894525  1
  In  In31  1  -0.00984595  0.17060145  0.83878572  1
  In  In32  1  0.66375010  0.32849637  0.01039557  1
  In  In33  1  -0.01760994  0.00334684  0.65629613  1
  In  In34  1  0.01304049  0.84003418  0.16597022  1
  In  In35  1  0.15496879  0.33203428  0.83246237  1
  In  In36  1  0.52683583  0.00486955  0.51277329  1
  In  In37  1  -0.00653833  0.48218215  0.17221384  1
  In  In38  1  -0.00323123  0.32848094  0.64364516  1
  In  In39  1  0.83843397  0.47929697  0.00043902  1
  In  In40  1  0.68495753  -0.00984999  0.00131609  1
  In  In41  1  0.67337443  0.04352677  0.65516121  1
  In  In42  1  0.16036715  0.83631775  0.32084489  1
  In  In43  1  0.83576444  0.35594929  0.83987124  1
  In  In44  1  0.82967677  0.66744311  0.15270912  1
  In  In45  1  0.67077145  0.48807138  0.82229941  1
  In  In46  1  0.15496227  0.01207466  0.47131486  1
  In  In47  1  0.67352665  0.67002235  0.34042787  1
  In  In48  1  -0.00129079  0.67122245  0.34033045  1
  In  In49  1  0.17866782  0.69030232  0.16365168  1
  In  In50  1  0.51594798  0.65378113  0.17934462  1
  In  In51  1  -0.02516498  0.85273730  0.50486588  1
  In  In52  1  0.64451527  0.67546166  0.66455551  1
  In  In53  1  0.47710899  -0.01582529  0.17670498  1
  In  In54  1  0.49558439  0.20135926  0.34033549  1
  In  In55  1  0.33255555  0.64365026  -0.00273199  1
  In  In56  1  -0.00321515  0.16649701  0.16609360  1
  In  In57  1  0.47242428  0.47561823  0.36224730  1
  In  In58  1  0.66424766  0.67670957  0.00021140  1
  In  In59  1  0.33402077  0.49636088  0.16825744  1
  In  In60  1  0.52052806  0.83135607  0.00349425  1
  In  In61  1  0.34790592  0.00202961  0.67096368  1
  In  In62  1  0.83648711  0.82923749  0.66510514  1
  In  In63  1  -0.00682189  0.33786493  0.01580226  1
  In  In64  1  0.33052183  0.14302797  0.80806692  1
  In  In65  1  0.83968727  0.01718464  0.18485040  1
  In  In66  1  0.00159982  0.50172242  0.51309443  1
  In  In67  1  0.13902145  0.63965791  0.84762946  1
  In  In68  1  0.33167771  -0.00824002  0.33021253  1
  In  In69  1  0.32753817  0.50385704  0.83339905  1
  In  In70  1  0.66581045  0.50263376  0.16778081  1
  In  In71  1  0.67232180  0.17160084  0.18102052  1
  Te  Te72  1  0.09515318  0.08833521  0.08438124  1
  Te  Te73  1  0.05223545  0.09734121  0.40893402  1
  Te  Te74  1  0.09081698  0.08268461  0.75178102  1
  Te  Te75  1  0.09532918  0.41566760  0.08908233  1
  Te  Te76  1  0.08769743  0.41117633  0.42565913  1
  Te  Te77  1  0.08766666  0.41972157  0.72761937  1
  Te  Te78  1  0.06894396  0.73514157  0.06726178  1
  Te  Te79  1  0.08471787  0.75433120  0.43511341  1
  Te  Te80  1  0.07099526  0.74783779  0.76887960  1
  Te  Te81  1  0.41676271  0.08122765  0.07338892  1
  Te  Te82  1  0.42050940  0.08115544  0.41599431  1
  Te  Te83  1  0.44354806  0.11569451  0.70723147  1
  Te  Te84  1  0.42932104  0.42626588  0.07839345  1
  Te  Te85  1  0.39495782  0.37914551  0.45268349  1
  Te  Te86  1  0.41258655  0.42418018  0.73489062  1
  Te  Te87  1  0.41350579  0.75064874  0.08160919  1
  Te  Te88  1  0.38700909  0.71170170  0.47922939  1
  Te  Te89  1  0.42069149  0.71457693  0.74164625  1
  Te  Te90  1  0.75868355  0.09790049  0.07887716  1
  Te  Te91  1  0.73997482  0.11762947  0.42153772  1
  Te  Te92  1  0.77426811  0.07813652  0.75588704  1
  Te  Te93  1  0.76036200  0.40031361  0.10463033  1
  Te  Te94  1  0.76621839  0.42044938  0.40550658  1
  Te  Te95  1  0.73684384  0.38875322  0.72742560  1
  Te  Te96  1  0.75148819  0.76664166  0.07553220  1
  Te  Te97  1  0.77030054  0.76817090  0.41114964  1
  Te  Te98  1  0.75128109  0.73635445  0.75523479  1
  Te  Te99  1  0.08319406  0.26982528  0.24284937  1
  Te  Te100  1  0.08459104  0.25783837  0.54622831  1
  Te  Te101  1  0.08406193  0.24293937  0.93333283  1
  Te  Te102  1  0.09146595  0.58899530  0.25149603  1
  Te  Te103  1  0.09575535  0.59014635  0.59228388  1
  Te  Te104  1  0.04958700  0.55835624  0.93046513  1
  Te  Te105  1  0.06922588  0.93601798  0.26369615  1
  Te  Te106  1  0.09427296  0.91954661  0.58872197  1
  Te  Te107  1  0.04602894  0.88910227  0.90444899  1
  Te  Te108  1  0.41003424  0.28493201  0.25099776  1
  Te  Te109  1  0.40771839  0.29536469  0.58604899  1
  Te  Te110  1  0.41026146  0.24445114  0.90197683  1
  Te  Te111  1  0.41267980  0.58568354  0.26548470  1
  Te  Te112  1  0.38279619  0.58263759  0.55141400  1
  Te  Te113  1  0.43034738  0.57623029  0.91227517  1
  Te  Te114  1  0.42153303  0.88005259  0.27368450  1
  Te  Te115  1  0.41448518  0.91495102  0.56569100  1
  Te  Te116  1  0.41898174  0.91246235  0.91159004  1
  Te  Te117  1  0.77356808  0.24050632  0.26172733  1
  Te  Te118  1  0.78568148  0.20548948  0.54429980  1
  Te  Te119  1  0.76696409  0.25177816  0.92899056  1
  Te  Te120  1  0.76277344  0.57793205  0.25746621  1
  Te  Te121  1  0.73984163  0.58102173  0.58784138  1
  Te  Te122  1  0.75629017  0.57867653  0.91236407  1
  Te  Te123  1  0.75059800  0.91639309  0.24863692  1
  Te  Te124  1  0.75694444  0.93133759  0.57645818  1
  Te  Te125  1  0.77385614  0.91099323  0.91447773  1
  Te  Te126  1  0.24107453  0.24557416  0.08294325  1
  Te  Te127  1  0.26561672  0.26682356  0.40538769  1
  Te  Te128  1  0.25464545  0.25930360  0.74113621  1
  Te  Te129  1  0.22965260  0.57178615  0.08197371  1
  Te  Te130  1  0.27448579  0.55365899  0.42649768  1
  Te  Te131  1  0.24506282  0.59615533  0.74421339  1
  Te  Te132  1  0.22570304  0.93097196  0.11048977  1
  Te  Te133  1  0.25157627  0.90320705  0.42552926  1
  Te  Te134  1  0.24628676  0.92751737  0.75988151  1
  Te  Te135  1  0.56862666  0.26298820  0.11081107  1
  Te  Te136  1  0.58064694  0.26942127  0.44215308  1
  Te  Te137  1  0.60049331  0.24492422  0.73241573  1
  Te  Te138  1  0.57524531  0.57122336  0.06567206  1
  Te  Te139  1  0.56912670  0.58656954  0.41457591  1
  Te  Te140  1  0.57024471  0.56520022  0.73770859  1
  Te  Te141  1  0.59492295  0.91769754  0.10373445  1
  Te  Te142  1  0.58007213  0.90961232  0.40626800  1
  Te  Te143  1  0.59217661  0.91656736  0.73038588  1
  Te  Te144  1  0.90043780  0.24853122  0.08645953  1
  Te  Te145  1  0.88693646  0.24998607  0.44314505  1
  Te  Te146  1  0.90667560  0.25644023  0.74490950  1
  Te  Te147  1  0.92733619  0.58138618  0.07283058  1
  Te  Te148  1  0.90992793  0.57005986  0.41040898  1
  Te  Te149  1  0.93522984  0.58997320  0.74678222  1
  Te  Te150  1  0.90721253  0.91645838  0.08779756  1
  Te  Te151  1  0.91657343  0.93203793  0.39626930  1
  Te  Te152  1  0.90974029  0.92123308  0.75396426  1
  Te  Te153  1  0.23923753  0.08453069  0.25468281  1
  Te  Te154  1  0.24928156  0.08299515  0.57700666  1
  Te  Te155  1  0.24408373  0.10197563  0.92817289  1
  Te  Te156  1  0.26545229  0.39043916  0.24956362  1
  Te  Te157  1  0.27615247  0.38746145  0.55770563  1
  Te  Te158  1  0.23347359  0.42522112  0.92387404  1
  Te  Te159  1  0.26496521  0.73010913  0.28216144  1
  Te  Te160  1  0.27682011  0.75671779  0.58569265  1
  Te  Te161  1  0.24716772  0.75104598  0.92079626  1
  Te  Te162  1  0.56475424  0.08494147  0.25422984  1
  Te  Te163  1  0.59220958  0.12778156  0.56295431  1
  Te  Te164  1  0.57968800  0.07202480  0.91144830  1
  Te  Te165  1  0.57785134  0.42202780  0.26172589  1
  Te  Te166  1  0.59119666  0.39012714  0.57730872  1
  Te  Te167  1  0.57725305  0.41275253  0.91764270  1
  Te  Te168  1  0.59712727  0.75524689  0.24644996  1
  Te  Te169  1  0.55993867  0.73255419  0.55130146  1
  Te  Te170  1  0.56716502  0.73396691  0.89524698  1
  Te  Te171  1  0.92553151  0.09587564  0.27793309  1
  Te  Te172  1  0.92240945  0.11954088  0.58256377  1
  Te  Te173  1  0.90126964  0.08148987  0.91531381  1
  Te  Te174  1  0.90153252  0.41232704  0.26360794  1
  Te  Te175  1  0.89131800  0.41225541  0.57050955  1
  Te  Te176  1  0.95300559  0.44021622  0.89515633  1
  Te  Te177  1  0.91362932  0.75566560  0.24902582  1
  Te  Te178  1  0.93457189  0.73521010  0.59463384  1
  Te  Te179  1  0.94046981  0.77580909  0.93332271  1
