# generated using pymatgen
data_In2Te3
_symmetry_space_group_name_H-M   'P 1'
_cell_length_a   19.06445097
_cell_length_b   19.07059971
_cell_length_c   19.07940582
_cell_angle_alpha   89.96098541
_cell_angle_beta   89.85840490
_cell_angle_gamma   89.92028023
_symmetry_Int_Tables_number   1
_chemical_formula_structural   In2Te3
_chemical_formula_sum   'In72 Te108'
_cell_volume   6936.67987456
_cell_formula_units_Z   36
loop_
 _symmetry_equiv_pos_site_id
 _symmetry_equiv_pos_as_xyz
  1  'x, y, z'
loop_
 _atom_site_type_symbol
 _atom_site_label
 _atom_site_symmetry_multiplicity
 _atom_site_fract_x
 _atom_site_fract_y
 _atom_site_fract_z
 _atom_site_occupancy
  In  In0  1  0.16872541  0.32636499  0.84056604  1
  In  In1  1  0.82273605  0.64364451  0.83503026  1
  In  In2  1  0.49670709  0.66346833  0.16546417  1
  In  In3  1  0.02568858  0.52097376  0.51817653  1
  In  In4  1  0.50547713  0.50000340  0.32105303  1
  In  In5  1  0.48318854  0.14850468  0.67982099  1
  In  In6  1  0.49813837  0.82036512  0.33676195  1
  In  In7  1  0.31214354  -0.01181847  0.69365951  1
  In  In8  1  0.15716951  0.15245727  0.36206071  1
  In  In9  1  0.68942540  0.32147207  0.34937895  1
  In  In10  1  0.17633846  0.69250390  0.52494691  1
  In  In11  1  0.00617011  0.64420005  0.01572880  1
  In  In12  1  0.66675101  0.01142095  0.67352813  1
  In  In13  1  0.84813423  0.67787950  0.13803712  1
  In  In14  1  0.83385635  0.18253435  0.67094927  1
  In  In15  1  0.66647998  0.49733684  0.12743339  1
  In  In16  1  0.68112753  -0.00410793  -0.02780412  1
  In  In17  1  0.66314763  0.16033290  0.12816047  1
  In  In18  1  0.16114875  0.49657160  0.00594563  1
  In  In19  1  0.81849216  -0.02119826  0.49157053  1
  In  In20  1  0.99207162  -0.00922885  0.78830128  1
  In  In21  1  0.16027699  0.30910217  0.50233380  1
  In  In22  1  0.00037621  0.14975696  0.53651849  1
  In  In23  1  0.15743604  0.81377280  -0.04325627  1
  In  In24  1  0.67980573  0.82234849  0.48146891  1
  In  In25  1  0.01031904  0.84327178  0.17071079  1
  In  In26  1  0.64540863  0.03862030  0.33241079  1
  In  In27  1  0.13983424  0.14300969  -0.01844393  1
  In  In28  1  0.48351022  0.35000951  0.85441920  1
  In  In29  1  0.83411183  0.33502825  0.15667398  1
  In  In30  1  0.33541914  0.49456873  0.50151007  1
  In  In31  1  0.17682405  0.82418991  0.36081653  1
  In  In32  1  0.62856070  0.40178216  0.75480022  1
  In  In33  1  0.85703517  0.16536512  0.33416956  1
  In  In34  1  0.32089790  0.12992043  0.50560194  1
  In  In35  1  0.35000980  0.33322185  0.68659835  1
  In  In36  1  0.63827605  0.67352489  0.67127409  1
  In  In37  1  0.34805640  0.17864823  0.15763802  1
  In  In38  1  0.17027973  0.33946021  0.17911303  1
  In  In39  1  0.47832263  0.85907418  0.67351928  1
  In  In40  1  0.82884840  0.84110288  0.30320965  1
  In  In41  1  0.64983672  0.80026483  0.83692327  1
  In  In42  1  0.32727420  0.80446233  0.19039799  1
  In  In43  1  0.33307637  0.50654933  0.16167050  1
  In  In44  1  0.19569005  0.49606818  0.70543567  1
  In  In45  1  0.80507924  0.51749794  0.67487298  1
  In  In46  1  -0.04406327  0.34137702  -0.02203845  1
  In  In47  1  0.52508383  0.34703595  0.53489494  1
  In  In48  1  0.70567982  0.84196699  0.14114843  1
  In  In49  1  0.30989518  -0.01224865  0.35470160  1
  In  In50  1  0.49147829  0.16665666  -0.00004549  1
  In  In51  1  0.03245365  0.16499582  0.16114481  1
  In  In52  1  0.84656200  0.82532971  -0.03788021  1
  In  In53  1  -0.00956817  0.49517530  0.17953278  1
  In  In54  1  0.35018560  0.81447256  0.84689219  1
  In  In55  1  0.28236272  -0.02591942  -0.05977609  1
  In  In56  1  -0.02076269  0.33732027  0.68843196  1
  In  In57  1  0.45560037  0.68231052  0.50530203  1
  In  In58  1  0.82946379  0.50216179  0.33900498  1
  In  In59  1  0.19844674  -0.01876508  0.16859658  1
  In  In60  1  0.16772728  0.49926025  0.34009261  1
  In  In61  1  0.68061497  0.20889246  0.85026447  1
  In  In62  1  0.33191844  0.34498363  0.02396377  1
  In  In63  1  0.85150322  0.02428757  0.15131840  1
  In  In64  1  0.31208568  0.67173091  0.67823894  1
  In  In65  1  0.83062059  0.34284559  0.49257790  1
  In  In66  1  0.50655556  -0.01162279  0.15076896  1
  In  In67  1  0.86393870  0.65569421  0.51817530  1
  In  In68  1  0.64595635  0.17040334  0.52935695  1
  In  In69  1  0.49659217  0.35810482  0.15162903  1
  In  In70  1  0.65393215  0.65261309  0.31694085  1
  In  In71  1  -0.01869084  0.73133133  0.67946873  1
  Te  Te72  1  0.08846528  0.04682726  0.08528865  1
  Te  Te73  1  0.08341397  0.06243572  0.45082944  1
  Te  Te74  1  0.10960307  0.05862991  0.72494263  1
  Te  Te75  1  0.06680650  0.39578254  0.08433430  1
  Te  Te76  1  0.07940564  0.41234129  0.42677635  1
  Te  Te77  1  0.07774016  0.42271543  0.76571279  1
  Te  Te78  1  0.08888116  0.75301406  0.07851552  1
  Te  Te79  1  0.07302521  0.75309685  0.43996529  1
  Te  Te80  1  0.10463666  0.80168752  0.73092849  1
  Te  Te81  1  0.40191392  0.06708812  0.07096724  1
  Te  Te82  1  0.41386018  0.07235766  0.41001387  1
  Te  Te83  1  0.41339840  0.06175368  0.77488400  1
  Te  Te84  1  0.43107675  0.45438431  0.05691999  1
  Te  Te85  1  0.43786095  0.41484821  0.42573071  1
  Te  Te86  1  0.41102494  0.43939905  0.76405248  1
  Te  Te87  1  0.42191867  0.76225634  0.08910230  1
  Te  Te88  1  0.38568050  0.77170919  0.41399795  1
  Te  Te89  1  0.43820473  0.73147197  0.74392501  1
  Te  Te90  1  0.77014615  0.09414090  0.04429923  1
  Te  Te91  1  0.74782244  0.10483836  0.42930200  1
  Te  Te92  1  0.74798179  0.09938408  0.76421059  1
  Te  Te93  1  0.74535625  0.39524132  0.05843404  1
  Te  Te94  1  0.72865026  0.44056243  0.43290260  1
  Te  Te95  1  0.77918034  0.39155947  0.75026377  1
  Te  Te96  1  0.74822519  0.73711824  0.04270040  1
  Te  Te97  1  0.76262490  0.73461584  0.39111779  1
  Te  Te98  1  0.75170311  0.74260777  0.74125098  1
  Te  Te99  1  0.08621811  0.25373145  0.27001173  1
  Te  Te100  1  0.08161170  0.24929348  0.61447854  1
  Te  Te101  1  0.05785188  0.24938261  0.91148507  1
  Te  Te102  1  0.08946625  0.57832496  0.24468279  1
  Te  Te103  1  0.11178631  0.59134752  0.61755806  1
  Te  Te104  1  0.07063724  0.56383853  0.91297625  1
  Te  Te105  1  0.10014400  0.91869488  0.26262899  1
  Te  Te106  1  0.06906120  0.93550496  0.65487998  1
  Te  Te107  1  0.05822387  0.92325271  0.91358497  1
  Te  Te108  1  0.41882486  0.27377500  0.24067272  1
  Te  Te109  1  0.41827365  0.24485103  0.57928502  1
  Te  Te110  1  0.39294462  0.24891445  0.92229423  1
  Te  Te111  1  0.40515669  0.59544355  0.26286102  1
  Te  Te112  1  0.40904461  0.57698425  0.60246921  1
  Te  Te113  1  0.47697450  0.61841732  0.84770153  1
  Te  Te114  1  0.41260977  0.92324623  0.25024478  1
  Te  Te115  1  0.37850220  0.91432603  0.58165032  1
  Te  Te116  1  0.41753780  0.93520001  0.89990382  1
  Te  Te117  1  0.75111963  0.22631043  0.24046276  1
  Te  Te118  1  0.74068307  0.26978289  0.58984505  1
  Te  Te119  1  0.79320072  0.28044217  0.91490020  1
  Te  Te120  1  0.75903867  0.58331199  0.23033365  1
  Te  Te121  1  0.73541776  0.60413429  0.57131569  1
  Te  Te122  1  0.72119663  0.55408567  0.89228656  1
  Te  Te123  1  0.73637329  0.96331080  0.23628702  1
  Te  Te124  1  0.74045546  0.90152629  0.59435335  1
  Te  Te125  1  0.75826618  0.90943768  0.87723244  1
  Te  Te126  1  0.22943932  0.23978578  0.07310088  1
  Te  Te127  1  0.26357764  0.24393615  0.41660394  1
  Te  Te128  1  0.25276475  0.24673048  0.75064900  1
  Te  Te129  1  0.24299075  0.58852719  0.08351328  1
  Te  Te130  1  0.24617094  0.59078499  0.43030552  1
  Te  Te131  1  0.24489860  0.60476168  0.79200219  1
  Te  Te132  1  0.25292733  0.88964979  0.06198128  1
  Te  Te133  1  0.20718405  0.94055826  0.44758143  1
  Te  Te134  1  0.23972456  0.87248063  0.76045771  1
  Te  Te135  1  0.58209860  0.26909138  0.06262451  1
  Te  Te136  1  0.57903143  0.25075413  0.42073427  1
  Te  Te137  1  0.57155830  0.25066400  0.74985211  1
  Te  Te138  1  0.58303479  0.59896752  0.06688657  1
  Te  Te139  1  0.55918938  0.60193764  0.42040595  1
  Te  Te140  1  0.61281252  0.58106490  0.78911882  1
  Te  Te141  1  0.59529674  0.90749250  0.05901420  1
  Te  Te142  1  0.58918125  0.92028386  0.40735378  1
  Te  Te143  1  0.58501873  0.91820117  0.75962073  1
  Te  Te144  1  0.92374312  0.23549900  0.08485680  1
  Te  Te145  1  0.93137732  0.24599165  0.43571653  1
  Te  Te146  1  0.94108762  0.21758690  0.76341294  1
  Te  Te147  1  0.89969197  0.55222346  0.07224633  1
  Te  Te148  1  0.93588021  0.58182354  0.40892932  1
  Te  Te149  1  0.91984297  0.59582904  0.72844852  1
  Te  Te150  1  0.90503082  0.90264383  0.08089515  1
  Te  Te151  1  0.90847316  0.92286511  0.39202356  1
  Te  Te152  1  0.93065363  0.86576864  0.73266318  1
  Te  Te153  1  0.25208628  0.09949646  0.24717722  1
  Te  Te154  1  0.23589204  0.09562707  0.62022770  1
  Te  Te155  1  0.21416649  0.08287418  0.87052519  1
  Te  Te156  1  0.26840817  0.41425903  0.26343865  1
  Te  Te157  1  0.24188319  0.40852779  0.58553996  1
  Te  Te158  1  0.25800475  0.42143414  0.91734212  1
  Te  Te159  1  0.22055241  0.73273741  0.25487496  1
  Te  Te160  1  0.27398700  0.78365976  0.58811807  1
  Te  Te161  1  0.26182631  0.71759794  0.91750055  1
  Te  Te162  1  0.56098562  0.10690521  0.22749901  1
  Te  Te163  1  0.55847546  0.05966704  0.57994210  1
  Te  Te164  1  0.58997985  0.09845781  0.90866320  1
  Te  Te165  1  0.61019550  0.41370116  0.25015604  1
  Te  Te166  1  0.58982105  0.44477037  0.61853769  1
  Te  Te167  1  0.60378625  0.42263304  0.89985495  1
  Te  Te168  1  0.60768240  0.77282778  0.23597332  1
  Te  Te169  1  0.56661692  0.77073433  0.57046505  1
  Te  Te170  1  0.54579566  0.73298798  0.91410865  1
  Te  Te171  1  0.94793875  0.07660693  0.25491050  1
  Te  Te172  1  0.89136335  0.06389454  0.59445719  1
  Te  Te173  1  0.95818889  0.03151906  0.92522085  1
  Te  Te174  1  0.91276659  0.39799990  0.26842510  1
  Te  Te175  1  0.91591317  0.43195188  0.58050881  1
  Te  Te176  1  0.87455945  0.40555833  0.87269332  1
  Te  Te177  1  0.92914322  0.74043327  0.24730323  1
  Te  Te178  1  0.93812509  0.77782478  0.54498792  1
  Te  Te179  1  0.93669284  0.72264181  0.90426699  1
