# generated using pymatgen
data_In2Te3
_symmetry_space_group_name_H-M   'P 1'
_cell_length_a   18.78035468
_cell_length_b   18.78804133
_cell_length_c   18.78969989
_cell_angle_alpha   90.03190319
_cell_angle_beta   89.91374968
_cell_angle_gamma   90.00321217
_symmetry_Int_Tables_number   1
_chemical_formula_structural   In2Te3
_chemical_formula_sum   'In72 Te108'
_cell_volume   6629.86340041
_cell_formula_units_Z   36
loop_
 _symmetry_equiv_pos_site_id
 _symmetry_equiv_pos_as_xyz
  1  'x, y, z'
loop_
 _atom_site_type_symbol
 _atom_site_label
 _atom_site_symmetry_multiplicity
 _atom_site_fract_x
 _atom_site_fract_y
 _atom_site_fract_z
 _atom_site_occupancy
  In  In0  1  -0.00742703  0.67835336  0.33037253  1
  In  In1  1  -0.03017747  0.00473975  0.67737277  1
  In  In2  1  0.01287797  0.02786718  0.36167173  1
  In  In3  1  -0.01106736  0.82347092  0.15107863  1
  In  In4  1  0.67673633  0.68388710  0.35026645  1
  In  In5  1  -0.00221269  0.85490948  0.51533469  1
  In  In6  1  0.49278752  0.49774573  0.67951822  1
  In  In7  1  0.51779824  0.52649275  0.33627115  1
  In  In8  1  0.15217755  0.49902747  0.67365498  1
  In  In9  1  0.32748973  0.51266149  0.49471963  1
  In  In10  1  0.47804095  0.32921782  0.15703095  1
  In  In11  1  0.82497053  0.32393173  0.14848994  1
  In  In12  1  0.15677227  0.83885008  0.33816609  1
  In  In13  1  0.50185762  0.49083698  0.01345483  1
  In  In14  1  0.30074223  0.84222176  0.83312739  1
  In  In15  1  0.50391777  0.19349255  0.35148733  1
  In  In16  1  0.85271505  -0.00623945  0.16899116  1
  In  In17  1  0.84219407  0.16477460  -0.02121260  1
  In  In18  1  0.70450899  0.50627785  0.83503360  1
  In  In19  1  0.66439706  0.30121348  0.33919353  1
  In  In20  1  0.50781549  0.83511845  0.65086319  1
  In  In21  1  -0.01816421  0.33568872  -0.00903297  1
  In  In22  1  0.50925961  0.17794320  0.67470982  1
  In  In23  1  0.01384173  0.31598758  0.34230360  1
  In  In24  1  0.34105861  0.65891450  0.34170307  1
  In  In25  1  0.84330156  0.32059788  0.51700982  1
  In  In26  1  0.33841186  0.17828207  0.83322338  1
  In  In27  1  0.68056279  0.16770960  0.17523580  1
  In  In28  1  0.81547210  0.01759727  0.80541582  1
  In  In29  1  0.69103125  0.00372771  0.33609893  1
  In  In30  1  0.13065269  0.70852210  0.82778880  1
  In  In31  1  0.71019182  0.52224319  0.53333324  1
  In  In32  1  0.50942377  0.83231244  0.01270066  1
  In  In33  1  0.16595835  0.00845049  0.15013296  1
  In  In34  1  0.51053623  -0.00280981  0.14247499  1
  In  In35  1  0.15265535  0.32298730  0.81539863  1
  In  In36  1  0.50216735  0.82838885  0.34307943  1
  In  In37  1  0.15549159  0.16822025  0.01391013  1
  In  In38  1  0.49798128  0.65926810  0.17131550  1
  In  In39  1  0.34196340  0.48583370  0.83368578  1
  In  In40  1  0.18387537  0.50942056  -0.00912506  1
  In  In41  1  0.84936929  0.00075431  0.50110572  1
  In  In42  1  0.50539098  0.01528961  0.52235463  1
  In  In43  1  0.51569371  0.02192349  0.82588431  1
  In  In44  1  0.68683026  0.31783773  -0.02732818  1
  In  In45  1  0.51553513  0.32431511  0.49046035  1
  In  In46  1  0.69555654  0.83714140  0.82795599  1
  In  In47  1  0.70315871  0.81415398  0.12420135  1
  In  In48  1  0.31949321  0.68396580  0.66914581  1
  In  In49  1  0.30000225  0.33072083  0.35272062  1
  In  In50  1  -0.00929702  0.67396462  -0.02560191  1
  In  In51  1  0.49701751  0.14444490  -0.01245845  1
  In  In52  1  0.84328687  0.83296777  0.66924282  1
  In  In53  1  0.66558662  0.32420633  0.68929297  1
  In  In54  1  0.33728521  0.00421792  -0.00079943  1
  In  In55  1  -0.00791477  0.48940584  0.51542412  1
  In  In56  1  0.14840227  0.65386601  0.16956545  1
  In  In57  1  0.29804992  0.14215399  0.52985314  1
  In  In58  1  0.13119635  0.31285658  0.52131814  1
  In  In59  1  -0.03474255  0.50813752  0.80214852  1
  In  In60  1  0.00382755  0.51593316  0.15552799  1
  In  In61  1  0.31632315  0.85513587  0.14853905  1
  In  In62  1  0.31156237  0.01332396  0.32245495  1
  In  In63  1  0.32654091  0.33134888  0.68440379  1
  In  In64  1  0.65329532  0.51075692  0.16717855  1
  In  In65  1  0.51122501  0.65154132  0.83231390  1
  In  In66  1  0.31253250  0.83227624  0.49641338  1
  In  In67  1  0.17239734  0.31593032  0.17995144  1
  In  In68  1  0.83151236  0.49609495  0.33319751  1
  In  In69  1  0.13521676  -0.02276315  0.83923865  1
  In  In70  1  0.68687269  0.81519047  0.51836239  1
  In  In71  1  0.86284495  0.51323216  -0.01321811  1
  Te  Te72  1  0.06031868  0.06836129  0.06538876  1
  Te  Te73  1  0.11282057  0.10116609  0.44065631  1
  Te  Te74  1  0.05231230  0.09397605  0.77551816  1
  Te  Te75  1  0.08388426  0.41581976  0.07272542  1
  Te  Te76  1  0.09231040  0.42000663  0.42056384  1
  Te  Te77  1  0.05239855  0.39941238  0.73185846  1
  Te  Te78  1  0.09140565  0.74717422  0.06631562  1
  Te  Te79  1  0.08116337  0.74954441  0.43258658  1
  Te  Te80  1  0.05614148  0.75346306  0.71047439  1
  Te  Te81  1  0.40347736  0.09643598  0.10083218  1
  Te  Te82  1  0.40936278  0.08651095  0.42126001  1
  Te  Te83  1  0.40659107  0.08051528  0.73690315  1
  Te  Te84  1  0.39176007  0.42270059  0.08401414  1
  Te  Te85  1  0.42480953  0.42009463  0.41176788  1
  Te  Te86  1  0.43970673  0.38713059  0.76960815  1
  Te  Te87  1  0.40530558  0.74720386  0.08435856  1
  Te  Te88  1  0.42495530  0.74214306  0.43957513  1
  Te  Te89  1  0.42070626  0.75656683  0.76113708  1
  Te  Te90  1  0.75900974  0.08216225  0.08054034  1
  Te  Te91  1  0.75923405  0.09505439  0.42743957  1
  Te  Te92  1  0.74517809  0.10818759  0.71197777  1
  Te  Te93  1  0.75126736  0.43367342  0.07125048  1
  Te  Te94  1  0.74100187  0.40970349  0.42245351  1
  Te  Te95  1  0.77190110  0.42256118  0.73014721  1
  Te  Te96  1  0.77634552  0.72661554  0.03269909  1
  Te  Te97  1  0.78207563  0.75706093  0.42215339  1
  Te  Te98  1  0.75848263  0.72903394  0.74155476  1
  Te  Te99  1  0.07193208  0.22596524  0.24037348  1
  Te  Te100  1  0.04407334  0.22084051  0.60016235  1
  Te  Te101  1  0.06563913  0.23896394  0.90835528  1
  Te  Te102  1  0.08329719  0.56642566  0.27499738  1
  Te  Te103  1  0.07357248  0.58962352  0.58984742  1
  Te  Te104  1  0.07525308  0.56504223  0.89602361  1
  Te  Te105  1  0.07492180  0.92362059  0.24341479  1
  Te  Te106  1  0.08467640  0.95297927  0.58840905  1
  Te  Te107  1  0.04340085  0.88223609  0.90895371  1
  Te  Te108  1  0.39681287  0.25120853  0.26064746  1
  Te  Te109  1  0.40626012  0.25232287  0.57121582  1
  Te  Te110  1  0.41966429  0.25494520  0.92940589  1
  Te  Te111  1  0.40367229  0.56155576  0.24084921  1
  Te  Te112  1  0.41614754  0.59306098  0.58950928  1
  Te  Te113  1  0.41184902  0.58434953  0.92615615  1
  Te  Te114  1  0.41912316  0.91825087  0.24948975  1
  Te  Te115  1  0.40157389  0.92310421  0.58603421  1
  Te  Te116  1  0.42720180  0.91690617  0.91158350  1
  Te  Te117  1  0.78178821  0.23602338  0.26710471  1
  Te  Te118  1  0.76580469  0.23377724  0.61869725  1
  Te  Te119  1  0.76831749  0.24275485  0.87566006  1
  Te  Te120  1  0.75092245  0.59501033  0.24836514  1
  Te  Te121  1  0.79529268  0.61279321  0.61191036  1
  Te  Te122  1  0.76880062  0.61308631  0.92257286  1
  Te  Te123  1  0.75245823  0.90245621  0.24401127  1
  Te  Te124  1  0.75151538  0.92902925  0.59603246  1
  Te  Te125  1  0.78042702  0.92153491  0.91477033  1
  Te  Te126  1  0.25713339  0.25612466  0.07370031  1
  Te  Te127  1  0.21719388  0.21884958  0.42128581  1
  Te  Te128  1  0.22978800  0.22365958  0.72863375  1
  Te  Te129  1  0.25543471  0.59110271  0.08950331  1
  Te  Te130  1  0.23411962  0.60208992  0.42563428  1
  Te  Te131  1  0.24753225  0.58195148  0.76060212  1
  Te  Te132  1  0.22411371  0.91134780  0.04375374  1
  Te  Te133  1  0.22819821  0.94031966  0.42687619  1
  Te  Te134  1  0.22950883  0.92561243  0.73553492  1
  Te  Te135  1  0.59520654  0.25756646  0.08494871  1
  Te  Te136  1  0.61568171  0.21406901  0.45563890  1
  Te  Te137  1  0.58174580  0.24605885  0.78381771  1
  Te  Te138  1  0.59288331  0.60484006  0.06452152  1
  Te  Te139  1  0.59911259  0.59130010  0.44465967  1
  Te  Te140  1  0.60634178  0.58003259  0.73838404  1
  Te  Te141  1  0.61746402  0.92915885  0.06098437  1
  Te  Te142  1  0.58898759  0.92078632  0.42727671  1
  Te  Te143  1  0.59464435  0.91887979  0.74446503  1
  Te  Te144  1  0.92911647  0.23128320  0.08917539  1
  Te  Te145  1  0.92135346  0.23526587  0.42475760  1
  Te  Te146  1  0.96941155  0.21443190  0.73524157  1
  Te  Te147  1  0.90731045  0.61512419  0.09549356  1
  Te  Te148  1  0.91134689  0.58503340  0.42472218  1
  Te  Te149  1  0.87827204  0.61394295  0.74587495  1
  Te  Te150  1  0.91666822  0.91518441  0.05958987  1
  Te  Te151  1  0.91865248  0.91128841  0.39824789  1
  Te  Te152  1  0.96520956  0.87184750  0.76794805  1
  Te  Te153  1  0.24102084  0.10556633  0.23345208  1
  Te  Te154  1  0.20015166  0.05981758  0.60208636  1
  Te  Te155  1  0.24298647  0.07905397  0.90494775  1
  Te  Te156  1  0.23781692  0.42394932  0.25785783  1
  Te  Te157  1  0.24684634  0.40868439  0.57833274  1
  Te  Te158  1  0.24894982  0.39394874  0.91231243  1
  Te  Te159  1  0.25467377  0.75739925  0.25152980  1
  Te  Te160  1  0.22285950  0.76133409  0.59028007  1
  Te  Te161  1  0.24277290  0.73746073  0.91821247  1
  Te  Te162  1  0.57519116  0.08622532  0.25692269  1
  Te  Te163  1  0.60535851  0.08000786  0.61288821  1
  Te  Te164  1  0.61180618  0.08526884  0.91785510  1
  Te  Te165  1  0.58435458  0.40426826  0.25605037  1
  Te  Te166  1  0.58821112  0.41980769  0.58448695  1
  Te  Te167  1  0.59733469  0.42599183  0.91177110  1
  Te  Te168  1  0.59096231  0.76303189  0.23682760  1
  Te  Te169  1  0.59135262  0.72989182  0.59097374  1
  Te  Te170  1  0.59213734  0.75507064  0.91033639  1
  Te  Te171  1  0.92469228  0.08761972  0.25948245  1
  Te  Te172  1  0.92886460  0.10806625  0.57458643  1
  Te  Te173  1  0.92476438  0.07392261  0.89222655  1
  Te  Te174  1  0.92016642  0.41414220  0.23758995  1
  Te  Te175  1  0.89721307  0.42249591  0.61176218  1
  Te  Te176  1  0.89152925  0.39971757  0.88775269  1
  Te  Te177  1  0.89868203  0.75322097  0.24542547  1
  Te  Te178  1  0.93623735  0.74035418  0.59226520  1
  Te  Te179  1  0.92233643  0.78125683  0.89510256  1
