# generated using pymatgen
data_In2Te3
_symmetry_space_group_name_H-M   'P 1'
_cell_length_a   19.01863897
_cell_length_b   18.97716170
_cell_length_c   19.04052315
_cell_angle_alpha   89.66429739
_cell_angle_beta   90.22248781
_cell_angle_gamma   89.98486000
_symmetry_Int_Tables_number   1
_chemical_formula_structural   In2Te3
_chemical_formula_sum   'In72 Te108'
_cell_volume   6871.93150804
_cell_formula_units_Z   36
loop_
 _symmetry_equiv_pos_site_id
 _symmetry_equiv_pos_as_xyz
  1  'x, y, z'
loop_
 _atom_site_type_symbol
 _atom_site_label
 _atom_site_symmetry_multiplicity
 _atom_site_fract_x
 _atom_site_fract_y
 _atom_site_fract_z
 _atom_site_occupancy
  In  In0  1  0.00323620  0.34103515  0.00661450  1
  In  In1  1  0.16110660  0.30686648  0.17508591  1
  In  In2  1  -0.00684572  0.64819960  0.64588993  1
  In  In3  1  0.65554932  0.14907924  0.85650833  1
  In  In4  1  0.81346963  0.16118848  0.67125408  1
  In  In5  1  0.84482650  0.11934354  -0.02894824  1
  In  In6  1  -0.01458286  -0.00057140  0.64018396  1
  In  In7  1  0.50559475  0.33505839  0.50053849  1
  In  In8  1  0.81935653  0.67291351  0.15991075  1
  In  In9  1  0.00086721  0.70280689  0.01179541  1
  In  In10  1  0.11494348  0.90476971  0.04850384  1
  In  In11  1  0.65340101  0.52454656  0.81568445  1
  In  In12  1  0.67436078  0.00469221  0.65754233  1
  In  In13  1  0.52682277  0.70168367  0.82757598  1
  In  In14  1  0.71058961  0.86745147  0.14869625  1
  In  In15  1  -0.01294185  0.15600593  0.82312202  1
  In  In16  1  0.67416786  0.12269177  0.17029052  1
  In  In17  1  0.31025948  0.00398602  0.01573703  1
  In  In18  1  0.68910269  0.52067812  0.48978348  1
  In  In19  1  0.69642655  0.30495687  0.00848377  1
  In  In20  1  -0.00204814  0.52654839  0.84490238  1
  In  In21  1  0.33201798  0.82754171  0.85532953  1
  In  In22  1  0.67775830  0.85612704  0.85423934  1
  In  In23  1  0.16898137  -0.00671913  0.48514988  1
  In  In24  1  -0.01019733  0.48171621  0.18616783  1
  In  In25  1  0.18899827  0.52293614  0.35209815  1
  In  In26  1  -0.00962427  0.13627137  0.17792052  1
  In  In27  1  0.83957943  0.82477180  0.66940548  1
  In  In28  1  0.18011533  0.34920254  0.51077783  1
  In  In29  1  0.16414294  0.52776091  0.67166887  1
  In  In30  1  0.15044148  0.69060976  0.85140240  1
  In  In31  1  -0.02969774  0.85930984  0.18717121  1
  In  In32  1  0.14874608  0.20577616  0.68848996  1
  In  In33  1  0.32864626  -0.01945437  0.68732780  1
  In  In34  1  0.82905322  0.51079686  -0.01283855  1
  In  In35  1  -0.00001460  0.50382681  0.49179041  1
  In  In36  1  0.48826704  0.15190975  -0.00896100  1
  In  In37  1  0.64851735  0.35865489  0.68527520  1
  In  In38  1  0.82683768  0.34714442  0.48411859  1
  In  In39  1  0.51124362  0.15152098  0.30475672  1
  In  In40  1  0.67818990  0.17841443  0.47277223  1
  In  In41  1  0.50707193  0.51000626  -0.01430233  1
  In  In42  1  0.52524561  0.81614576  0.63254109  1
  In  In43  1  0.48507756  0.14570939  0.66162037  1
  In  In44  1  0.51314723  0.65907430  0.16521913  1
  In  In45  1  0.14966855  0.15499843  0.01731479  1
  In  In46  1  0.49597786  0.33499106  0.15886161  1
  In  In47  1  0.84758813  0.30953138  0.17324740  1
  In  In48  1  0.82606344  0.68344088  0.48539751  1
  In  In49  1  0.83398819  0.16127200  0.34149614  1
  In  In50  1  0.17336135  0.35777620  0.83624151  1
  In  In51  1  0.00135790  0.33713230  0.63062199  1
  In  In52  1  0.33087721  0.79891092  0.19943977  1
  In  In53  1  0.36071578  0.32836100  0.32474569  1
  In  In54  1  0.35575498  0.66304182  0.64779734  1
  In  In55  1  0.33978505  0.50823614  0.16662191  1
  In  In56  1  0.51115043  -0.01922428  0.46144072  1
  In  In57  1  0.32213755  0.18070173  0.51743611  1
  In  In58  1  0.49887997  0.79861730  0.33667234  1
  In  In59  1  0.32885788  0.65323269  0.01485654  1
  In  In60  1  0.01142377  0.68245045  0.34668695  1
  In  In61  1  0.33194195  0.00406182  0.33481658  1
  In  In62  1  0.33867275  0.49344766  0.81891977  1
  In  In63  1  0.15546229  0.14023170  0.33376065  1
  In  In64  1  0.67745147  0.66937214  0.31865826  1
  In  In65  1  0.51505212  0.48507095  0.33472374  1
  In  In66  1  0.84283365  -0.02873704  0.47290631  1
  In  In67  1  0.50149361  0.33337071  0.84902579  1
  In  In68  1  0.33225132  0.83920748  0.48007998  1
  In  In69  1  0.83387080  0.68651135  0.84652979  1
  In  In70  1  0.50647749  0.00403245  0.85093546  1
  In  In71  1  0.18226486  0.82906029  0.68395326  1
  Te  Te72  1  0.07912216  0.04820762  0.09797030  1
  Te  Te73  1  0.05748908  0.06059906  0.41132368  1
  Te  Te74  1  0.08183831  0.08045122  0.73342041  1
  Te  Te75  1  0.09419491  0.41957873  0.09508025  1
  Te  Te76  1  0.09120708  0.41737708  0.40928714  1
  Te  Te77  1  0.06689486  0.43105703  0.73717219  1
  Te  Te78  1  0.07651950  0.77147558  0.12015086  1
  Te  Te79  1  0.08039950  0.79887658  0.40301550  1
  Te  Te80  1  0.06802663  0.74583150  0.73742181  1
  Te  Te81  1  0.42396730  0.06413914  0.08701464  1
  Te  Te82  1  0.41510718  0.10262431  0.42480774  1
  Te  Te83  1  0.40175326  0.08380844  0.77108350  1
  Te  Te84  1  0.41284434  0.42223350  0.06637341  1
  Te  Te85  1  0.40507008  0.42611970  0.42935857  1
  Te  Te86  1  0.44641769  0.42574305  0.74948624  1
  Te  Te87  1  0.42060645  0.74973289  0.08670287  1
  Te  Te88  1  0.41535472  0.72561133  0.43519357  1
  Te  Te89  1  0.41518070  0.77540694  0.74067494  1
  Te  Te90  1  0.78094207  0.06167609  0.08971920  1
  Te  Te91  1  0.73463395  0.05777112  0.40529362  1
  Te  Te92  1  0.75315584  0.06464899  0.77146955  1
  Te  Te93  1  0.77013447  0.41138448  0.08541763  1
  Te  Te94  1  0.73271838  0.41635770  0.39812352  1
  Te  Te95  1  0.74995527  0.43194365  0.75870287  1
  Te  Te96  1  0.78682897  0.77144363  0.04893845  1
  Te  Te97  1  0.73953367  0.77262304  0.40455297  1
  Te  Te98  1  0.73442099  0.75704198  0.75616108  1
  Te  Te99  1  0.05950228  0.23944904  0.26329533  1
  Te  Te100  1  0.08620959  0.23671848  0.55552300  1
  Te  Te101  1  0.07501512  0.25646265  0.90282749  1
  Te  Te102  1  0.08142406  0.57915001  0.26022634  1
  Te  Te103  1  0.10196039  0.59832658  0.55200618  1
  Te  Te104  1  0.08752506  0.59007844  0.94535790  1
  Te  Te105  1  0.04009147  0.94306024  0.29013722  1
  Te  Te106  1  0.09532085  0.90905510  0.58751764  1
  Te  Te107  1  0.04787254  0.89139984  0.92000726  1
  Te  Te108  1  0.40838157  0.22880822  0.22307878  1
  Te  Te109  1  0.41384493  0.26620212  0.60087599  1
  Te  Te110  1  0.40687412  0.25084597  0.92176094  1
  Te  Te111  1  0.42482608  0.58589616  0.26277164  1
  Te  Te112  1  0.37092022  0.53718623  0.57942597  1
  Te  Te113  1  0.42575702  0.60873575  0.90181691  1
  Te  Te114  1  0.42109693  0.90545257  0.26181574  1
  Te  Te115  1  0.42042878  0.93103187  0.57252774  1
  Te  Te116  1  0.41642796  0.91936723  0.93760768  1
  Te  Te117  1  0.73906077  0.23578022  0.24862397  1
  Te  Te118  1  0.73008943  0.26060047  0.58889837  1
  Te  Te119  1  0.77273026  0.23612863  0.89941616  1
  Te  Te120  1  0.75067760  0.57208525  0.23916561  1
  Te  Te121  1  0.74331184  0.61677970  0.58928705  1
  Te  Te122  1  0.72988183  0.60380488  0.91980566  1
  Te  Te123  1  0.77840954  0.94120768  0.25403765  1
  Te  Te124  1  0.74877885  0.90481392  0.57467084  1
  Te  Te125  1  0.79116912  0.89337623  0.94257446  1
  Te  Te126  1  0.24628931  0.24806446  0.07482331  1
  Te  Te127  1  0.24942544  0.25226610  0.40495061  1
  Te  Te128  1  0.25869041  0.27102381  0.75493041  1
  Te  Te129  1  0.23873548  0.60179229  0.11696101  1
  Te  Te130  1  0.27208269  0.63874025  0.39022244  1
  Te  Te131  1  0.24853923  0.61425566  0.76386840  1
  Te  Te132  1  0.25198557  0.90291019  0.11491770  1
  Te  Te133  1  0.23194960  0.89979351  0.38310275  1
  Te  Te134  1  0.23246320  0.92322505  0.79003770  1
  Te  Te135  1  0.58891815  0.23068927  0.08316061  1
  Te  Te136  1  0.57729816  0.25773818  0.39228975  1
  Te  Te137  1  0.58438341  0.22618542  0.74686512  1
  Te  Te138  1  0.59672680  0.58148926  0.07494748  1
  Te  Te139  1  0.58230139  0.59657632  0.41127367  1
  Te  Te140  1  0.56196225  0.60002152  0.72360119  1
  Te  Te141  1  0.61480910  0.91264204  0.04560069  1
  Te  Te142  1  0.59663818  0.86721587  0.42608597  1
  Te  Te143  1  0.57359347  0.92477611  0.73909874  1
  Te  Te144  1  0.92317294  0.22690889  0.06738225  1
  Te  Te145  1  0.91503107  0.24631242  0.42831096  1
  Te  Te146  1  0.91731975  0.25556467  0.72802188  1
  Te  Te147  1  0.92573381  0.58328117  0.08047685  1
  Te  Te148  1  0.90764634  0.58459741  0.40424509  1
  Te  Te149  1  0.89908224  0.58978223  0.74935783  1
  Te  Te150  1  0.88095244  0.89654025  0.07066394  1
  Te  Te151  1  0.95784224  0.89395808  0.41071996  1
  Te  Te152  1  0.90605663  0.93197787  0.74179860  1
  Te  Te153  1  0.24846740  0.07969688  0.24159165  1
  Te  Te154  1  0.24900893  0.07258163  0.59252234  1
  Te  Te155  1  0.22900691  0.08144899  0.92077739  1
  Te  Te156  1  0.25300256  0.41217400  0.25633064  1
  Te  Te157  1  0.25966879  0.43137874  0.60601507  1
  Te  Te158  1  0.25087251  0.44440824  0.92380116  1
  Te  Te159  1  0.23010546  0.72944512  0.28061093  1
  Te  Te160  1  0.25282543  0.75056633  0.57759300  1
  Te  Te161  1  0.23780528  0.76076175  0.95193179  1
  Te  Te162  1  0.58327401  0.03869794  0.24898427  1
  Te  Te163  1  0.58437584  0.08611180  0.56258157  1
  Te  Te164  1  0.61303337  0.04179887  0.95678993  1
  Te  Te165  1  0.58977882  0.42057019  0.22856288  1
  Te  Te166  1  0.58655209  0.43832406  0.57418979  1
  Te  Te167  1  0.61019672  0.40342643  0.92673229  1
  Te  Te168  1  0.60395985  0.77034697  0.21997894  1
  Te  Te169  1  0.59171540  0.69111665  0.59797035  1
  Te  Te170  1  0.58087546  0.78267983  0.93952670  1
  Te  Te171  1  0.88546284  0.05361304  0.24847407  1
  Te  Te172  1  0.88863619  0.08783111  0.56378388  1
  Te  Te173  1  0.96276394  0.04643632  0.92031353  1
  Te  Te174  1  0.91194655  0.39462897  0.27239185  1
  Te  Te175  1  0.89892222  0.43802280  0.58263573  1
  Te  Te176  1  0.91508634  0.41526195  0.90770936  1
  Te  Te177  1  0.89989336  0.74769463  0.26165537  1
  Te  Te178  1  0.92923299  0.75964587  0.56662435  1
  Te  Te179  1  0.94642850  0.77535083  0.89174651  1
