# generated using pymatgen
data_In2Te3
_symmetry_space_group_name_H-M   'P 1'
_cell_length_a   18.83016777
_cell_length_b   18.83099648
_cell_length_c   18.84738839
_cell_angle_alpha   89.95782223
_cell_angle_beta   89.91590221
_cell_angle_gamma   89.98539092
_symmetry_Int_Tables_number   1
_chemical_formula_structural   In2Te3
_chemical_formula_sum   'In72 Te108'
_cell_volume   6683.10173410
_cell_formula_units_Z   36
loop_
 _symmetry_equiv_pos_site_id
 _symmetry_equiv_pos_as_xyz
  1  'x, y, z'
loop_
 _atom_site_type_symbol
 _atom_site_label
 _atom_site_symmetry_multiplicity
 _atom_site_fract_x
 _atom_site_fract_y
 _atom_site_fract_z
 _atom_site_occupancy
  In  In0  1  0.47097872  0.85264934  -0.03159385  1
  In  In1  1  0.00470592  0.67122040  0.32308464  1
  In  In2  1  0.82854801  0.81545039  -0.01657378  1
  In  In3  1  0.65896388  0.50908823  0.82244256  1
  In  In4  1  0.52312744  0.67662768  0.52040566  1
  In  In5  1  0.33233211  0.32458313  0.65595522  1
  In  In6  1  0.66365769  0.04842674  0.36854127  1
  In  In7  1  0.18122708  0.85067761  0.69363113  1
  In  In8  1  0.82829097  0.00909715  0.18444676  1
  In  In9  1  0.18642894  -0.00373531  0.51391948  1
  In  In10  1  0.66939445  0.35565092  -0.01141937  1
  In  In11  1  0.01060488  0.17129762  0.82770153  1
  In  In12  1  0.33852107  0.47744549  0.17240984  1
  In  In13  1  0.83531151  0.67115136  0.81507612  1
  In  In14  1  0.16789294  0.14386717  0.66871324  1
  In  In15  1  0.84160486  0.83358210  0.34551963  1
  In  In16  1  0.81282961  0.65158341  0.52256895  1
  In  In17  1  0.34311241  0.01183363  0.35684224  1
  In  In18  1  0.15533518  0.14743431  -0.00623822  1
  In  In19  1  0.14855181  0.33436450  0.15514372  1
  In  In20  1  0.15979015  0.68153944  0.82532896  1
  In  In21  1  0.68908245  -0.00280794  -0.00982232  1
  In  In22  1  0.34583337  0.50870247  0.82590747  1
  In  In23  1  0.49287102  0.33403352  0.16529077  1
  In  In24  1  0.00031109  0.84878791  0.14932403  1
  In  In25  1  0.17616256  0.33177338  0.50919929  1
  In  In26  1  0.80572564  0.33166975  0.82166051  1
  In  In27  1  0.02308226  -0.02094039  -0.02744136  1
  In  In28  1  0.67537342  -0.00852234  0.65589584  1
  In  In29  1  0.68588649  0.30813346  0.63352868  1
  In  In30  1  0.13198460  0.66899378  0.15737666  1
  In  In31  1  0.68232266  0.50944339  0.16138920  1
  In  In32  1  0.15755785  0.64888307  0.49877415  1
  In  In33  1  -0.00443759  0.50587014  0.50606505  1
  In  In34  1  0.31977417  0.65550501  0.32666962  1
  In  In35  1  0.49712071  0.18429232  0.67416091  1
  In  In36  1  0.32518235  0.67029269  -0.03063181  1
  In  In37  1  0.33655005  0.15252016  0.81867992  1
  In  In38  1  0.30721048  0.82712390  0.14558787  1
  In  In39  1  0.50846555  0.87200683  0.34059188  1
  In  In40  1  0.33262460  0.32823193  -0.00451274  1
  In  In41  1  -0.00550151  0.50393623  0.81865745  1
  In  In42  1  0.16233731  0.18916253  0.34551629  1
  In  In43  1  0.69062707  0.84224609  0.14783952  1
  In  In44  1  0.50473701  0.83138336  0.67578292  1
  In  In45  1  0.51451107  0.47905190  0.36199525  1
  In  In46  1  -0.02375338  0.30409202  0.00064304  1
  In  In47  1  0.67152769  0.66289666  0.33389410  1
  In  In48  1  -0.00992513  0.02782014  0.31594352  1
  In  In49  1  0.65536925  0.14168685  0.81377142  1
  In  In50  1  0.15445193  0.00204711  0.15912509  1
  In  In51  1  0.50080705  0.16435678  0.00843276  1
  In  In52  1  0.52454278  0.49184994  0.66109720  1
  In  In53  1  0.52360621  0.65773441  0.15622881  1
  In  In54  1  0.32772585  0.34171367  0.35899293  1
  In  In55  1  0.81061475  0.46668646  0.35115270  1
  In  In56  1  0.15451442  0.54743322  0.33523521  1
  In  In57  1  0.66092897  0.68092235  -0.02312217  1
  In  In58  1  0.36502920  0.15916921  0.17581370  1
  In  In59  1  0.86241646  0.51796693  0.02755957  1
  In  In60  1  -0.00353388  0.84539094  0.50262127  1
  In  In61  1  0.35375668  0.82460186  0.49561425  1
  In  In62  1  -0.01529497  0.35806441  0.65406466  1
  In  In63  1  0.82688763  -0.02392521  0.82522939  1
  In  In64  1  0.50120787  0.00926213  0.51856501  1
  In  In65  1  0.84154119  0.82908645  0.67376532  1
  In  In66  1  0.17209964  0.51479401  -0.00045920  1
  In  In67  1  -0.03314207  0.14114195  0.52923317  1
  In  In68  1  0.34193277  0.67353939  0.67764336  1
  In  In69  1  0.51033804  0.01774952  0.17357988  1
  In  In70  1  0.83452634  0.15624819  0.01903852  1
  In  In71  1  -0.01108290  0.32404847  0.34539316  1
  Te  Te72  1  0.05035919  0.08320116  0.08226426  1
  Te  Te73  1  0.08584286  0.08519509  0.42772289  1
  Te  Te74  1  0.06917499  0.06496250  0.74508862  1
  Te  Te75  1  0.06886106  0.41683757  0.05896421  1
  Te  Te76  1  0.08757898  0.42149549  0.41170276  1
  Te  Te77  1  0.08423144  0.41018582  0.74883262  1
  Te  Te78  1  0.08290019  0.76617448  0.05915502  1
  Te  Te79  1  0.08845189  0.75830089  0.41610793  1
  Te  Te80  1  0.07277453  0.75846762  0.73327031  1
  Te  Te81  1  0.40339906  0.06167283  0.06645078  1
  Te  Te82  1  0.45108137  0.09458556  0.40791048  1
  Te  Te83  1  0.44311993  0.07187160  0.75467140  1
  Te  Te84  1  0.42874317  0.42692266  0.06151446  1
  Te  Te85  1  0.42449053  0.40427766  0.45290019  1
  Te  Te86  1  0.42566498  0.40860147  0.74475606  1
  Te  Te87  1  0.42297110  0.74601144  0.08166968  1
  Te  Te88  1  0.43472043  0.73753015  0.39935797  1
  Te  Te89  1  0.39848083  0.77523977  0.77057634  1
  Te  Te90  1  0.72476737  0.09054059  0.10320704  1
  Te  Te91  1  0.75925713  0.13148071  0.44686917  1
  Te  Te92  1  0.77954541  0.09355402  0.73927259  1
  Te  Te93  1  0.77053663  0.40866825  0.08919349  1
  Te  Te94  1  0.71182444  0.37384191  0.41640108  1
  Te  Te95  1  0.75044412  0.43315977  0.72381441  1
  Te  Te96  1  0.76016601  0.72359038  0.08641765  1
  Te  Te97  1  0.74380993  0.75534279  0.43214732  1
  Te  Te98  1  0.73436833  0.74013239  0.72944643  1
  Te  Te99  1  0.06716076  0.23703384  0.23877509  1
  Te  Te100  1  0.07209677  0.24369424  0.58062648  1
  Te  Te101  1  0.09703822  0.26258149  0.91444957  1
  Te  Te102  1  0.04661374  0.55505863  0.22035685  1
  Te  Te103  1  0.07976286  0.57905798  0.60168939  1
  Te  Te104  1  0.07251740  0.59375818  0.91568049  1
  Te  Te105  1  0.07965307  0.91611794  0.26072535  1
  Te  Te106  1  0.08046075  0.92767249  0.59861172  1
  Te  Te107  1  0.12965059  0.89775883  0.91305098  1
  Te  Te108  1  0.42609986  0.25501946  0.27723436  1
  Te  Te109  1  0.43102539  0.25992644  0.56506630  1
  Te  Te110  1  0.42404020  0.24670326  0.90619433  1
  Te  Te111  1  0.43446646  0.57183279  0.25345671  1
  Te  Te112  1  0.42103563  0.58497914  0.58385661  1
  Te  Te113  1  0.43276696  0.59002284  0.91214396  1
  Te  Te114  1  0.40358832  0.91751674  0.23811956  1
  Te  Te115  1  0.40481441  0.92138876  0.59858769  1
  Te  Te116  1  0.37997926  0.90673120  0.86142069  1
  Te  Te117  1  0.69604176  0.26787891  0.30247812  1
  Te  Te118  1  0.78610353  0.21237719  0.57749387  1
  Te  Te119  1  0.74173605  0.22879614  0.91797933  1
  Te  Te120  1  0.77453204  0.58575570  0.25317864  1
  Te  Te121  1  0.77056824  0.52967257  0.59593231  1
  Te  Te122  1  0.76519067  0.57374810  0.92173958  1
  Te  Te123  1  0.73333216  0.92386353  0.26987871  1
  Te  Te124  1  0.78762886  0.93201491  0.57644694  1
  Te  Te125  1  0.72564279  0.88509655  0.89491294  1
  Te  Te126  1  0.25439453  0.23915519  0.09326168  1
  Te  Te127  1  0.26909717  0.22811584  0.44457782  1
  Te  Te128  1  0.23938386  0.24939043  0.75263920  1
  Te  Te129  1  0.26143600  0.58937713  0.10026621  1
  Te  Te130  1  0.26853491  0.56241505  0.43524070  1
  Te  Te131  1  0.24001081  0.58125750  0.74288012  1
  Te  Te132  1  0.24214929  0.93096076  0.06364703  1
  Te  Te133  1  0.25270809  0.90306995  0.41094186  1
  Te  Te134  1  0.25142985  0.95112367  0.77907511  1
  Te  Te135  1  0.59487935  0.25697207  0.08291776  1
  Te  Te136  1  0.62319950  0.23934863  0.42545857  1
  Te  Te137  1  0.59811782  0.26841655  0.75435314  1
  Te  Te138  1  0.58950738  0.56724827  0.05541373  1
  Te  Te139  1  0.60569443  0.57485259  0.43934072  1
  Te  Te140  1  0.58125299  0.60363018  0.73942053  1
  Te  Te141  1  0.57598960  0.91157555  0.07709957  1
  Te  Te142  1  0.60275747  0.92067178  0.44472892  1
  Te  Te143  1  0.58242089  0.93255863  0.75329311  1
  Te  Te144  1  0.89678849  0.25102992  0.11327670  1
  Te  Te145  1  0.90288779  0.23862340  0.43397315  1
  Te  Te146  1  0.91375323  0.25645888  0.74508219  1
  Te  Te147  1  0.96029607  0.60218171  0.09552340  1
  Te  Te148  1  0.90777533  0.58920668  0.40876830  1
  Te  Te149  1  0.90451842  0.57485783  0.72534411  1
  Te  Te150  1  0.89405847  0.92896439  0.06991649  1
  Te  Te151  1  0.91231881  0.94471320  0.41995471  1
  Te  Te152  1  0.93450669  0.88590504  0.77676426  1
  Te  Te153  1  0.24697045  0.08838114  0.25476118  1
  Te  Te154  1  0.27667432  0.08483794  0.58784032  1
  Te  Te155  1  0.23268920  0.06913327  0.89272600  1
  Te  Te156  1  0.23105499  0.41252750  0.25982395  1
  Te  Te157  1  0.23969735  0.42657635  0.60021221  1
  Te  Te158  1  0.24931692  0.42018834  0.90838531  1
  Te  Te159  1  0.22845940  0.75031679  0.25129057  1
  Te  Te160  1  0.24729417  0.75453587  0.58136395  1
  Te  Te161  1  0.23175120  0.77618431  0.91979861  1
  Te  Te162  1  0.59174570  0.11124820  0.25444061  1
  Te  Te163  1  0.59781701  0.10289648  0.58840136  1
  Te  Te164  1  0.57375499  0.06417323  0.91709960  1
  Te  Te165  1  0.59296069  0.41779027  0.24569623  1
  Te  Te166  1  0.59014125  0.39884811  0.56425442  1
  Te  Te167  1  0.57232809  0.41292061  0.89590627  1
  Te  Te168  1  0.58903682  0.76162971  0.24793068  1
  Te  Te169  1  0.61468597  0.75709015  0.60441519  1
  Te  Te170  1  0.55986923  0.75549733  0.90063534  1
  Te  Te171  1  0.88642584  0.11892685  0.26336145  1
  Te  Te172  1  0.88441335  0.05601053  0.61887880  1
  Te  Te173  1  0.91392939  0.07993407  0.91299180  1
  Te  Te174  1  0.90294812  0.40379340  0.25479905  1
  Te  Te175  1  0.88279541  0.42187925  0.56204282  1
  Te  Te176  1  0.90219128  0.40818693  0.91229390  1
  Te  Te177  1  0.91186576  0.75673946  0.23579163  1
  Te  Te178  1  0.92442267  0.73669659  0.58236911  1
  Te  Te179  1  0.93008384  0.75308781  0.89711136  1
