# generated using pymatgen
data_In2Te3
_symmetry_space_group_name_H-M   'P 1'
_cell_length_a   18.82375348
_cell_length_b   18.83253150
_cell_length_c   18.83945281
_cell_angle_alpha   89.89961931
_cell_angle_beta   89.92540698
_cell_angle_gamma   90.00127808
_symmetry_Int_Tables_number   1
_chemical_formula_structural   In2Te3
_chemical_formula_sum   'In72 Te108'
_cell_volume   6678.54995593
_cell_formula_units_Z   36
loop_
 _symmetry_equiv_pos_site_id
 _symmetry_equiv_pos_as_xyz
  1  'x, y, z'
loop_
 _atom_site_type_symbol
 _atom_site_label
 _atom_site_symmetry_multiplicity
 _atom_site_fract_x
 _atom_site_fract_y
 _atom_site_fract_z
 _atom_site_occupancy
  In  In0  1  0.51954942  0.49827446  0.34152721  1
  In  In1  1  0.52144148  -0.00996489  0.84551757  1
  In  In2  1  0.50408631  0.51282304  0.67472140  1
  In  In3  1  0.69598675  -0.01473052  0.64283374  1
  In  In4  1  0.32676250  0.17048036  0.85392223  1
  In  In5  1  0.02795169  0.84250855  0.17351021  1
  In  In6  1  0.82885423  0.67298168  0.17433433  1
  In  In7  1  0.33194854  0.67611949  0.01094080  1
  In  In8  1  -0.01179327  0.31692368  0.66406243  1
  In  In9  1  0.67112344  0.01348147  0.01051251  1
  In  In10  1  0.66566958  0.32171214  -0.01663066  1
  In  In11  1  0.48362008  0.68425668  0.15009297  1
  In  In12  1  0.82841048  0.00640067  0.83461197  1
  In  In13  1  0.17060307  0.34271395  0.13998713  1
  In  In14  1  0.17094390  0.50211929  -0.00644986  1
  In  In15  1  0.36141524  0.16685774  0.49678849  1
  In  In16  1  -0.00870219  0.15809747  0.16161045  1
  In  In17  1  -0.02918888  0.84814609  0.84316130  1
  In  In18  1  0.48361173  0.00579072  0.17461506  1
  In  In19  1  0.33009204  0.84320613  0.48773264  1
  In  In20  1  0.31420852  0.69726346  0.32737481  1
  In  In21  1  0.67871323  0.68371630  0.36433869  1
  In  In22  1  -0.00953847  0.65118202  0.67279512  1
  In  In23  1  0.49702876  0.84037337  0.32022193  1
  In  In24  1  0.02468488  -0.00947445  0.02617989  1
  In  In25  1  0.85689174  0.84710181  -0.02088306  1
  In  In26  1  0.66144114  -0.00664326  0.34975984  1
  In  In27  1  -0.00428052  0.19448818  0.84364768  1
  In  In28  1  0.34303131  0.65879169  0.68285441  1
  In  In29  1  0.69643002  0.51308414  0.51263609  1
  In  In30  1  0.48610949  0.82112657  -0.01231251  1
  In  In31  1  0.31883328  0.00382769  0.66784988  1
  In  In32  1  0.85063040  0.47523770  -0.03667843  1
  In  In33  1  0.49354886  0.47554102  -0.00540127  1
  In  In34  1  0.16030928  0.14040660  0.33277466  1
  In  In35  1  0.16685164  0.01551247  0.84486451  1
  In  In36  1  0.34867539  0.50724318  0.14317469  1
  In  In37  1  0.14632247  0.17522295  0.69335227  1
  In  In38  1  0.68142906  0.85752073  0.18171731  1
  In  In39  1  0.16092196  0.67350815  0.49808693  1
  In  In40  1  0.15188873  0.48073004  0.67357462  1
  In  In41  1  0.34042113  0.33913990  0.33097450  1
  In  In42  1  -0.05213632  0.01904746  0.64247539  1
  In  In43  1  0.83057323  0.15303937  0.32529765  1
  In  In44  1  0.16346754  0.33492474  0.85005885  1
  In  In45  1  0.50557080  0.17345553  0.66069404  1
  In  In46  1  0.48942149  0.00923378  0.49429041  1
  In  In47  1  0.84071443  0.32105715  0.16605400  1
  In  In48  1  0.16592572  -0.00165371  0.47878649  1
  In  In49  1  0.50710490  0.31782492  0.48572697  1
  In  In50  1  0.82046090  0.16152748  0.00122244  1
  In  In51  1  0.48882980  0.33396125  0.82549974  1
  In  In52  1  0.15566586  0.52568169  0.33444265  1
  In  In53  1  -0.01161618  0.67148846  0.35549598  1
  In  In54  1  0.52270219  0.33762318  0.14653033  1
  In  In55  1  0.66437226  0.49598990  0.18057224  1
  In  In56  1  0.17563288  0.67844304  0.85533952  1
  In  In57  1  0.67835210  0.33230257  0.67035061  1
  In  In58  1  -0.00368990  0.34158673  0.32579758  1
  In  In59  1  0.81990893  0.33120895  0.49980915  1
  In  In60  1  0.32905053  0.17008249  0.14914689  1
  In  In61  1  0.01605384  0.49339060  0.16818970  1
  In  In62  1  0.16043760  0.32522914  0.52512412  1
  In  In63  1  0.50080185  0.65190242  0.83463202  1
  In  In64  1  -0.03007805  0.85381976  0.47461302  1
  In  In65  1  0.68486795  0.65455794  -0.01356809  1
  In  In66  1  0.82507961  0.49151850  0.65791327  1
  In  In67  1  0.51556247  0.15583285  0.34336217  1
  In  In68  1  0.52475034  0.79490680  0.66388672  1
  In  In69  1  -0.01686726  0.67460886  -0.00272318  1
  In  In70  1  0.15683938  0.85527462  0.67934493  1
  In  In71  1  0.83016345  0.66218511  0.49457607  1
  Te  Te72  1  0.10824126  0.08986204  0.09866118  1
  Te  Te73  1  0.05603698  0.08273996  0.42258061  1
  Te  Te74  1  0.05892898  0.06209621  0.74701537  1
  Te  Te75  1  0.06297374  0.40775302  0.05238326  1
  Te  Te76  1  0.09140669  0.41639623  0.41798317  1
  Te  Te77  1  0.05036760  0.41029312  0.77305886  1
  Te  Te78  1  0.08732499  0.75239072  0.06537052  1
  Te  Te79  1  0.08681607  0.77391243  0.41230917  1
  Te  Te80  1  0.07222618  0.75413620  0.75651708  1
  Te  Te81  1  0.41271816  0.07803922  0.06708770  1
  Te  Te82  1  0.39699512  0.06785806  0.38813027  1
  Te  Te83  1  0.41797697  0.08504912  0.75001518  1
  Te  Te84  1  0.39785311  0.38403787  0.07158504  1
  Te  Te85  1  0.41458435  0.42749809  0.42855800  1
  Te  Te86  1  0.40803155  0.43400712  0.75352113  1
  Te  Te87  1  0.38587428  0.78740288  0.10317182  1
  Te  Te88  1  0.42582537  0.74528196  0.41977014  1
  Te  Te89  1  0.41737294  0.76282045  0.76583569  1
  Te  Te90  1  0.77231416  0.06652118  0.10293356  1
  Te  Te91  1  0.75259945  0.07959226  0.43453240  1
  Te  Te92  1  0.73465359  0.08043052  0.75022087  1
  Te  Te93  1  0.74984386  0.42154617  0.07837121  1
  Te  Te94  1  0.74115164  0.41784707  0.40981444  1
  Te  Te95  1  0.76886582  0.40248361  0.76316834  1
  Te  Te96  1  0.75147453  0.76232013  0.07571884  1
  Te  Te97  1  0.77886472  0.78189739  0.41586853  1
  Te  Te98  1  0.79170944  0.79459246  0.78683964  1
  Te  Te99  1  0.09366950  0.25674959  0.24421335  1
  Te  Te100  1  0.06239477  0.21803383  0.57335516  1
  Te  Te101  1  0.11433287  0.21728265  0.92749673  1
  Te  Te102  1  0.07544098  0.61233863  0.24007963  1
  Te  Te103  1  0.07681048  0.57244636  0.57438278  1
  Te  Te104  1  0.07086542  0.58312160  0.91058965  1
  Te  Te105  1  0.10862892  0.94163733  0.25622518  1
  Te  Te106  1  0.06768570  0.92793804  0.58156351  1
  Te  Te107  1  0.09171463  0.90377632  0.92009951  1
  Te  Te108  1  0.42936021  0.24591964  0.24982177  1
  Te  Te109  1  0.40883572  0.27156554  0.59531730  1
  Te  Te110  1  0.43593625  0.23850198  0.92556591  1
  Te  Te111  1  0.42246813  0.58308720  0.25331564  1
  Te  Te112  1  0.43375951  0.60516715  0.58175716  1
  Te  Te113  1  0.40282815  0.57442526  0.92172631  1
  Te  Te114  1  0.39273342  0.91368531  0.24757655  1
  Te  Te115  1  0.41815843  0.91173207  0.59420054  1
  Te  Te116  1  0.41219464  0.93514629  0.92952836  1
  Te  Te117  1  0.74551311  0.23634331  0.23822879  1
  Te  Te118  1  0.76646620  0.23268498  0.59968741  1
  Te  Te119  1  0.77148345  0.25830401  0.90156078  1
  Te  Te120  1  0.75098734  0.58349859  0.27024627  1
  Te  Te121  1  0.74116864  0.61914010  0.61512477  1
  Te  Te122  1  0.75084381  0.56104137  0.89276643  1
  Te  Te123  1  0.77182137  0.91815008  0.28086574  1
  Te  Te124  1  0.74173476  0.87248369  0.55604789  1
  Te  Te125  1  0.73544845  0.90873688  0.90910408  1
  Te  Te126  1  0.24318552  0.24831820  0.05370588  1
  Te  Te127  1  0.24973397  0.24681770  0.41324038  1
  Te  Te128  1  0.25577214  0.25993521  0.74877148  1
  Te  Te129  1  0.23456361  0.59481200  0.09790134  1
  Te  Te130  1  0.26307479  0.58799673  0.42295122  1
  Te  Te131  1  0.23794826  0.57884858  0.75784474  1
  Te  Te132  1  0.17844018  0.88219025  0.13855396  1
  Te  Te133  1  0.24339779  0.91026106  0.38711153  1
  Te  Te134  1  0.25960385  0.91286771  0.77338905  1
  Te  Te135  1  0.59248372  0.23121794  0.07414323  1
  Te  Te136  1  0.60889673  0.22787290  0.43083856  1
  Te  Te137  1  0.59442131  0.24179691  0.76110740  1
  Te  Te138  1  0.57728860  0.57867417  0.08003255  1
  Te  Te139  1  0.58371588  0.59353576  0.44103353  1
  Te  Te140  1  0.60449048  0.59326799  0.74793135  1
  Te  Te141  1  0.57617736  0.90726752  0.08400359  1
  Te  Te142  1  0.57750330  0.89830761  0.43546680  1
  Te  Te143  1  0.59164021  0.91286979  0.73491601  1
  Te  Te144  1  0.92836471  0.25482097  0.06205572  1
  Te  Te145  1  0.91649282  0.24813876  0.41206712  1
  Te  Te146  1  0.89743446  0.22704329  0.73994993  1
  Te  Te147  1  0.90299845  0.57410307  0.08284481  1
  Te  Te148  1  0.91482108  0.56420923  0.42331933  1
  Te  Te149  1  0.90345744  0.56982604  0.75818938  1
  Te  Te150  1  0.91111671  0.92042118  0.09845533  1
  Te  Te151  1  0.92123024  0.96131225  0.38669602  1
  Te  Te152  1  0.88435076  0.89921610  0.72260837  1
  Te  Te153  1  0.23426769  0.07506661  0.22063560  1
  Te  Te154  1  0.24240572  0.09819918  0.57796427  1
  Te  Te155  1  0.26541563  0.06618877  0.94230003  1
  Te  Te156  1  0.24882338  0.42932955  0.24652121  1
  Te  Te157  1  0.25196712  0.42477969  0.58144959  1
  Te  Te158  1  0.26441953  0.42316283  0.91189139  1
  Te  Te159  1  0.22417466  0.77556115  0.24570905  1
  Te  Te160  1  0.24473891  0.75997402  0.59568870  1
  Te  Te161  1  0.26373991  0.77353773  0.92337604  1
  Te  Te162  1  0.59821082  0.08026928  0.24021431  1
  Te  Te163  1  0.59246410  0.08365567  0.57568176  1
  Te  Te164  1  0.59285145  0.09654619  0.91778087  1
  Te  Te165  1  0.59812763  0.38958954  0.26862225  1
  Te  Te166  1  0.58986952  0.41379245  0.57571404  1
  Te  Te167  1  0.59342093  0.42455393  0.89560947  1
  Te  Te168  1  0.59417976  0.73767776  0.24214000  1
  Te  Te169  1  0.64482021  0.75637627  0.58724913  1
  Te  Te170  1  0.59419176  0.75012233  0.90708232  1
  Te  Te171  1  0.93781335  0.06206404  0.26603646  1
  Te  Te172  1  0.85228248  0.09041716  0.55563176  1
  Te  Te173  1  0.93298968  0.07190408  0.92587389  1
  Te  Te174  1  0.90243936  0.43386507  0.25034101  1
  Te  Te175  1  0.92562159  0.41815337  0.56989508  1
  Te  Te176  1  0.95337664  0.39486632  0.89706810  1
  Te  Te177  1  0.91885782  0.76216952  0.25428069  1
  Te  Te178  1  0.92221488  0.75096417  0.58046988  1
  Te  Te179  1  0.88253393  0.71970437  0.88626241  1
