# generated using pymatgen
data_In2Te3
_symmetry_space_group_name_H-M   'P 1'
_cell_length_a   18.77252648
_cell_length_b   18.77711640
_cell_length_c   18.77838890
_cell_angle_alpha   89.96794422
_cell_angle_beta   90.01864814
_cell_angle_gamma   89.96013413
_symmetry_Int_Tables_number   1
_chemical_formula_structural   In2Te3
_chemical_formula_sum   'In72 Te108'
_cell_volume   6619.26482654
_cell_formula_units_Z   36
loop_
 _symmetry_equiv_pos_site_id
 _symmetry_equiv_pos_as_xyz
  1  'x, y, z'
loop_
 _atom_site_type_symbol
 _atom_site_label
 _atom_site_symmetry_multiplicity
 _atom_site_fract_x
 _atom_site_fract_y
 _atom_site_fract_z
 _atom_site_occupancy
  In  In0  1  0.33909439  0.32311099  0.32238191  1
  In  In1  1  0.51634289  0.16563475  0.68662049  1
  In  In2  1  -0.00413203  0.65002703  -0.00650773  1
  In  In3  1  0.32245659  -0.04206928  0.01639516  1
  In  In4  1  0.32956605  0.64073089  0.67586546  1
  In  In5  1  -0.00973564  0.16642125  0.85402969  1
  In  In6  1  0.83808493  0.50174677  0.32823207  1
  In  In7  1  0.00153192  0.18242637  0.15658294  1
  In  In8  1  0.32330735  0.49671262  0.51273016  1
  In  In9  1  0.81424528  0.00075153  0.16784335  1
  In  In10  1  0.16961233  0.66029933  0.18210754  1
  In  In11  1  0.50275539  0.82007009  0.67102196  1
  In  In12  1  0.52124845  0.81485647  0.31001031  1
  In  In13  1  0.83355716  0.49361311  0.00686227  1
  In  In14  1  0.82591272  0.33624560  0.51898160  1
  In  In15  1  0.81642924  0.83560266  0.33741406  1
  In  In16  1  0.34279636  0.50692478  0.86692342  1
  In  In17  1  0.64440607  0.48169432  0.85212688  1
  In  In18  1  -0.00281466  0.34017224  0.00661161  1
  In  In19  1  0.66621964  0.81859783  0.50112837  1
  In  In20  1  0.65470998  0.00201744  0.32335647  1
  In  In21  1  0.36135877  0.69513657  0.01339935  1
  In  In22  1  0.82234894  0.33433397  0.84491372  1
  In  In23  1  0.01529884  -0.02656824  0.33155730  1
  In  In24  1  0.51425011  -0.00408545  0.16483486  1
  In  In25  1  0.33809045  0.82133950  0.49249789  1
  In  In26  1  0.14839236  0.82783880  0.66142004  1
  In  In27  1  0.01183836  0.82734147  0.15921169  1
  In  In28  1  0.81708472  0.66262820  0.15213317  1
  In  In29  1  0.32146318  0.17706458  0.14886741  1
  In  In30  1  -0.00735945  -0.01778396  0.66320630  1
  In  In31  1  0.15894087  0.48698708  0.00346398  1
  In  In32  1  0.18954254  0.18179748  0.66180485  1
  In  In33  1  0.00007939  0.34416651  0.30703784  1
  In  In34  1  0.84048807  0.83108648  0.67793916  1
  In  In35  1  0.34274022  0.18735781  0.82838236  1
  In  In36  1  0.68052932  0.33224690  0.31743310  1
  In  In37  1  0.81217811  0.52082795  0.65302523  1
  In  In38  1  0.02340307  0.37756818  0.69798887  1
  In  In39  1  0.15875363  0.81962851  0.32140508  1
  In  In40  1  0.16461358  0.00214616  0.83367035  1
  In  In41  1  -0.00640112  0.64912381  0.34928776  1
  In  In42  1  0.66621876  -0.00288157  0.66731508  1
  In  In43  1  0.51238037  0.51576608  0.67797416  1
  In  In44  1  0.52804673  0.53871769  0.34632431  1
  In  In45  1  0.82134270  0.16950449  0.32480958  1
  In  In46  1  0.51883126  0.18366817  0.01137367  1
  In  In47  1  0.33862270  0.66049169  0.32562377  1
  In  In48  1  0.50409525  0.34927519  0.51208488  1
  In  In49  1  0.48527267  0.15074342  0.31378990  1
  In  In50  1  0.33707239  0.82604252  0.84786250  1
  In  In51  1  0.32358545  0.36905080  0.66437632  1
  In  In52  1  0.33712891  0.16756425  0.48755143  1
  In  In53  1  0.01827205  0.64387372  0.65486688  1
  In  In54  1  0.65029576  0.67568994  0.01192124  1
  In  In55  1  -0.00786841  0.81900518  0.50781198  1
  In  In56  1  -0.00417226  0.00096330  -0.01002943  1
  In  In57  1  0.34199815  0.02067535  0.65670225  1
  In  In58  1  0.66668409  0.82734104  0.85079290  1
  In  In59  1  0.17372783  0.48783967  0.33847416  1
  In  In60  1  0.16576928  0.18620543  -0.00366150  1
  In  In61  1  0.36081318  0.47928548  0.14151916  1
  In  In62  1  0.17542476  0.34137270  0.49001014  1
  In  In63  1  0.83404230  0.67817771  0.82443253  1
  In  In64  1  0.82625651  0.17001280  0.66650863  1
  In  In65  1  0.00852070  0.15444315  0.49463007  1
  In  In66  1  0.65834548  0.19139709  0.84623273  1
  In  In67  1  -0.00257846  0.82687483  0.84087334  1
  In  In68  1  0.67256548  0.16955184  0.49233535  1
  In  In69  1  0.32334509  0.00989530  0.32192439  1
  In  In70  1  0.66125881  -0.01540523  0.00681822  1
  In  In71  1  0.65649500  0.50212033  0.15387712  1
  Te  Te72  1  0.09005457  0.08346092  0.07806557  1
  Te  Te73  1  0.09328770  0.07865134  0.40112631  1
  Te  Te74  1  0.08073395  0.08983075  0.73979901  1
  Te  Te75  1  0.07877614  0.41487836  0.10450677  1
  Te  Te76  1  0.06338742  0.42207274  0.42228811  1
  Te  Te77  1  0.11064341  0.46331362  0.78058410  1
  Te  Te78  1  0.09619431  0.73695533  0.07009880  1
  Te  Te79  1  0.09215324  0.73461277  0.42952816  1
  Te  Te80  1  0.08837843  0.73319828  0.76357459  1
  Te  Te81  1  0.41647635  0.07797720  0.07730684  1
  Te  Te82  1  0.42773553  0.06330681  0.42388497  1
  Te  Te83  1  0.42751069  0.07318338  0.77044540  1
  Te  Te84  1  0.46271188  0.40520821  0.05846605  1
  Te  Te85  1  0.41361392  0.42674133  0.40769845  1
  Te  Te86  1  0.42361596  0.42333010  0.76343545  1
  Te  Te87  1  0.45794591  0.77488880  0.09603431  1
  Te  Te88  1  0.43748743  0.73582578  0.41432993  1
  Te  Te89  1  0.41933241  0.72954438  0.76210783  1
  Te  Te90  1  0.72846522  0.09058501  0.08801346  1
  Te  Te91  1  0.75668227  0.06647985  0.41746589  1
  Te  Te92  1  0.74486766  0.08643641  0.76210619  1
  Te  Te93  1  0.73774025  0.40328093  0.07603248  1
  Te  Te94  1  0.74190977  0.42055439  0.42395639  1
  Te  Te95  1  0.74202766  0.42125109  0.74938739  1
  Te  Te96  1  0.75134580  0.76648263  0.07191000  1
  Te  Te97  1  0.74006533  0.72784957  0.40644920  1
  Te  Te98  1  0.72987197  0.74419814  0.73580315  1
  Te  Te99  1  0.09743308  0.25565498  0.24170298  1
  Te  Te100  1  0.07986181  0.26095327  0.58836216  1
  Te  Te101  1  0.08705417  0.27296536  0.89907651  1
  Te  Te102  1  0.07281625  0.56401361  0.24964547  1
  Te  Te103  1  0.10516318  0.56863186  0.56528472  1
  Te  Te104  1  0.08074347  0.56745896  0.90144020  1
  Te  Te105  1  0.11469773  0.92794137  0.21453439  1
  Te  Te106  1  0.08975516  0.92591504  0.56049633  1
  Te  Te107  1  0.09876076  0.90288535  0.92751756  1
  Te  Te108  1  0.43167622  0.25818952  0.22086921  1
  Te  Te109  1  0.40610638  0.25325723  0.59318693  1
  Te  Te110  1  0.43041089  0.26470293  0.91963161  1
  Te  Te111  1  0.43076317  0.58270214  0.23364633  1
  Te  Te112  1  0.42784675  0.58988803  0.57034960  1
  Te  Te113  1  0.44413150  0.58930710  0.94207669  1
  Te  Te114  1  0.41673408  0.91452716  0.24929642  1
  Te  Te115  1  0.42205570  0.91489702  0.58072146  1
  Te  Te116  1  0.42860243  0.91060528  0.92734808  1
  Te  Te117  1  0.75935950  0.25324420  0.22089658  1
  Te  Te118  1  0.72194489  0.26192197  0.60338677  1
  Te  Te119  1  0.75570553  0.24847323  0.94444818  1
  Te  Te120  1  0.73305555  0.58959978  0.25422194  1
  Te  Te121  1  0.70344381  0.58658650  0.57456302  1
  Te  Te122  1  0.74960885  0.58589204  0.91728659  1
  Te  Te123  1  0.72246889  0.89722314  0.23497313  1
  Te  Te124  1  0.75882249  0.91451442  0.57912279  1
  Te  Te125  1  0.76102145  0.91765018  0.91915575  1
  Te  Te126  1  0.26029386  0.28248045  0.06158105  1
  Te  Te127  1  0.23652860  0.23730147  0.39631984  1
  Te  Te128  1  0.24146730  0.28169137  0.76314089  1
  Te  Te129  1  0.26081817  0.58292583  0.08402199  1
  Te  Te130  1  0.24257819  0.59442489  0.42312331  1
  Te  Te131  1  0.24093041  0.56681247  0.77120861  1
  Te  Te132  1  0.23379670  0.89603367  0.11208455  1
  Te  Te133  1  0.24476954  0.91020300  0.41078285  1
  Te  Te134  1  0.25036249  0.91800260  0.73608081  1
  Te  Te135  1  0.58782800  0.30217467  0.07493552  1
  Te  Te136  1  0.56974979  0.24859481  0.40941103  1
  Te  Te137  1  0.58022576  0.27811319  0.75433338  1
  Te  Te138  1  0.55746093  0.56323445  0.05663268  1
  Te  Te139  1  0.62020202  0.60439749  0.44179172  1
  Te  Te140  1  0.58795531  0.59584479  0.77691839  1
  Te  Te141  1  0.57041027  0.88456988  0.07769138  1
  Te  Te142  1  0.57578538  0.91246041  0.41719927  1
  Te  Te143  1  0.57565296  0.91930282  0.76020458  1
  Te  Te144  1  0.90389681  0.23578801  0.05895135  1
  Te  Te145  1  0.91048060  0.25360971  0.41886259  1
  Te  Te146  1  0.92394013  0.25960206  0.74258456  1
  Te  Te147  1  0.92657096  0.56910223  0.10258564  1
  Te  Te148  1  0.90211417  0.57695219  0.43878748  1
  Te  Te149  1  0.91844337  0.57666229  0.75146496  1
  Te  Te150  1  0.91098508  0.91411671  0.08440716  1
  Te  Te151  1  0.90880603  0.91813855  0.42618560  1
  Te  Te152  1  0.90506988  0.93035639  0.77607531  1
  Te  Te153  1  0.23753622  0.09998448  0.24274204  1
  Te  Te154  1  0.23674600  0.07706995  0.56145536  1
  Te  Te155  1  0.25865446  0.08574643  0.91906042  1
  Te  Te156  1  0.25420306  0.41267769  0.23292158  1
  Te  Te157  1  0.20305188  0.45101760  0.60096072  1
  Te  Te158  1  0.26753312  0.40140438  0.94331483  1
  Te  Te159  1  0.27308955  0.76284571  0.23291237  1
  Te  Te160  1  0.24975523  0.74003422  0.58787555  1
  Te  Te161  1  0.24948389  0.73770001  0.92602141  1
  Te  Te162  1  0.60314608  0.10829997  0.22548320  1
  Te  Te163  1  0.57710327  0.08126757  0.57520069  1
  Te  Te164  1  0.57894458  0.08038696  0.91673384  1
  Te  Te165  1  0.57254535  0.42208740  0.25792469  1
  Te  Te166  1  0.59898485  0.43670691  0.58271827  1
  Te  Te167  1  0.56758398  0.38572017  0.94042809  1
  Te  Te168  1  0.57343109  0.73861594  0.19550781  1
  Te  Te169  1  0.58514375  0.72689205  0.58824664  1
  Te  Te170  1  0.56087670  0.74390406  0.91323604  1
  Te  Te171  1  0.92524139  0.07390292  0.25217472  1
  Te  Te172  1  0.90594132  0.07550845  0.57707419  1
  Te  Te173  1  0.89193085  0.08851710  0.92977408  1
  Te  Te174  1  0.88920220  0.40293334  0.23024000  1
  Te  Te175  1  0.92247654  0.42828739  0.59293216  1
  Te  Te176  1  0.92528475  0.42980976  0.90337948  1
  Te  Te177  1  0.91988501  0.75007148  0.25493991  1
  Te  Te178  1  0.90184568  0.72608963  0.58566778  1
  Te  Te179  1  0.90184335  0.75622415  0.93673728  1
