# generated using pymatgen
data_In2Te3
_symmetry_space_group_name_H-M   'P 1'
_cell_length_a   19.02977250
_cell_length_b   18.97694709
_cell_length_c   18.97333093
_cell_angle_alpha   89.89273471
_cell_angle_beta   89.87495510
_cell_angle_gamma   89.87801100
_symmetry_Int_Tables_number   1
_chemical_formula_structural   In2Te3
_chemical_formula_sum   'In72 Te108'
_cell_volume   6851.73801261
_cell_formula_units_Z   36
loop_
 _symmetry_equiv_pos_site_id
 _symmetry_equiv_pos_as_xyz
  1  'x, y, z'
loop_
 _atom_site_type_symbol
 _atom_site_label
 _atom_site_symmetry_multiplicity
 _atom_site_fract_x
 _atom_site_fract_y
 _atom_site_fract_z
 _atom_site_occupancy
  In  In0  1  -0.00400705  0.82936596  0.15385439  1
  In  In1  1  0.82366450  0.68040824  0.49106872  1
  In  In2  1  0.46924401  -0.03315368  0.15490323  1
  In  In3  1  -0.02937922  0.50040479  0.83934813  1
  In  In4  1  0.55552311  0.50768931  0.34980490  1
  In  In5  1  0.51756221  0.35957054  0.87271814  1
  In  In6  1  0.00349372  0.00566311  0.65711545  1
  In  In7  1  0.85240168  0.68074055  0.80994616  1
  In  In8  1  0.33212555  0.82943939  0.48584793  1
  In  In9  1  0.67723894  0.15044138  0.83317627  1
  In  In10  1  0.30575135  0.79419711  0.08724293  1
  In  In11  1  0.33951160  0.65183180  0.32137093  1
  In  In12  1  0.16475531  0.32095907  0.84156160  1
  In  In13  1  -0.04129560  0.02100291  0.29705301  1
  In  In14  1  0.50276365  0.50929663  0.69131558  1
  In  In15  1  0.17274787  0.51967426  0.69561211  1
  In  In16  1  -0.01695194  0.48027328  0.49053706  1
  In  In17  1  0.34334481  0.83154157  0.83773811  1
  In  In18  1  0.00873687  0.68017595  0.31614640  1
  In  In19  1  0.17550095  0.84007829  0.30678817  1
  In  In20  1  0.14975549  0.52696347  0.31027549  1
  In  In21  1  0.32779958  0.33366431  0.33623068  1
  In  In22  1  0.35751823  0.48410977  0.52491526  1
  In  In23  1  0.65466884  0.17164188  0.52124222  1
  In  In24  1  0.52462787  0.00700226  0.48822885  1
  In  In25  1  0.83601503  0.66791436  0.16470796  1
  In  In26  1  0.81516719  0.49959367  -0.00490193  1
  In  In27  1  0.68049925  -0.03052218  0.67415788  1
  In  In28  1  0.15495696  0.02263207  0.51243626  1
  In  In29  1  0.02977468  0.84123889  0.83617784  1
  In  In30  1  0.16677139  0.48244992  0.00518155  1
  In  In31  1  0.00913028  0.17192068  0.83825491  1
  In  In32  1  0.17831753  0.18450562  0.33535624  1
  In  In33  1  0.36313855  0.01007088  0.34208285  1
  In  In34  1  0.65153719  0.65524013  0.00465314  1
  In  In35  1  0.34900447  -0.00714506  0.69769411  1
  In  In36  1  0.80548123  0.48637853  0.33777356  1
  In  In37  1  0.83448984  0.32356473  0.14864799  1
  In  In38  1  0.66175507  0.17503299  0.16348750  1
  In  In39  1  0.50750586  0.33104991  0.13852583  1
  In  In40  1  0.65651875  0.81353819  0.84218168  1
  In  In41  1  0.53526547  0.17979696  0.33767594  1
  In  In42  1  0.67926875  0.49855949  0.16130931  1
  In  In43  1  0.31575952  -0.01522968  -0.02138144  1
  In  In44  1  0.50895697  0.77446667  0.33170714  1
  In  In45  1  -0.00862257  0.18229202  0.48464592  1
  In  In46  1  0.80936818  0.32350893  0.82562615  1
  In  In47  1  0.67928626  0.01400777  0.32057271  1
  In  In48  1  0.00429205  0.66981990  0.65459129  1
  In  In49  1  0.67285805  0.83550858  0.50139697  1
  In  In50  1  0.65497014  0.01074105  0.00906262  1
  In  In51  1  0.01413807  0.00448929  -0.00327189  1
  In  In52  1  0.14213859  0.35022300  0.16778398  1
  In  In53  1  0.67231016  0.65558819  0.66645716  1
  In  In54  1  -0.02685286  0.32671377  0.30813902  1
  In  In55  1  -0.02056112  0.33874150  0.65396207  1
  In  In56  1  0.51633354  0.32747780  0.52368878  1
  In  In57  1  0.18084753  0.66790980  0.85577940  1
  In  In58  1  0.85867197  0.00030708  0.82892914  1
  In  In59  1  0.64183522  0.84355351  0.17574479  1
  In  In60  1  0.17303123  0.14726319  0.68496537  1
  In  In61  1  0.16584783  0.35568794  0.50916402  1
  In  In62  1  0.35755660  0.51431174  0.13512803  1
  In  In63  1  0.33263027  0.16731411  0.15161718  1
  In  In64  1  0.37028597  0.52494979  0.88082979  1
  In  In65  1  0.00516407  0.85697495  0.46337469  1
  In  In66  1  0.84249483  0.82848598  -0.01597077  1
  In  In67  1  0.20014545  0.66144433  0.51365616  1
  In  In68  1  0.47899207  0.17504001  0.69283266  1
  In  In69  1  0.16600936  0.15166790  0.00572694  1
  In  In70  1  0.66493124  0.34983472  0.67203234  1
  In  In71  1  0.49244100  0.82997572  0.68170641  1
  Te  Te72  1  0.07447358  0.08833237  0.10188960  1
  Te  Te73  1  0.07829849  0.08393999  0.39672943  1
  Te  Te74  1  0.08636719  0.05959622  0.77237224  1
  Te  Te75  1  0.05394700  0.42446685  0.07979142  1
  Te  Te76  1  0.08423700  0.40662090  0.39127954  1
  Te  Te77  1  0.07206272  0.41434232  0.74990454  1
  Te  Te78  1  0.09591086  0.72908640  0.12150394  1
  Te  Te79  1  0.11069422  0.74183027  0.41150656  1
  Te  Te80  1  0.10043698  0.73908703  0.74521347  1
  Te  Te81  1  0.41172291  0.07498731  0.06571589  1
  Te  Te82  1  0.43301194  0.11311966  0.42891316  1
  Te  Te83  1  0.40790161  0.08998064  0.79019621  1
  Te  Te84  1  0.39787269  0.39238249  0.05798102  1
  Te  Te85  1  0.43285703  0.40922295  0.41452565  1
  Te  Te86  1  0.41674960  0.41967120  0.77730413  1
  Te  Te87  1  0.43373526  0.72172722  0.10377251  1
  Te  Te88  1  0.41407476  0.71014575  0.43983382  1
  Te  Te89  1  0.42777911  0.73161252  0.76807102  1
  Te  Te90  1  0.75061125  0.07259359  0.10212890  1
  Te  Te91  1  0.73671777  0.09873747  0.42275553  1
  Te  Te92  1  0.76784284  0.07717902  0.73568725  1
  Te  Te93  1  0.72657685  0.39152027  0.05912569  1
  Te  Te94  1  0.68387260  0.44820077  0.40867219  1
  Te  Te95  1  0.73316311  0.43476468  0.77015249  1
  Te  Te96  1  0.74115227  0.76027147  0.07518990  1
  Te  Te97  1  0.74618831  0.76071864  0.39810198  1
  Te  Te98  1  0.75346473  0.76675184  0.73520457  1
  Te  Te99  1  0.07310067  0.23414385  0.23856948  1
  Te  Te100  1  0.09058880  0.24823946  0.58868294  1
  Te  Te101  1  0.07312457  0.25919759  0.94256800  1
  Te  Te102  1  0.07158130  0.60036163  0.20477958  1
  Te  Te103  1  0.08668446  0.56503567  0.57051363  1
  Te  Te104  1  0.07788157  0.57399207  0.91414068  1
  Te  Te105  1  0.07106448  0.92689455  0.24425616  1
  Te  Te106  1  0.09014774  0.90464598  0.57964394  1
  Te  Te107  1  0.10361577  0.89982471  0.94687583  1
  Te  Te108  1  0.42248802  0.24893143  0.25074156  1
  Te  Te109  1  0.41012874  0.26248956  0.59829786  1
  Te  Te110  1  0.44239642  0.27102904  0.96491651  1
  Te  Te111  1  0.43369697  0.55335372  0.25786039  1
  Te  Te112  1  0.41712396  0.59065218  0.60259197  1
  Te  Te113  1  0.41290193  0.61625414  0.99067102  1
  Te  Te114  1  0.41396134  0.88786698  0.27097122  1
  Te  Te115  1  0.42841259  0.91842192  0.56601273  1
  Te  Te116  1  0.42955562  0.90104934  0.93498207  1
  Te  Te117  1  0.75632980  0.24755004  0.25081582  1
  Te  Te118  1  0.74727974  0.25553083  0.59596422  1
  Te  Te119  1  0.75474407  0.23171794  0.92637908  1
  Te  Te120  1  0.73840160  0.59915857  0.25696716  1
  Te  Te121  1  0.75607771  0.58073379  0.57181281  1
  Te  Te122  1  0.75876916  0.60828626  0.90445319  1
  Te  Te123  1  0.75047888  0.92375925  0.23002134  1
  Te  Te124  1  0.76392919  0.93344167  0.56073019  1
  Te  Te125  1  0.75068073  0.92280793  0.90658111  1
  Te  Te126  1  0.23717324  0.26144517  0.08548384  1
  Te  Te127  1  0.25824992  0.25240181  0.44397474  1
  Te  Te128  1  0.25523396  0.24150096  0.75954187  1
  Te  Te129  1  0.24242715  0.58374952  0.08051493  1
  Te  Te130  1  0.25711389  0.55425221  0.42028474  1
  Te  Te131  1  0.27977229  0.59111654  0.77118202  1
  Te  Te132  1  0.25543056  0.92966685  0.10123088  1
  Te  Te133  1  0.24388295  0.93291521  0.41472373  1
  Te  Te134  1  0.24837615  0.90466352  0.75174957  1
  Te  Te135  1  0.57256931  0.22665066  0.05497542  1
  Te  Te136  1  0.61465630  0.27850000  0.41655558  1
  Te  Te137  1  0.58069255  0.26181389  0.76604948  1
  Te  Te138  1  0.56742610  0.54608765  0.06844461  1
  Te  Te139  1  0.56870841  0.64837695  0.39578982  1
  Te  Te140  1  0.59558574  0.58846264  0.77441877  1
  Te  Te141  1  0.56268892  0.89694358  0.05563238  1
  Te  Te142  1  0.57774943  0.90364917  0.39309248  1
  Te  Te143  1  0.57460689  0.91999609  0.77057227  1
  Te  Te144  1  0.93332378  0.21505666  0.12299022  1
  Te  Te145  1  0.89305742  0.26572993  0.41359768  1
  Te  Te146  1  0.91239104  0.23803049  0.74356593  1
  Te  Te147  1  0.90613718  0.59348797  0.06124254  1
  Te  Te148  1  0.92146095  0.58055568  0.39533304  1
  Te  Te149  1  0.90950557  0.57114189  0.71950385  1
  Te  Te150  1  0.90878084  0.92599304  0.07635639  1
  Te  Te151  1  0.90404509  0.94843613  0.41239727  1
  Te  Te152  1  0.92808732  0.89982044  0.74079121  1
  Te  Te153  1  0.26061650  0.08361685  0.25664077  1
  Te  Te154  1  0.26930231  0.07685538  0.59149734  1
  Te  Te155  1  0.25387704  0.09565670  0.90190339  1
  Te  Te156  1  0.25131151  0.42646368  0.24423752  1
  Te  Te157  1  0.25304374  0.41806692  0.61547553  1
  Te  Te158  1  0.26070051  0.41693424  0.90698227  1
  Te  Te159  1  0.25245537  0.73530025  0.23163832  1
  Te  Te160  1  0.26185663  0.76291588  0.59670806  1
  Te  Te161  1  0.25208702  0.76391031  0.94346544  1
  Te  Te162  1  0.55813545  0.06979646  0.23499322  1
  Te  Te163  1  0.57445994  0.07535275  0.61502864  1
  Te  Te164  1  0.57402025  0.07846433  0.90841825  1
  Te  Te165  1  0.59194211  0.40217070  0.23887725  1
  Te  Te166  1  0.58815013  0.44565409  0.58247570  1
  Te  Te167  1  0.60263665  0.43966385  0.96149944  1
  Te  Te168  1  0.55873925  0.72172795  0.19909057  1
  Te  Te169  1  0.58254772  0.75157895  0.58845350  1
  Te  Te170  1  0.56362907  0.71224606  0.89752032  1
  Te  Te171  1  0.87324016  0.12271250  0.22565345  1
  Te  Te172  1  0.91967631  0.08784917  0.57117458  1
  Te  Te173  1  0.91255587  0.09755240  0.92921310  1
  Te  Te174  1  0.90094004  0.43505130  0.23109237  1
  Te  Te175  1  0.88390280  0.39718928  0.55819470  1
  Te  Te176  1  0.90469101  0.39676026  0.92370403  1
  Te  Te177  1  0.90205886  0.76825844  0.25780185  1
  Te  Te178  1  0.92982902  0.76149820  0.56160332  1
  Te  Te179  1  0.94396724  0.74151034  0.91439761  1
