# generated using pymatgen
data_In2Te3
_symmetry_space_group_name_H-M   'P 1'
_cell_length_a   18.85072050
_cell_length_b   18.86234129
_cell_length_c   18.85008046
_cell_angle_alpha   90.07616516
_cell_angle_beta   89.99166295
_cell_angle_gamma   90.00352572
_symmetry_Int_Tables_number   1
_chemical_formula_structural   In2Te3
_chemical_formula_sum   'In72 Te108'
_cell_volume   6702.49304179
_cell_formula_units_Z   36
loop_
 _symmetry_equiv_pos_site_id
 _symmetry_equiv_pos_as_xyz
  1  'x, y, z'
loop_
 _atom_site_type_symbol
 _atom_site_label
 _atom_site_symmetry_multiplicity
 _atom_site_fract_x
 _atom_site_fract_y
 _atom_site_fract_z
 _atom_site_occupancy
  In  In0  1  0.19325930  0.03362387  0.79491383  1
  In  In1  1  0.16086034  0.31170086  0.17382277  1
  In  In2  1  0.01518566  0.15556251  0.52477083  1
  In  In3  1  0.33619825  0.64425445  0.34323982  1
  In  In4  1  0.00280774  0.50245820  0.81505406  1
  In  In5  1  0.14982276  0.16256301  0.34990640  1
  In  In6  1  0.83411293  0.00164898  0.82257342  1
  In  In7  1  0.15516842  0.68412598  0.81429983  1
  In  In8  1  0.68163731  0.66817485  0.00275158  1
  In  In9  1  0.34450797  0.66873565  0.67387452  1
  In  In10  1  0.50221730  0.17634784  -0.01440491  1
  In  In11  1  0.48791188  0.46994801  -0.00614563  1
  In  In12  1  0.65753208  0.68470672  0.35143210  1
  In  In13  1  0.85276205  0.66019957  0.84630770  1
  In  In14  1  0.00695893  0.51574434  0.17790780  1
  In  In15  1  -0.00803700  0.66972680  0.33524704  1
  In  In16  1  0.03704858  0.44615938  0.48510587  1
  In  In17  1  0.15048200  0.01284560  0.18145609  1
  In  In18  1  0.00792134  0.86972757  0.50584017  1
  In  In19  1  0.45708515  0.85039402  -0.02763678  1
  In  In20  1  0.83875847  0.34964613  0.16748257  1
  In  In21  1  0.30984627  0.84996318  0.48704176  1
  In  In22  1  0.00959574  0.67078043  0.67389869  1
  In  In23  1  0.67041520  0.64682430  0.66300638  1
  In  In24  1  0.16444686  0.65201807  0.48919973  1
  In  In25  1  -0.03059693  0.66890656  0.00387722  1
  In  In26  1  0.82994346  0.85129986  0.65830172  1
  In  In27  1  0.16708990  0.47759782  -0.02508361  1
  In  In28  1  0.17026385  0.66494529  0.17930201  1
  In  In29  1  0.84662676  0.32433255  0.50008663  1
  In  In30  1  0.33799476  0.32354517  0.35121753  1
  In  In31  1  0.33971494  0.48668028  0.84215556  1
  In  In32  1  0.67633228  0.01901812  0.65474077  1
  In  In33  1  0.48333195  0.00483882  0.49564700  1
  In  In34  1  0.51629214  0.67244591  0.79471500  1
  In  In35  1  0.50868767  0.49512856  0.65474630  1
  In  In36  1  0.47823321  0.15296254  0.37345460  1
  In  In37  1  0.30842302  0.01830725  -0.01471845  1
  In  In38  1  0.65937527  0.32571711  0.66283257  1
  In  In39  1  0.82963332  0.51021088  0.33359588  1
  In  In40  1  0.66841959  0.85073698  0.82831798  1
  In  In41  1  0.66518201  0.16059621  0.17019131  1
  In  In42  1  0.01891692  0.17425344  0.80072335  1
  In  In43  1  0.81425153  0.66288625  0.50397853  1
  In  In44  1  0.44163295  0.16004349  0.66567145  1
  In  In45  1  -0.01086416  0.11666058  0.17937692  1
  In  In46  1  0.00853863  0.01332209  0.00568979  1
  In  In47  1  0.85155994  0.16488825  0.65551826  1
  In  In48  1  0.49582353  0.64077726  0.20623914  1
  In  In49  1  0.81879548  0.17987086  -0.00221120  1
  In  In50  1  0.69750685  0.04217013  0.37169126  1
  In  In51  1  0.50037641  -0.02217913  0.17773452  1
  In  In52  1  0.50453641  0.65678659  0.53612674  1
  In  In53  1  0.32183018  0.65913520  0.00299626  1
  In  In54  1  0.49042804  0.32571771  0.83047608  1
  In  In55  1  0.00159788  0.31510879  -0.02441091  1
  In  In56  1  0.49263697  0.84561817  0.64197429  1
  In  In57  1  0.49120700  0.34934689  0.14957990  1
  In  In58  1  0.18211225  0.45432798  0.65522593  1
  In  In59  1  -0.00735824  0.87094881  0.19979122  1
  In  In60  1  0.85668257  0.67561006  0.17751714  1
  In  In61  1  0.69252079  0.86018363  0.16928253  1
  In  In62  1  0.34252473  0.83165361  0.19092329  1
  In  In63  1  0.50308859  0.84673422  0.34639653  1
  In  In64  1  0.13951341  0.84584700  0.00893737  1
  In  In65  1  0.82507520  0.32042057  0.82450111  1
  In  In66  1  0.67194153  0.48934411  0.14442478  1
  In  In67  1  0.48589724  0.50467863  0.34341631  1
  In  In68  1  0.66697054  0.02327852  -0.00106330  1
  In  In69  1  0.30952354  0.88694271  0.83758674  1
  In  In70  1  0.33338134  0.17810940  0.15480155  1
  In  In71  1  0.66181361  0.30218283  0.33660048  1
  Te  Te72  1  0.10645435  0.10767334  0.07369409  1
  Te  Te73  1  0.11144939  0.05790077  0.45310153  1
  Te  Te74  1  0.06898810  0.06467415  0.71182583  1
  Te  Te75  1  0.07247641  0.41394796  0.08303082  1
  Te  Te76  1  0.12981769  0.38979044  0.38972910  1
  Te  Te77  1  0.10393284  0.40299931  0.77063915  1
  Te  Te78  1  0.06567816  0.74743726  0.10545671  1
  Te  Te79  1  0.07958910  0.75807622  0.42178137  1
  Te  Te80  1  0.07517196  0.78579516  0.74253593  1
  Te  Te81  1  0.42336640  0.07143369  0.08430387  1
  Te  Te82  1  0.36857845  0.08978995  0.45056173  1
  Te  Te83  1  0.38271060  0.04250931  0.73306366  1
  Te  Te84  1  0.37956463  0.39993128  0.06461075  1
  Te  Te85  1  0.44578930  0.39176086  0.42878380  1
  Te  Te86  1  0.40899222  0.40910545  0.73249875  1
  Te  Te87  1  0.41589753  0.74377586  0.09029765  1
  Te  Te88  1  0.42593315  0.74544859  0.42960520  1
  Te  Te89  1  0.40906744  0.77858596  0.76109952  1
  Te  Te90  1  0.76999318  0.07568128  0.09839799  1
  Te  Te91  1  0.82656338  0.11465990  0.40482312  1
  Te  Te92  1  0.74941296  0.10703570  0.75547474  1
  Te  Te93  1  0.74912143  0.39687975  0.06122936  1
  Te  Te94  1  0.74875931  0.40754808  0.40942918  1
  Te  Te95  1  0.75731286  0.41232846  0.73137527  1
  Te  Te96  1  0.77218621  0.76151932  0.08201441  1
  Te  Te97  1  0.75794498  0.76814381  0.41683917  1
  Te  Te98  1  0.75105552  0.74826251  0.75046644  1
  Te  Te99  1  0.05664816  0.23493411  0.25327596  1
  Te  Te100  1  0.11343547  0.24569526  0.59830998  1
  Te  Te101  1  0.10531556  0.24248997  0.90046768  1
  Te  Te102  1  0.10114552  0.57527656  0.28101276  1
  Te  Te103  1  0.08911158  0.56605825  0.59295752  1
  Te  Te104  1  0.08401289  0.59729000  0.92266750  1
  Te  Te105  1  0.10568582  0.91475420  0.28348003  1
  Te  Te106  1  0.11619267  0.90003280  0.60049109  1
  Te  Te107  1  0.10428983  0.95019372  0.90663213  1
  Te  Te108  1  0.43824014  0.24448356  0.24868136  1
  Te  Te109  1  0.37820866  0.26264648  0.57757374  1
  Te  Te110  1  0.39608302  0.23042869  0.89691102  1
  Te  Te111  1  0.38408296  0.54434230  0.23501845  1
  Te  Te112  1  0.39284075  0.56174140  0.57606141  1
  Te  Te113  1  0.42264296  0.60055426  0.90308982  1
  Te  Te114  1  0.39710346  0.93824488  0.28500184  1
  Te  Te115  1  0.38092286  0.93829398  0.59624441  1
  Te  Te116  1  0.42436548  0.97533245  0.88700078  1
  Te  Te117  1  0.77034316  0.23994178  0.24951863  1
  Te  Te118  1  0.74650136  0.23477230  0.57145243  1
  Te  Te119  1  0.72600365  0.24351148  0.90419868  1
  Te  Te120  1  0.73516552  0.59737972  0.24258963  1
  Te  Te121  1  0.74359836  0.55571445  0.57426170  1
  Te  Te122  1  0.75230042  0.57667766  0.91414424  1
  Te  Te123  1  0.75618990  0.95191764  0.26333818  1
  Te  Te124  1  0.75113104  0.93132262  0.56332471  1
  Te  Te125  1  0.75922190  0.92048959  0.92734771  1
  Te  Te126  1  0.26063851  0.27447558  0.06962558  1
  Te  Te127  1  0.25632349  0.22781616  0.43365897  1
  Te  Te128  1  0.25148310  0.25157161  0.69096515  1
  Te  Te129  1  0.23635486  0.56511091  0.08520790  1
  Te  Te130  1  0.26498501  0.55647039  0.43683911  1
  Te  Te131  1  0.24599192  0.57863409  0.75205209  1
  Te  Te132  1  0.25428669  0.91098136  0.08922599  1
  Te  Te133  1  0.20725685  0.93593666  0.42616426  1
  Te  Te134  1  0.22198143  0.90311498  0.71665112  1
  Te  Te135  1  0.59207237  0.25743994  0.07900409  1
  Te  Te136  1  0.58782257  0.22717237  0.43947997  1
  Te  Te137  1  0.56246390  0.23178923  0.73549133  1
  Te  Te138  1  0.56735413  0.58236904  0.08020384  1
  Te  Te139  1  0.58718274  0.57906904  0.43244210  1
  Te  Te140  1  0.60127519  0.55277368  0.76318777  1
  Te  Te141  1  0.57913508  0.90933669  0.06558493  1
  Te  Te142  1  0.59868060  0.93159015  0.42512029  1
  Te  Te143  1  0.57989953  0.93066966  0.73644054  1
  Te  Te144  1  0.92706635  0.24121571  0.08895903  1
  Te  Te145  1  0.94069012  0.23644811  0.42177106  1
  Te  Te146  1  0.93255896  0.27361622  0.72519118  1
  Te  Te147  1  0.89587572  0.56207567  0.08351629  1
  Te  Te148  1  0.92779127  0.57172578  0.43322830  1
  Te  Te149  1  0.90263140  0.57674013  0.72797808  1
  Te  Te150  1  0.92072318  0.92405359  0.08376520  1
  Te  Te151  1  0.91745151  0.96473542  0.43261604  1
  Te  Te152  1  0.92782057  0.92447086  0.74052443  1
  Te  Te153  1  0.25515498  0.09569181  0.25395469  1
  Te  Te154  1  0.20485209  0.12351397  0.63760314  1
  Te  Te155  1  0.26178139  0.12551921  0.89344232  1
  Te  Te156  1  0.23367403  0.40098439  0.27141414  1
  Te  Te157  1  0.26216157  0.36806670  0.56511493  1
  Te  Te158  1  0.23884638  0.38515996  0.88354518  1
  Te  Te159  1  0.24797413  0.75131990  0.27839861  1
  Te  Te160  1  0.25130296  0.74281968  0.57888956  1
  Te  Te161  1  0.24303912  0.76165101  0.92114922  1
  Te  Te162  1  0.57935724  0.07614541  0.26433415  1
  Te  Te163  1  0.56400876  0.09565461  0.58651014  1
  Te  Te164  1  0.58702974  0.09219092  0.89767796  1
  Te  Te165  1  0.58927704  0.41912736  0.25221760  1
  Te  Te166  1  0.57609726  0.40102245  0.56391188  1
  Te  Te167  1  0.58722264  0.40462706  0.91084694  1
  Te  Te168  1  0.58116676  0.76917069  0.23731419  1
  Te  Te169  1  0.60397778  0.76172337  0.58169121  1
  Te  Te170  1  0.58267220  0.75320169  0.91249710  1
  Te  Te171  1  0.92822525  0.05189204  0.30131042  1
  Te  Te172  1  0.91478410  0.05388959  0.57650853  1
  Te  Te173  1  0.92183481  0.10200794  0.90832227  1
  Te  Te174  1  0.93155104  0.41727683  0.26799269  1
  Te  Te175  1  0.93826237  0.40624589  0.58374033  1
  Te  Te176  1  0.91613639  0.41974181  0.90910903  1
  Te  Te177  1  0.89974376  0.77916291  0.28067630  1
  Te  Te178  1  0.92359102  0.75112706  0.57390524  1
  Te  Te179  1  0.93263968  0.76929603  0.90415004  1
