# generated using pymatgen
data_In2Te3
_symmetry_space_group_name_H-M   'P 1'
_cell_length_a   18.83669905
_cell_length_b   18.82661715
_cell_length_c   18.84313093
_cell_angle_alpha   90.01289216
_cell_angle_beta   90.01944445
_cell_angle_gamma   89.93623791
_symmetry_Int_Tables_number   1
_chemical_formula_structural   In2Te3
_chemical_formula_sum   'In72 Te108'
_cell_volume   6682.35973130
_cell_formula_units_Z   36
loop_
 _symmetry_equiv_pos_site_id
 _symmetry_equiv_pos_as_xyz
  1  'x, y, z'
loop_
 _atom_site_type_symbol
 _atom_site_label
 _atom_site_symmetry_multiplicity
 _atom_site_fract_x
 _atom_site_fract_y
 _atom_site_fract_z
 _atom_site_occupancy
  In  In0  1  0.80464064  0.01949835  0.13029184  1
  In  In1  1  0.34361201  0.17846339  0.82827238  1
  In  In2  1  0.50518982  0.84062631  0.31960590  1
  In  In3  1  0.67269954  0.02822314  0.00050654  1
  In  In4  1  0.34557617  0.03253830  0.33717557  1
  In  In5  1  0.63786816  0.64303776  0.36517866  1
  In  In6  1  0.53961317  0.02971319  0.15934034  1
  In  In7  1  0.01361356  -0.02090444  0.66309993  1
  In  In8  1  0.48900059  0.47964530  0.65272920  1
  In  In9  1  0.07430952  0.48604286  0.47109452  1
  In  In10  1  0.17894037  0.00028833  0.83127542  1
  In  In11  1  0.82720840  0.83957928  -0.01827399  1
  In  In12  1  0.49772002  0.33016369  0.82267238  1
  In  In13  1  0.04388821  0.50576368  0.20411190  1
  In  In14  1  0.84747775  0.51363178  0.33238366  1
  In  In15  1  0.68027658  0.84686975  0.14392425  1
  In  In16  1  0.79084496  0.19283069  0.64664928  1
  In  In17  1  0.30455855  0.48265802  0.21025768  1
  In  In18  1  0.65416869  0.81423353  0.49759763  1
  In  In19  1  0.82277600  0.81958968  0.68774615  1
  In  In20  1  0.49153392  0.34246053  0.16045458  1
  In  In21  1  0.19968153  0.00287447  0.18598756  1
  In  In22  1  -0.00986476  0.03277215  0.01360429  1
  In  In23  1  0.15101434  0.82442243  -0.00878689  1
  In  In24  1  0.31826055  0.83806859  0.80459584  1
  In  In25  1  0.17190274  0.01233186  0.50867347  1
  In  In26  1  0.50158770  0.17891547  0.00829819  1
  In  In27  1  0.17254542  0.47916004  0.66386667  1
  In  In28  1  0.31365284  0.80435795  0.50402860  1
  In  In29  1  0.01616796  0.18340636  0.18424333  1
  In  In30  1  0.00830747  0.00617369  0.34299539  1
  In  In31  1  0.84676324  0.83716563  0.31201106  1
  In  In32  1  0.82809395  0.32417045  0.85092156  1
  In  In33  1  0.17810571  0.63342763  0.81383254  1
  In  In34  1  0.17791985  0.48881801  0.00249129  1
  In  In35  1  0.49354333  0.17271025  0.66854526  1
  In  In36  1  -0.00298925  0.64830463  0.67647480  1
  In  In37  1  0.50164894  0.64967472  0.15624707  1
  In  In38  1  0.31842667  0.63416019  0.38596606  1
  In  In39  1  0.84247734  0.33586968  0.14887224  1
  In  In40  1  0.68423646  0.49603600  0.15797731  1
  In  In41  1  -0.00948348  0.18433953  0.84818645  1
  In  In42  1  0.82502667  0.33653398  0.51627632  1
  In  In43  1  0.47902855  0.02316641  0.49807365  1
  In  In44  1  0.34605666  0.02027953  -0.01326443  1
  In  In45  1  0.49839870  0.81161139  0.63907462  1
  In  In46  1  0.30062851  0.23167094  0.15887740  1
  In  In47  1  0.83136663  0.17767619  0.31785322  1
  In  In48  1  0.44899817  0.45969603  0.35209157  1
  In  In49  1  0.18795248  0.15952315  0.65725228  1
  In  In50  1  0.34325898  0.64485913  0.00340356  1
  In  In51  1  0.82673758  0.48523033  0.68703124  1
  In  In52  1  0.32504402  0.82650543  0.18682471  1
  In  In53  1  0.67477936  0.00119559  0.68150426  1
  In  In54  1  0.82800620  0.51037228  -0.04139932  1
  In  In55  1  0.49414127  0.00381721  0.82226896  1
  In  In56  1  0.50501251  0.47457688  -0.01323525  1
  In  In57  1  0.48548047  0.63308564  0.51229434  1
  In  In58  1  0.02664382  0.33220545  0.66948868  1
  In  In59  1  0.65923280  0.04943438  0.33725955  1
  In  In60  1  0.00085037  0.81446424  0.17575290  1
  In  In61  1  0.17202240  0.33511044  0.84063839  1
  In  In62  1  -0.00005768  0.82290616  0.81323354  1
  In  In63  1  0.66923084  0.80512172  0.84342988  1
  In  In64  1  0.15973900  0.80848232  0.36994350  1
  In  In65  1  0.63882837  0.33330179  0.35539598  1
  In  In66  1  0.82607568  0.00299010  0.46983869  1
  In  In67  1  -0.00660692  0.16581331  0.50020243  1
  In  In68  1  0.84001478  0.65270206  0.51888284  1
  In  In69  1  0.51653947  0.65610237  0.81556810  1
  In  In70  1  0.84631905  0.67859706  0.14768369  1
  In  In71  1  -0.00606874  0.66626460  0.01732039  1
  Te  Te72  1  0.10302197  0.08573367  0.09797162  1
  Te  Te73  1  0.10048198  0.10530490  0.40690339  1
  Te  Te74  1  0.07777096  0.09679027  0.74838897  1
  Te  Te75  1  0.09633443  0.40614361  0.10040630  1
  Te  Te76  1  0.07463465  0.37256066  0.37298495  1
  Te  Te77  1  0.07367906  0.43257826  0.77239264  1
  Te  Te78  1  0.10506351  0.73100771  0.10337909  1
  Te  Te79  1  0.06486065  0.70339864  0.40582699  1
  Te  Te80  1  0.10647475  0.74809419  0.74120820  1
  Te  Te81  1  0.40482072  0.10238014  0.09974112  1
  Te  Te82  1  0.44444285  0.12647408  0.39710509  1
  Te  Te83  1  0.39355761  0.07101067  0.73198667  1
  Te  Te84  1  0.39874423  0.44116131  0.09292499  1
  Te  Te85  1  0.38496220  0.40125373  0.47637848  1
  Te  Te86  1  0.39899999  0.38115255  0.72284995  1
  Te  Te87  1  0.41496692  0.75438896  0.08615907  1
  Te  Te88  1  0.43454261  0.74771505  0.41537545  1
  Te  Te89  1  0.40764581  0.73765353  0.73495011  1
  Te  Te90  1  0.72970069  0.13935338  0.08372235  1
  Te  Te91  1  0.74364391  0.12738127  0.43644811  1
  Te  Te92  1  0.75995046  0.09670605  0.75263901  1
  Te  Te93  1  0.75213177  0.41223265  0.05160958  1
  Te  Te94  1  0.75420117  0.41998625  0.40804925  1
  Te  Te95  1  0.73109578  0.41329938  0.77955354  1
  Te  Te96  1  0.74038689  0.73700806  0.05538435  1
  Te  Te97  1  0.75849598  0.74735394  0.40892823  1
  Te  Te98  1  0.74813601  0.70937382  0.75741136  1
  Te  Te99  1  0.10947924  0.27062699  0.25927486  1
  Te  Te100  1  0.10142011  0.25027966  0.56639975  1
  Te  Te101  1  0.09150771  0.25011651  0.93400148  1
  Te  Te102  1  0.11066338  0.58812693  0.31235641  1
  Te  Te103  1  0.11506731  0.60462976  0.58742160  1
  Te  Te104  1  0.08625619  0.58544467  0.92466714  1
  Te  Te105  1  0.09486356  0.91021836  0.25227359  1
  Te  Te106  1  0.09181560  0.90276809  0.56479333  1
  Te  Te107  1  0.06545859  0.92846754  0.91703528  1
  Te  Te108  1  0.40023758  0.27728383  0.25798389  1
  Te  Te109  1  0.44679723  0.27808779  0.57157882  1
  Te  Te110  1  0.40460469  0.26861898  0.93337769  1
  Te  Te111  1  0.41532478  0.59077901  0.26695932  1
  Te  Te112  1  0.38214284  0.57694655  0.60061088  1
  Te  Te113  1  0.41806778  0.56521062  0.89977042  1
  Te  Te114  1  0.42461711  0.93629396  0.23294123  1
  Te  Te115  1  0.40577039  0.91034462  0.57053529  1
  Te  Te116  1  0.41034960  0.90796105  0.90635319  1
  Te  Te117  1  0.74142724  0.27872536  0.25064464  1
  Te  Te118  1  0.69884141  0.29973783  0.59609895  1
  Te  Te119  1  0.78534308  0.21487612  0.94184117  1
  Te  Te120  1  0.74820032  0.60067479  0.24989223  1
  Te  Te121  1  0.74758740  0.56301273  0.58681021  1
  Te  Te122  1  0.75461652  0.60470093  0.87490350  1
  Te  Te123  1  0.73885682  0.93568961  0.25658655  1
  Te  Te124  1  0.75063055  0.90734483  0.57444614  1
  Te  Te125  1  0.73771871  0.92930720  0.90030135  1
  Te  Te126  1  0.20726584  0.29972380  0.06789204  1
  Te  Te127  1  0.28019083  0.31169871  0.41534038  1
  Te  Te128  1  0.26458364  0.26808231  0.73132973  1
  Te  Te129  1  0.24857498  0.58206069  0.10472494  1
  Te  Te130  1  0.21571788  0.53434624  0.42609783  1
  Te  Te131  1  0.27892111  0.56075356  0.73232791  1
  Te  Te132  1  0.25119241  0.91313894  0.06970794  1
  Te  Te133  1  0.26490840  0.92098126  0.40235383  1
  Te  Te134  1  0.23905509  0.92765603  0.71894726  1
  Te  Te135  1  0.59088275  0.27568481  0.07461279  1
  Te  Te136  1  0.54876793  0.26658088  0.45163301  1
  Te  Te137  1  0.59026798  0.22780463  0.76565324  1
  Te  Te138  1  0.59450718  0.57567340  0.06170956  1
  Te  Te139  1  0.56990819  0.52990190  0.44121956  1
  Te  Te140  1  0.58400373  0.54408136  0.74809224  1
  Te  Te141  1  0.57595446  0.92075701  0.06076712  1
  Te  Te142  1  0.58734417  0.92844104  0.41543865  1
  Te  Te143  1  0.57726668  0.89643450  0.74047240  1
  Te  Te144  1  0.92983902  0.23906191  0.07878434  1
  Te  Te145  1  0.91683601  0.26228613  0.41150279  1
  Te  Te146  1  0.91166892  0.24899531  0.72615748  1
  Te  Te147  1  0.92396056  0.55840756  0.09836554  1
  Te  Te148  1  0.93764843  0.56198376  0.44426910  1
  Te  Te149  1  0.90954510  0.57779567  0.77241367  1
  Te  Te150  1  0.91736795  0.90754913  0.08818406  1
  Te  Te151  1  0.93202909  0.90160162  0.42286970  1
  Te  Te152  1  0.90426937  0.92779800  0.75895755  1
  Te  Te153  1  0.24921139  0.12326614  0.26219782  1
  Te  Te154  1  0.27660610  0.10563554  0.55224936  1
  Te  Te155  1  0.24060048  0.10659045  0.92042619  1
  Te  Te156  1  0.21834848  0.38801739  0.29456557  1
  Te  Te157  1  0.23131353  0.40058228  0.54836846  1
  Te  Te158  1  0.26883197  0.42600136  0.90522211  1
  Te  Te159  1  0.25498294  0.73056294  0.27760691  1
  Te  Te160  1  0.21807644  0.72248756  0.57359549  1
  Te  Te161  1  0.25163808  0.73933751  0.91317827  1
  Te  Te162  1  0.58046500  0.13718870  0.24981315  1
  Te  Te163  1  0.58916647  0.08233563  0.58514407  1
  Te  Te164  1  0.57943991  0.10238995  0.89908211  1
  Te  Te165  1  0.57663413  0.44149120  0.25197699  1
  Te  Te166  1  0.59009981  0.40878424  0.56696819  1
  Te  Te167  1  0.60344146  0.40865100  0.89595553  1
  Te  Te168  1  0.59624608  0.75056432  0.23729570  1
  Te  Te169  1  0.59944908  0.70859346  0.59029284  1
  Te  Te170  1  0.56200103  0.74677089  0.92339268  1
  Te  Te171  1  0.90995214  0.06783050  0.24396221  1
  Te  Te172  1  0.91134213  0.06710530  0.58147319  1
  Te  Te173  1  0.88965481  0.09602251  0.92283377  1
  Te  Te174  1  0.92849059  0.41475143  0.24981493  1
  Te  Te175  1  0.93138467  0.42035575  0.58894736  1
  Te  Te176  1  0.92697034  0.41016334  0.91840883  1
  Te  Te177  1  0.93286837  0.71692855  0.27043349  1
  Te  Te178  1  0.92434294  0.75585592  0.59348373  1
  Te  Te179  1  0.91535545  0.73994266  0.90825702  1
