# generated using pymatgen
data_In2Te3
_symmetry_space_group_name_H-M   'P 1'
_cell_length_a   18.86965406
_cell_length_b   18.87629004
_cell_length_c   18.86765189
_cell_angle_alpha   90.02739240
_cell_angle_beta   89.98845279
_cell_angle_gamma   90.15460548
_symmetry_Int_Tables_number   1
_chemical_formula_structural   In2Te3
_chemical_formula_sum   'In72 Te108'
_cell_volume   6720.42587816
_cell_formula_units_Z   36
loop_
 _symmetry_equiv_pos_site_id
 _symmetry_equiv_pos_as_xyz
  1  'x, y, z'
loop_
 _atom_site_type_symbol
 _atom_site_label
 _atom_site_symmetry_multiplicity
 _atom_site_fract_x
 _atom_site_fract_y
 _atom_site_fract_z
 _atom_site_occupancy
  In  In0  1  0.35296309  0.49380615  0.17365318  1
  In  In1  1  0.83083152  0.18415169  -0.00879652  1
  In  In2  1  -0.00370193  0.32989277  0.31139358  1
  In  In3  1  0.84874692  0.67056751  0.51446890  1
  In  In4  1  0.67069368  0.04388494  0.32856613  1
  In  In5  1  -0.03009118  0.17798073  0.16436889  1
  In  In6  1  0.35835554  0.17952835  0.19634983  1
  In  In7  1  0.18000509  0.63067868  0.17738642  1
  In  In8  1  0.17592080  0.32025244  0.81934027  1
  In  In9  1  -0.01633833  0.45249864  0.51269346  1
  In  In10  1  0.68716431  0.03186147  -0.01907616  1
  In  In11  1  0.34579706  0.00203636  -0.02614000  1
  In  In12  1  0.65594998  0.33712826  0.00889122  1
  In  In13  1  0.31340712  0.17405870  0.82169459  1
  In  In14  1  -0.00933078  0.65297954  0.00874597  1
  In  In15  1  -0.01011020  0.65123354  0.33642175  1
  In  In16  1  0.85739367  0.49764288  0.65712943  1
  In  In17  1  -0.01404977  0.85843820  0.13416056  1
  In  In18  1  0.15624661  -0.01011857  0.47746791  1
  In  In19  1  0.17540804  0.48819568  0.65914785  1
  In  In20  1  0.18308053  -0.00788124  0.16857076  1
  In  In21  1  0.51870686  0.85057146  0.67016975  1
  In  In22  1  0.83457954  0.63673119  0.13774070  1
  In  In23  1  0.49586628  0.84104772  -0.00533021  1
  In  In24  1  0.20403643  0.51209190  0.36211793  1
  In  In25  1  0.50867401  0.17058416  0.65713852  1
  In  In26  1  0.00226632  0.02268788  0.64126383  1
  In  In27  1  0.13429589  0.19536253  0.01036773  1
  In  In28  1  0.15155444  0.35677118  0.16562189  1
  In  In29  1  0.18666024  -0.01806683  0.82383614  1
  In  In30  1  0.33905921  -0.00093098  0.65000775  1
  In  In31  1  0.70470455  0.85446082  0.50789320  1
  In  In32  1  0.53043687  0.19734893  0.33998049  1
  In  In33  1  0.82625604  0.31715869  0.81288412  1
  In  In34  1  0.02274340  0.84445167  0.49570377  1
  In  In35  1  0.17827514  0.82295882  0.31261436  1
  In  In36  1  -0.00305536  0.50065528  0.82320172  1
  In  In37  1  0.68277848  0.47068470  0.18090465  1
  In  In38  1  -0.02819499  0.02892021  -0.01765709  1
  In  In39  1  0.82862819  0.85499622  0.00733992  1
  In  In40  1  0.83148127  0.02810810  0.51603383  1
  In  In41  1  0.47190588  0.46983937  0.36506337  1
  In  In42  1  0.49272736  0.64387796  0.51462164  1
  In  In43  1  0.34549589  0.82548701  0.16422725  1
  In  In44  1  0.68011910  0.67919063  0.66779849  1
  In  In45  1  0.50093775  0.16182979  0.01477501  1
  In  In46  1  0.49716242  0.68869774  0.83040318  1
  In  In47  1  0.67564794  0.42437125  0.45660308  1
  In  In48  1  0.81097135  0.86640861  0.66272860  1
  In  In49  1  -0.00613921  0.84157220  0.81788186  1
  In  In50  1  0.34779295  0.17810995  0.49576834  1
  In  In51  1  0.65843648  0.85792851  0.17533206  1
  In  In52  1  0.84297524  0.82812182  0.32391998  1
  In  In53  1  0.64200292  0.66630133  -0.00363836  1
  In  In54  1  0.32099695  0.65619568  -0.00226053  1
  In  In55  1  0.35817468  0.00391323  0.34245909  1
  In  In56  1  0.32631613  0.33915274  -0.00164009  1
  In  In57  1  0.49948057  0.49568507  0.00519119  1
  In  In58  1  0.16287915  0.17779552  0.67527390  1
  In  In59  1  0.01736184  0.65316367  0.66430314  1
  In  In60  1  0.34662755  0.80546960  0.54423587  1
  In  In61  1  0.50904464  0.83752875  0.34544955  1
  In  In62  1  0.18050828  0.64975480  0.82589266  1
  In  In63  1  0.81741287  0.49037389  0.02100320  1
  In  In64  1  0.18488563  0.32343994  0.50837983  1
  In  In65  1  -0.02848644  0.03121504  0.31585502  1
  In  In66  1  0.65423611  0.65036518  0.31313505  1
  In  In67  1  0.65361012  0.32413535  0.65921753  1
  In  In68  1  0.15537276  0.79917125  -0.02008929  1
  In  In69  1  0.47470712  0.46272132  0.68773920  1
  In  In70  1  0.66661159  0.50889656  0.85158922  1
  In  In71  1  -0.02842264  0.15445202  0.51103437  1
  Te  Te72  1  0.07782541  0.07302103  0.09299699  1
  Te  Te73  1  0.07312074  0.09580144  0.40885277  1
  Te  Te74  1  0.08787747  0.07777055  0.75982903  1
  Te  Te75  1  0.04458792  0.38935812  0.07285598  1
  Te  Te76  1  0.09006067  0.40503859  0.41028314  1
  Te  Te77  1  0.07346730  0.40458404  0.73560551  1
  Te  Te78  1  0.09238951  0.73420476  0.10382533  1
  Te  Te79  1  0.09123874  0.73970416  0.40915017  1
  Te  Te80  1  0.09589044  0.75234112  0.74854461  1
  Te  Te81  1  0.40397179  0.07103324  0.09349222  1
  Te  Te82  1  0.44890717  0.08907484  0.42603020  1
  Te  Te83  1  0.41381591  0.08639181  0.74863130  1
  Te  Te84  1  0.43364730  0.39183072  0.09397046  1
  Te  Te85  1  0.39783093  0.39111656  0.46762111  1
  Te  Te86  1  0.37235925  0.38860184  0.76424012  1
  Te  Te87  1  0.42742903  0.73038643  0.07777744  1
  Te  Te88  1  0.41940499  0.74332124  0.42346065  1
  Te  Te89  1  0.42090352  0.75109509  0.71945070  1
  Te  Te90  1  0.73124118  0.12898102  0.08712586  1
  Te  Te91  1  0.74790365  0.12020427  0.43275030  1
  Te  Te92  1  0.68791767  0.05416083  0.81455780  1
  Te  Te93  1  0.77131370  0.37110300  0.10798978  1
  Te  Te94  1  0.79773026  0.37159525  0.37801054  1
  Te  Te95  1  0.74189544  0.43145338  0.74399637  1
  Te  Te96  1  0.74507962  0.75535509  0.09532777  1
  Te  Te97  1  0.75210383  0.73700501  0.40586186  1
  Te  Te98  1  0.75746639  0.76640252  0.75632578  1
  Te  Te99  1  0.09020839  0.23591286  0.23811182  1
  Te  Te100  1  0.07108173  0.25147637  0.58157351  1
  Te  Te101  1  0.06655801  0.25992324  0.89820956  1
  Te  Te102  1  0.08463195  0.55489793  0.26691346  1
  Te  Te103  1  0.07990114  0.56381825  0.56341532  1
  Te  Te104  1  0.08828212  0.57439022  0.92102526  1
  Te  Te105  1  0.07050732  0.91941160  0.25926741  1
  Te  Te106  1  0.10589984  0.91568798  0.60068483  1
  Te  Te107  1  0.07562769  0.92006082  0.92816313  1
  Te  Te108  1  0.42058347  0.28024151  0.28147493  1
  Te  Te109  1  0.44518517  0.27242300  0.56141608  1
  Te  Te110  1  0.41006553  0.24137853  0.91834113  1
  Te  Te111  1  0.42357482  0.57470689  0.27355072  1
  Te  Te112  1  0.40770210  0.57662199  0.61634460  1
  Te  Te113  1  0.41929913  0.58024745  0.90841126  1
  Te  Te114  1  0.43596468  0.92156137  0.24018882  1
  Te  Te115  1  0.43945240  0.92600271  0.56258439  1
  Te  Te116  1  0.41825773  0.90864739  0.88937915  1
  Te  Te117  1  0.66439225  0.28164130  0.30476798  1
  Te  Te118  1  0.71925164  0.22166523  0.57136331  1
  Te  Te119  1  0.72331599  0.25065693  0.90272997  1
  Te  Te120  1  0.77083746  0.56903203  0.25940118  1
  Te  Te121  1  0.74917785  0.57612500  0.57848085  1
  Te  Te122  1  0.76044910  0.60187285  0.92731682  1
  Te  Te123  1  0.76026385  0.93524340  0.25719361  1
  Te  Te124  1  0.71370723  0.97240281  0.60883187  1
  Te  Te125  1  0.77235414  0.93839875  0.89754294  1
  Te  Te126  1  0.25232754  0.24430379  0.09547137  1
  Te  Te127  1  0.25084052  0.24177871  0.40573962  1
  Te  Te128  1  0.28354258  0.27408095  0.70529366  1
  Te  Te129  1  0.24782014  0.54537284  0.07262403  1
  Te  Te130  1  0.26866991  0.60251665  0.45860352  1
  Te  Te131  1  0.26929477  0.57366409  0.73701655  1
  Te  Te132  1  0.24719446  0.89440453  0.06974562  1
  Te  Te133  1  0.26400891  0.90337655  0.41246700  1
  Te  Te134  1  0.26632554  0.90005764  0.73285867  1
  Te  Te135  1  0.59411607  0.23788336  0.10293216  1
  Te  Te136  1  0.60027926  0.28843599  0.44473027  1
  Te  Te137  1  0.57416468  0.25371206  0.76095971  1
  Te  Te138  1  0.59222009  0.56929354  0.10065622  1
  Te  Te139  1  0.58945832  0.56667939  0.42129268  1
  Te  Te140  1  0.58426577  0.58912618  0.75065568  1
  Te  Te141  1  0.59133521  0.93514745  0.06684448  1
  Te  Te142  1  0.60978511  0.92782567  0.41270271  1
  Te  Te143  1  0.60577132  0.94039136  0.74697571  1
  Te  Te144  1  0.94001033  0.27331672  0.05281248  1
  Te  Te145  1  0.91065316  0.24663537  0.40736516  1
  Te  Te146  1  0.91973720  0.22157952  0.75228569  1
  Te  Te147  1  0.94640688  0.53918637  0.09973850  1
  Te  Te148  1  0.90951970  0.56136378  0.42808004  1
  Te  Te149  1  0.90729238  0.60483999  0.75620163  1
  Te  Te150  1  0.88697510  0.96636419  0.09439212  1
  Te  Te151  1  0.91179376  0.92700047  0.42610471  1
  Te  Te152  1  0.91451897  0.94525783  0.74392536  1
  Te  Te153  1  0.25394668  0.08386217  0.26571983  1
  Te  Te154  1  0.23846457  0.08701750  0.57164090  1
  Te  Te155  1  0.23039988  0.09292105  0.92974867  1
  Te  Te156  1  0.25793167  0.41113373  0.26054352  1
  Te  Te157  1  0.27631942  0.43457987  0.55668144  1
  Te  Te158  1  0.25085368  0.41932713  0.89970970  1
  Te  Te159  1  0.27595358  0.72195790  0.25334961  1
  Te  Te160  1  0.23064806  0.71833976  0.55278135  1
  Te  Te161  1  0.27064706  0.75544502  0.89384346  1
  Te  Te162  1  0.57246586  0.09933310  0.23535555  1
  Te  Te163  1  0.61707419  0.11093531  0.57229538  1
  Te  Te164  1  0.55987431  0.07270264  0.90871858  1
  Te  Te165  1  0.57768877  0.40854064  0.26765285  1
  Te  Te166  1  0.58344830  0.43613364  0.58480458  1
  Te  Te167  1  0.56766549  0.40585258  0.90320297  1
  Te  Te168  1  0.56991149  0.74881747  0.23593700  1
  Te  Te169  1  0.59834321  0.75591859  0.56158742  1
  Te  Te170  1  0.60190769  0.77547388  0.90108704  1
  Te  Te171  1  0.87482814  0.13402854  0.27019637  1
  Te  Te172  1  0.87961052  0.12140562  0.63750094  1
  Te  Te173  1  0.90357783  0.11267660  0.88026814  1
  Te  Te174  1  0.88076856  0.40091696  0.25365940  1
  Te  Te175  1  0.88866944  0.37108201  0.59045852  1
  Te  Te176  1  0.89073730  0.42471789  0.90141473  1
  Te  Te177  1  0.92216261  0.73895176  0.22903508  1
  Te  Te178  1  0.92596397  0.77321716  0.59398192  1
  Te  Te179  1  0.92178329  0.76182261  0.92791083  1
