# generated using pymatgen
data_In2Te3
_symmetry_space_group_name_H-M   'P 1'
_cell_length_a   18.84782939
_cell_length_b   18.85205279
_cell_length_c   18.85370078
_cell_angle_alpha   90.03630259
_cell_angle_beta   89.94580200
_cell_angle_gamma   89.94915271
_symmetry_Int_Tables_number   1
_chemical_formula_structural   In2Te3
_chemical_formula_sum   'In72 Te108'
_cell_volume   6699.09515571
_cell_formula_units_Z   36
loop_
 _symmetry_equiv_pos_site_id
 _symmetry_equiv_pos_as_xyz
  1  'x, y, z'
loop_
 _atom_site_type_symbol
 _atom_site_label
 _atom_site_symmetry_multiplicity
 _atom_site_fract_x
 _atom_site_fract_y
 _atom_site_fract_z
 _atom_site_occupancy
  In  In0  1  0.49718164  0.83696210  0.31108577  1
  In  In1  1  0.14021354  0.64362919  0.52593271  1
  In  In2  1  0.83431796  0.33641893  0.82617096  1
  In  In3  1  0.49536322  0.18254746  0.68053987  1
  In  In4  1  0.86163564  -0.03315656  0.13744116  1
  In  In5  1  0.49816307  0.85682967  0.68296489  1
  In  In6  1  0.66161466  0.84404011  0.49227807  1
  In  In7  1  0.32518551  0.65603756  -0.02197281  1
  In  In8  1  0.51049116  0.63302405  0.50683132  1
  In  In9  1  0.82890814  0.48118931  0.35005104  1
  In  In10  1  -0.01646516  0.34957812  -0.00998811  1
  In  In11  1  0.83554921  0.82009207  0.30971814  1
  In  In12  1  0.00185011  0.64941173  -0.00964481  1
  In  In13  1  0.29626508  0.65518162  0.37214291  1
  In  In14  1  0.14516139  0.33818517  0.14794972  1
  In  In15  1  0.32902531  0.81718238  0.12097775  1
  In  In16  1  0.53017773  0.50337217  0.35149061  1
  In  In17  1  0.16594236  0.16613578  0.00617335  1
  In  In18  1  0.51112440  0.33484404  0.50798074  1
  In  In19  1  0.67953392  0.50616547  0.16092910  1
  In  In20  1  0.34553791  0.82076848  0.50489073  1
  In  In21  1  0.13451691  0.82195049  0.68838129  1
  In  In22  1  0.65604217  0.81428332  0.86670928  1
  In  In23  1  0.33228664  0.66101233  0.68956628  1
  In  In24  1  0.01071963  0.19263480  0.49900315  1
  In  In25  1  0.32125084  0.36611393  -0.07420548  1
  In  In26  1  0.14797453  -0.00463406  0.14424597  1
  In  In27  1  0.50121611  0.00328125  0.82510746  1
  In  In28  1  0.50843713  0.00891228  0.13794547  1
  In  In29  1  0.66546002  0.50965465  0.83846246  1
  In  In30  1  0.32428176  0.49721487  0.19108247  1
  In  In31  1  0.84133393  0.51228070  0.00701465  1
  In  In32  1  0.14712825  0.66456403  0.15496617  1
  In  In33  1  -0.00885567  0.47158874  0.49370377  1
  In  In34  1  0.51211173  0.34774805  0.16548214  1
  In  In35  1  0.82492929  0.01654160  0.82419876  1
  In  In36  1  0.50096556  0.51529603  -0.00909272  1
  In  In37  1  -0.02539370  0.82932991  0.49211602  1
  In  In38  1  0.16392324  0.03847636  0.51329494  1
  In  In39  1  0.71432416  0.81759006  0.12309701  1
  In  In40  1  0.85968328  0.17016889  -0.00062024  1
  In  In41  1  0.83046326  0.65543768  0.52502955  1
  In  In42  1  0.84166871  0.14952823  0.32142554  1
  In  In43  1  0.31574546  0.83163947  0.83839543  1
  In  In44  1  0.66680664  0.35517271  0.01016071  1
  In  In45  1  0.16986090  0.17473353  0.34378001  1
  In  In46  1  0.32544860  -0.00259701  0.00841450  1
  In  In47  1  0.00357171  0.32097264  0.66553764  1
  In  In48  1  0.00131481  0.81641862  0.84704299  1
  In  In49  1  0.84045679  0.00203108  0.48684669  1
  In  In50  1  0.82599023  0.82330029  0.66337796  1
  In  In51  1  0.31519231  0.35054370  0.69020149  1
  In  In52  1  0.32829300  0.31901801  0.35298831  1
  In  In53  1  0.48813481  0.49324013  0.68083452  1
  In  In54  1  0.49369960  0.65169172  0.15344693  1
  In  In55  1  0.66601088  0.17902804  0.80644188  1
  In  In56  1  0.50991986  0.15496189  0.35192602  1
  In  In57  1  0.48582727  -0.00309511  0.51214538  1
  In  In58  1  0.67153046  0.65603978  0.65216581  1
  In  In59  1  0.35900537  -0.00163799  0.35030840  1
  In  In60  1  0.00395461  0.67764550  0.31024100  1
  In  In61  1  0.02087675  0.16345549  0.82758383  1
  In  In62  1  0.68168815  0.18449783  0.52280828  1
  In  In63  1  0.00593862  0.01421181  0.66280270  1
  In  In64  1  0.16755766  0.83387911  0.30334268  1
  In  In65  1  0.31075415  0.19359528  0.83690209  1
  In  In66  1  0.64401922  0.64952112  0.33285418  1
  In  In67  1  0.31665679  0.16868410  0.16733451  1
  In  In68  1  0.66534844  0.00109731  -0.02044971  1
  In  In69  1  -0.00438732  0.33503164  0.33187423  1
  In  In70  1  0.68788260  0.17929551  0.17716695  1
  In  In71  1  0.15704569  0.49377263  0.69131594  1
  Te  Te72  1  0.06444978  0.10580878  0.09435244  1
  Te  Te73  1  0.06600658  0.08147425  0.40792833  1
  Te  Te74  1  0.10902945  0.07106492  0.75086836  1
  Te  Te75  1  0.07806966  0.44546431  0.06684226  1
  Te  Te76  1  0.09418387  0.38865781  0.42913251  1
  Te  Te77  1  0.05599029  0.41494893  0.76812507  1
  Te  Te78  1  0.06089476  0.75912842  0.07956474  1
  Te  Te79  1  0.09157363  0.75166439  0.42029436  1
  Te  Te80  1  0.08562824  0.70570407  0.77893508  1
  Te  Te81  1  0.41506240  0.10610575  0.06731409  1
  Te  Te82  1  0.39916886  0.10953182  0.44609091  1
  Te  Te83  1  0.40014501  0.09139984  0.75691562  1
  Te  Te84  1  0.41289621  0.42884041  0.08444864  1
  Te  Te85  1  0.41945162  0.42109631  0.42028704  1
  Te  Te86  1  0.40080213  0.42843114  0.78604080  1
  Te  Te87  1  0.44244319  0.74998809  0.04210571  1
  Te  Te88  1  0.43647244  0.73703993  0.41161950  1
  Te  Te89  1  0.42773972  0.75216117  0.76719379  1
  Te  Te90  1  0.75615185  0.07748443  0.07648045  1
  Te  Te91  1  0.73588251  0.08647811  0.41703104  1
  Te  Te92  1  0.75646455  0.09849704  0.72302717  1
  Te  Te93  1  0.77622663  0.40599979  0.09961280  1
  Te  Te94  1  0.73927488  0.42646495  0.45274470  1
  Te  Te95  1  0.75669168  0.43526684  0.74602657  1
  Te  Te96  1  0.78318180  0.72616902  0.03060638  1
  Te  Te97  1  0.75318416  0.74656818  0.42027196  1
  Te  Te98  1  0.74102910  0.74202823  0.75798135  1
  Te  Te99  1  0.07734745  0.24009057  0.24233602  1
  Te  Te100  1  0.10823820  0.23084908  0.60580109  1
  Te  Te101  1  0.08921891  0.26442659  0.91815980  1
  Te  Te102  1  0.10815104  0.58157674  0.26946484  1
  Te  Te103  1  0.04217435  0.56132022  0.60824952  1
  Te  Te104  1  0.09515180  0.54000310  0.94168748  1
  Te  Te105  1  0.06503437  0.91059509  0.23355771  1
  Te  Te106  1  0.08280573  0.91171871  0.56599447  1
  Te  Te107  1  0.04642820  0.93083249  0.92984178  1
  Te  Te108  1  0.42688041  0.24560106  0.25001145  1
  Te  Te109  1  0.40485803  0.26805287  0.59384796  1
  Te  Te110  1  0.42039653  0.25990347  0.91041444  1
  Te  Te111  1  0.42076330  0.58345186  0.27161732  1
  Te  Te112  1  0.39718430  0.56966200  0.58267692  1
  Te  Te113  1  0.40736730  0.56976873  0.88919555  1
  Te  Te114  1  0.40266462  0.92178985  0.21697735  1
  Te  Te115  1  0.38331916  0.92866427  0.61009687  1
  Te  Te116  1  0.41897603  0.91719090  0.91897857  1
  Te  Te117  1  0.76949443  0.26554723  0.26218736  1
  Te  Te118  1  0.77042816  0.30168470  0.55390836  1
  Te  Te119  1  0.75129019  0.25003330  0.92377235  1
  Te  Te120  1  0.76011164  0.59150316  0.25599675  1
  Te  Te121  1  0.78769987  0.56365119  0.63403519  1
  Te  Te122  1  0.75466623  0.59879330  0.92004259  1
  Te  Te123  1  0.74639482  0.91648035  0.23501181  1
  Te  Te124  1  0.74761266  0.92809522  0.58463472  1
  Te  Te125  1  0.76990266  0.91044441  0.91728133  1
  Te  Te126  1  0.26123280  0.27417527  0.07153470  1
  Te  Te127  1  0.23685424  0.25376086  0.44805283  1
  Te  Te128  1  0.21628570  0.24723147  0.73465834  1
  Te  Te129  1  0.24952468  0.57563207  0.08420358  1
  Te  Te130  1  0.22528689  0.55010447  0.44564639  1
  Te  Te131  1  0.23875831  0.58618436  0.77758244  1
  Te  Te132  1  0.21900555  0.89597779  0.05190704  1
  Te  Te133  1  0.25672916  0.90426055  0.41268958  1
  Te  Te134  1  0.22098553  0.91617912  0.76098662  1
  Te  Te135  1  0.58736077  0.24581192  0.08140860  1
  Te  Te136  1  0.60070523  0.25928791  0.41053067  1
  Te  Te137  1  0.59708327  0.28330212  0.72550295  1
  Te  Te138  1  0.60825070  0.59769394  0.06319497  1
  Te  Te139  1  0.63409148  0.55342728  0.45801643  1
  Te  Te140  1  0.57326454  0.59853630  0.75208228  1
  Te  Te141  1  0.59440995  0.90289502  0.07206368  1
  Te  Te142  1  0.57492498  0.93163560  0.40308930  1
  Te  Te143  1  0.61119051  0.92106292  0.75946498  1
  Te  Te144  1  0.92208382  0.26314826  0.09358488  1
  Te  Te145  1  0.89858064  0.25560539  0.41810392  1
  Te  Te146  1  0.90915213  0.22996677  0.74734971  1
  Te  Te147  1  0.93968352  0.57034134  0.10195352  1
  Te  Te148  1  0.92391535  0.59637156  0.42086362  1
  Te  Te149  1  0.95292315  0.64765738  0.74255651  1
  Te  Te150  1  0.96195250  0.89148098  0.05480898  1
  Te  Te151  1  0.92179089  0.92276845  0.38521100  1
  Te  Te152  1  0.92273027  0.91335322  0.74428652  1
  Te  Te153  1  0.24925258  0.06723616  0.25816156  1
  Te  Te154  1  0.28658871  0.06136803  0.58436743  1
  Te  Te155  1  0.24103260  0.07607198  0.91057588  1
  Te  Te156  1  0.23546039  0.39671455  0.25930964  1
  Te  Te157  1  0.24543457  0.43335164  0.58830133  1
  Te  Te158  1  0.20649625  0.44597164  0.88173791  1
  Te  Te159  1  0.27507339  0.74099116  0.24302647  1
  Te  Te160  1  0.24348624  0.74455676  0.59294979  1
  Te  Te161  1  0.22497726  0.74511757  0.91768960  1
  Te  Te162  1  0.58901552  0.08061584  0.24496930  1
  Te  Te163  1  0.57751590  0.08838593  0.59008476  1
  Te  Te164  1  0.57918278  0.10446147  0.90805040  1
  Te  Te165  1  0.61154167  0.41184357  0.25991748  1
  Te  Te166  1  0.58978344  0.40830754  0.61226651  1
  Te  Te167  1  0.57264869  0.40781385  0.90645338  1
  Te  Te168  1  0.59427327  0.75138984  0.22872900  1
  Te  Te169  1  0.56676149  0.76306354  0.58081933  1
  Te  Te170  1  0.56846469  0.73004986  0.94738299  1
  Te  Te171  1  0.92101851  0.07157024  0.22303170  1
  Te  Te172  1  0.91463364  0.09928219  0.57659849  1
  Te  Te173  1  0.93697086  0.06787915  0.91686991  1
  Te  Te174  1  0.93240000  0.44339808  0.25291907  1
  Te  Te175  1  0.89822944  0.39069736  0.58207955  1
  Te  Te176  1  0.91705438  0.44784294  0.88919198  1
  Te  Te177  1  0.90800194  0.73479622  0.21383995  1
  Te  Te178  1  0.94162981  0.73497101  0.61237679  1
  Te  Te179  1  0.89627136  0.73564031  0.92069612  1
