# generated using pymatgen
data_In2Te3
_symmetry_space_group_name_H-M   'P 1'
_cell_length_a   18.98649252
_cell_length_b   18.95638115
_cell_length_c   18.98192475
_cell_angle_alpha   90.11424484
_cell_angle_beta   89.98952924
_cell_angle_gamma   90.04704297
_symmetry_Int_Tables_number   1
_chemical_formula_structural   In2Te3
_chemical_formula_sum   'In72 Te108'
_cell_volume   6831.86703978
_cell_formula_units_Z   36
loop_
 _symmetry_equiv_pos_site_id
 _symmetry_equiv_pos_as_xyz
  1  'x, y, z'
loop_
 _atom_site_type_symbol
 _atom_site_label
 _atom_site_symmetry_multiplicity
 _atom_site_fract_x
 _atom_site_fract_y
 _atom_site_fract_z
 _atom_site_occupancy
  In  In0  1  0.65337290  0.48378829  0.17006259  1
  In  In1  1  0.47167013  0.86810296  -0.02513764  1
  In  In2  1  0.51301934  0.65532534  0.48829314  1
  In  In3  1  0.31921506  0.30787562  0.32481583  1
  In  In4  1  0.48444066  0.82846913  0.67941922  1
  In  In5  1  0.33009777  0.00323881  0.68221548  1
  In  In6  1  0.84563926  0.82847864  0.35678515  1
  In  In7  1  0.63421947  0.01063209  0.31802274  1
  In  In8  1  0.81838048  0.33885701  0.16192363  1
  In  In9  1  0.52217893  0.21859859  0.67087936  1
  In  In10  1  0.66844825  0.83279524  0.47896086  1
  In  In11  1  -0.00524357  0.00754640  -0.01576291  1
  In  In12  1  0.18033559  0.83474655  0.65836568  1
  In  In13  1  0.48856616  0.17410350  0.32180091  1
  In  In14  1  0.49770832  0.83863718  0.30977766  1
  In  In15  1  0.81108360  0.33120142  0.84175223  1
  In  In16  1  0.15915670  0.15988773  0.66298058  1
  In  In17  1  0.00634851  0.84429371  0.19387708  1
  In  In18  1  0.13742624  0.64922815  0.52632715  1
  In  In19  1  0.20424142  0.04880037  0.18174349  1
  In  In20  1  0.69640537  0.18034467  0.50163418  1
  In  In21  1  0.00531025  0.68057194  0.32434110  1
  In  In22  1  0.01179612  0.31769809  0.36517994  1
  In  In23  1  0.31736617  0.67604911  0.34381526  1
  In  In24  1  0.15890722  0.48772747  0.01939035  1
  In  In25  1  0.49661592  0.49271245  0.35544643  1
  In  In26  1  0.85545920  0.50025564  0.33853334  1
  In  In27  1  0.15506310  0.35069963  0.83022674  1
  In  In28  1  0.34100849  0.47610092  0.15986534  1
  In  In29  1  0.85310091  0.49755420  0.67362093  1
  In  In30  1  0.33353189  0.68059552  0.67505207  1
  In  In31  1  0.52612531  0.47317128  -0.03440207  1
  In  In32  1  0.54033460  0.45412695  0.70826407  1
  In  In33  1  0.65254435  0.02618066  -0.00371674  1
  In  In34  1  0.66369334  0.34351551  0.33674000  1
  In  In35  1  0.48879995  0.66888562  0.15720243  1
  In  In36  1  0.01159118  0.18488744  0.81670061  1
  In  In37  1  0.87735625  0.01270621  0.49724262  1
  In  In38  1  0.81699342  0.50209593  -0.01458355  1
  In  In39  1  0.66908089  0.81408964  0.14613071  1
  In  In40  1  0.16380217  0.31508772  0.17451386  1
  In  In41  1  -0.03245732  0.65418013  0.00529353  1
  In  In42  1  0.31754772  0.51093799  0.48696416  1
  In  In43  1  0.50633136  0.17804639  -0.00390965  1
  In  In44  1  0.88765015  0.68667704  0.54665865  1
  In  In45  1  0.67229249  0.64935830  0.67293338  1
  In  In46  1  0.18414553  0.15392729  -0.02963990  1
  In  In47  1  0.34773217  0.16410014  0.82354531  1
  In  In48  1  0.65181670  0.82072410  0.84037314  1
  In  In49  1  0.36020242  0.66834673  -0.00509459  1
  In  In50  1  0.82270619  0.68396000  0.84185195  1
  In  In51  1  0.48204386  0.04306907  0.51381343  1
  In  In52  1  0.85097550  -0.01187885  0.82663486  1
  In  In53  1  0.18483390  0.67083932  0.83666416  1
  In  In54  1  0.17696825  0.32424856  0.50102802  1
  In  In55  1  0.16674337  0.84302360  0.34479244  1
  In  In56  1  0.82198642  0.17105375  0.68006036  1
  In  In57  1  -0.01394275  0.49572590  0.83306624  1
  In  In58  1  0.68662901  -0.02680017  0.66376422  1
  In  In59  1  0.85613596  0.33689182  0.52249387  1
  In  In60  1  0.34966858  0.32130660  0.64119634  1
  In  In61  1  0.15145575  0.66688012  0.17295800  1
  In  In62  1  0.02589207  0.83951781  0.81477849  1
  In  In63  1  0.17867165  0.86280029  0.03265073  1
  In  In64  1  0.15975894  -0.00200983  0.49454424  1
  In  In65  1  0.84025833  0.17170734  0.33123227  1
  In  In66  1  0.31938310  0.33138468  -0.01878643  1
  In  In67  1  0.79762769  -0.00276983  0.16795245  1
  In  In68  1  0.81767586  0.82771307  0.02410856  1
  In  In69  1  0.64926829  0.61682908  0.35912817  1
  In  In70  1  -0.02060602  0.17074424  0.16111307  1
  In  In71  1  0.47775408  0.01607283  0.16556239  1
  Te  Te72  1  0.08598436  0.08982108  0.07475882  1
  Te  Te73  1  0.03998949  0.05055193  0.42575941  1
  Te  Te74  1  0.09817652  0.07794318  0.76830903  1
  Te  Te75  1  0.07329229  0.39484574  0.09039722  1
  Te  Te76  1  0.09892829  0.42009142  0.42008097  1
  Te  Te77  1  0.08229890  0.43885204  0.73541582  1
  Te  Te78  1  0.06953346  0.75690960  0.08022903  1
  Te  Te79  1  0.07853658  0.75672402  0.43149495  1
  Te  Te80  1  0.09403897  0.73232479  0.73239193  1
  Te  Te81  1  0.40421103  0.09255916  0.06472314  1
  Te  Te82  1  0.40162677  0.07557154  0.39305720  1
  Te  Te83  1  0.44141919  0.09836341  0.72568102  1
  Te  Te84  1  0.42782063  0.40189152  0.06386046  1
  Te  Te85  1  0.39824912  0.40047277  0.42212148  1
  Te  Te86  1  0.40842121  0.40171646  0.74829584  1
  Te  Te87  1  0.41207393  0.77721829  0.08892383  1
  Te  Te88  1  0.42491640  0.75490762  0.41560633  1
  Te  Te89  1  0.43677352  0.72556632  0.77303399  1
  Te  Te90  1  0.75977822  0.09736790  0.06822038  1
  Te  Te91  1  0.74607512  0.06994944  0.40398998  1
  Te  Te92  1  0.74125826  0.07363215  0.76428057  1
  Te  Te93  1  0.72023483  0.40033302  0.06159201  1
  Te  Te94  1  0.76754925  0.41096008  0.42351146  1
  Te  Te95  1  0.75121706  0.44945890  0.77110664  1
  Te  Te96  1  0.74269472  0.71241185  0.07231476  1
  Te  Te97  1  0.74898966  0.72351884  0.41344976  1
  Te  Te98  1  0.74851723  0.76468507  0.73675760  1
  Te  Te99  1  0.07813305  0.22568368  0.26231154  1
  Te  Te100  1  0.08027559  0.25531665  0.58751012  1
  Te  Te101  1  0.08398096  0.26034387  0.92842916  1
  Te  Te102  1  0.05682536  0.57606509  0.23519269  1
  Te  Te103  1  0.06170030  0.54861434  0.60010018  1
  Te  Te104  1  0.07888854  0.58811580  0.92509263  1
  Te  Te105  1  0.11003002  0.94123785  0.24250198  1
  Te  Te106  1  0.07608005  0.91769459  0.59313023  1
  Te  Te107  1  0.10142909  0.92518861  0.91507551  1
  Te  Te108  1  0.41410324  0.25579018  0.22642113  1
  Te  Te109  1  0.42616856  0.22605709  0.55949226  1
  Te  Te110  1  0.42667272  0.26968995  0.89536912  1
  Te  Te111  1  0.41083371  0.58181654  0.26077035  1
  Te  Te112  1  0.41203415  0.58766000  0.57629349  1
  Te  Te113  1  0.42295613  0.56407553  0.91446658  1
  Te  Te114  1  0.39921435  0.93043858  0.25535264  1
  Te  Te115  1  0.41596264  0.92353372  0.58331789  1
  Te  Te116  1  0.37616472  0.92222649  0.87856748  1
  Te  Te117  1  0.73669401  0.24366735  0.24860583  1
  Te  Te118  1  0.74374990  0.27997015  0.60660160  1
  Te  Te119  1  0.70787877  0.24083537  0.90616858  1
  Te  Te120  1  0.74812024  0.56753558  0.25380576  1
  Te  Te121  1  0.77420934  0.58844916  0.57909454  1
  Te  Te122  1  0.73110041  0.58549826  0.89909607  1
  Te  Te123  1  0.73368852  0.89927996  0.26617802  1
  Te  Te124  1  0.77187637  0.91077869  0.55569279  1
  Te  Te125  1  0.74912034  0.91677489  0.92257451  1
  Te  Te126  1  0.25348573  0.23788084  0.07905048  1
  Te  Te127  1  0.23038791  0.21879279  0.40583478  1
  Te  Te128  1  0.24706456  0.25647004  0.75346634  1
  Te  Te129  1  0.26070158  0.58645730  0.09076981  1
  Te  Te130  1  0.21456365  0.58542660  0.40496644  1
  Te  Te131  1  0.25326580  0.58081770  0.74542722  1
  Te  Te132  1  0.27451206  0.96016369  0.08759874  1
  Te  Te133  1  0.26153624  0.91476874  0.42894065  1
  Te  Te134  1  0.27439859  0.88824137  0.76354195  1
  Te  Te135  1  0.61961882  0.26754237  0.02888953  1
  Te  Te136  1  0.58664239  0.24429934  0.42065237  1
  Te  Te137  1  0.60920985  0.26408089  0.78305772  1
  Te  Te138  1  0.57277897  0.57302078  0.07828297  1
  Te  Te139  1  0.59408601  0.52172389  0.47436407  1
  Te  Te140  1  0.55377261  0.60028403  0.74317096  1
  Te  Te141  1  0.58178290  0.92155500  0.09108572  1
  Te  Te142  1  0.56435301  0.92993664  0.42613292  1
  Te  Te143  1  0.57657513  0.92161074  0.75562950  1
  Te  Te144  1  0.88318854  0.23848914  0.07457314  1
  Te  Te145  1  0.92311005  0.22450279  0.44716116  1
  Te  Te146  1  0.91427815  0.27498922  0.74387618  1
  Te  Te147  1  0.90365218  0.55742978  0.09165555  1
  Te  Te148  1  0.92871859  0.59838515  0.42785498  1
  Te  Te149  1  0.92143188  0.60861038  0.75534132  1
  Te  Te150  1  0.92011775  0.92499185  0.08913128  1
  Te  Te151  1  0.95160161  0.92461038  0.40002068  1
  Te  Te152  1  0.91694853  0.89640820  0.72977571  1
  Te  Te153  1  0.26861286  0.11179695  0.29790843  1
  Te  Te154  1  0.25856439  0.08605751  0.57861233  1
  Te  Te155  1  0.27905352  0.05965958  0.90395574  1
  Te  Te156  1  0.23986645  0.42056111  0.25514801  1
  Te  Te157  1  0.25012646  0.42492807  0.59101427  1
  Te  Te158  1  0.24960200  0.44310502  0.90672979  1
  Te  Te159  1  0.24866399  0.76118999  0.24013445  1
  Te  Te160  1  0.25228294  0.74192727  0.56151611  1
  Te  Te161  1  0.24884421  0.75709611  0.94185518  1
  Te  Te162  1  0.58655665  0.10873324  0.21754052  1
  Te  Te163  1  0.61294369  0.08089374  0.58316933  1
  Te  Te164  1  0.54712065  0.06730007  0.90615591  1
  Te  Te165  1  0.55452949  0.40088090  0.24835459  1
  Te  Te166  1  0.58239562  0.40663718  0.57783973  1
  Te  Te167  1  0.59993861  0.40611724  0.85133578  1
  Te  Te168  1  0.58790825  0.72364580  0.26070031  1
  Te  Te169  1  0.58883359  0.75496219  0.58283734  1
  Te  Te170  1  0.56423454  0.76029656  0.94034889  1
  Te  Te171  1  0.90835077  0.06614860  0.24702544  1
  Te  Te172  1  0.91894542  0.07960846  0.61955148  1
  Te  Te173  1  0.91261561  0.10347520  0.90309325  1
  Te  Te174  1  0.92069138  0.38793464  0.26252246  1
  Te  Te175  1  0.95058234  0.44136419  0.57142730  1
  Te  Te176  1  0.91558662  0.40160429  0.92711199  1
  Te  Te177  1  0.89656376  0.75049025  0.23729948  1
  Te  Te178  1  0.95791896  0.80432907  0.59663088  1
  Te  Te179  1  0.92404751  0.77717679  0.91732083  1
