# generated using pymatgen
data_In2Te3
_symmetry_space_group_name_H-M   'P 1'
_cell_length_a   19.00609400
_cell_length_b   18.97208366
_cell_length_c   18.94955312
_cell_angle_alpha   89.87630674
_cell_angle_beta   89.73562080
_cell_angle_gamma   90.12713084
_symmetry_Int_Tables_number   1
_chemical_formula_structural   In2Te3
_chemical_formula_sum   'In72 Te108'
_cell_volume   6832.82287185
_cell_formula_units_Z   36
loop_
 _symmetry_equiv_pos_site_id
 _symmetry_equiv_pos_as_xyz
  1  'x, y, z'
loop_
 _atom_site_type_symbol
 _atom_site_label
 _atom_site_symmetry_multiplicity
 _atom_site_fract_x
 _atom_site_fract_y
 _atom_site_fract_z
 _atom_site_occupancy
  In  In0  1  0.18619118  0.85131491  0.63780483  1
  In  In1  1  0.85572749  0.83963569  0.34748559  1
  In  In2  1  0.53642057  0.82223978  0.34299716  1
  In  In3  1  0.34337443  -0.01417412  0.00877797  1
  In  In4  1  -0.01179564  0.69283445  -0.01478725  1
  In  In5  1  0.85888028  0.69963148  0.51105138  1
  In  In6  1  0.82551605  0.50219771  0.65776944  1
  In  In7  1  0.31487678  0.67610316  0.64584962  1
  In  In8  1  0.19911873  0.47851604  0.07721453  1
  In  In9  1  0.19403120  0.66794703  0.20006875  1
  In  In10  1  0.49316945  0.65117398  0.82159094  1
  In  In11  1  -0.00266109  0.84802760  0.78899300  1
  In  In12  1  0.67274891  0.49784116  0.49996169  1
  In  In13  1  0.81427372  0.66536989  0.79345552  1
  In  In14  1  -0.02087427  0.17370489  0.53626699  1
  In  In15  1  -0.01508490  0.51942641  0.82366138  1
  In  In16  1  0.48181313  0.00152471  0.51126754  1
  In  In17  1  0.18027053  0.50264448  0.62823748  1
  In  In18  1  0.38973216  0.75615523  0.21474382  1
  In  In19  1  0.68460885  -0.01116141  0.64434563  1
  In  In20  1  0.35775162  0.65662032  0.37170984  1
  In  In21  1  0.66480805  0.49111264  0.83151065  1
  In  In22  1  0.13655733  0.01415452  0.82923324  1
  In  In23  1  0.02891364  -0.01647048  0.35472236  1
  In  In24  1  0.85913102  0.33397190  0.17073431  1
  In  In25  1  0.64077646  0.49747357  0.17758108  1
  In  In26  1  0.82009187  -0.00548791  0.79559526  1
  In  In27  1  0.02466276  0.33242006  0.33980272  1
  In  In28  1  0.54099739  -0.01211340  0.20405794  1
  In  In29  1  0.32899117  0.15417831  0.49021401  1
  In  In30  1  -0.01936714  0.83524616  0.14240080  1
  In  In31  1  0.68729340  -0.00858165  0.00134539  1
  In  In32  1  0.81488658  0.66907812  0.15698786  1
  In  In33  1  0.63782081  0.81335644  0.78635940  1
  In  In34  1  -0.01520687  0.16806414  0.16302999  1
  In  In35  1  0.15150952  0.01057378  0.16704363  1
  In  In36  1  0.47496720  0.16227364  0.65525334  1
  In  In37  1  0.65867384  0.30301064  0.41301189  1
  In  In38  1  -0.00365633  0.34602887  0.65978393  1
  In  In39  1  0.49517078  0.49261475  0.68001473  1
  In  In40  1  0.51418297  0.30374899  0.21027067  1
  In  In41  1  0.33400317  0.33422484  0.03116971  1
  In  In42  1  0.13875113  0.67600514  0.82784801  1
  In  In43  1  0.35659453  0.47202919  0.47887460  1
  In  In44  1  0.01940989  0.51578451  0.17945455  1
  In  In45  1  0.31591185  0.16011809  0.83170984  1
  In  In46  1  0.67603072  0.01151428  0.37040511  1
  In  In47  1  0.64003855  0.34074479  -0.00750613  1
  In  In48  1  0.17458820  0.17248724  0.34135179  1
  In  In49  1  0.30801466  0.66508570  0.04119412  1
  In  In50  1  0.84519401  0.15449990  0.33146401  1
  In  In51  1  0.00881777  0.50105708  0.49144111  1
  In  In52  1  -0.01941563  0.15292866  0.77588819  1
  In  In53  1  0.15373014  0.84280908  0.00832563  1
  In  In54  1  0.71768917  0.84288902  0.15909040  1
  In  In55  1  0.33242372  0.00948879  0.66408005  1
  In  In56  1  0.02761770  0.69293096  0.35952450  1
  In  In57  1  0.64066845  0.31270258  0.63472619  1
  In  In58  1  0.32942861  0.48537334  0.83234358  1
  In  In59  1  0.18610902  0.32765857  0.80980865  1
  In  In60  1  0.83556151  0.48652360  -0.00992148  1
  In  In61  1  0.64311192  0.15554049  0.81779577  1
  In  In62  1  0.00065087  0.35066526  -0.03776696  1
  In  In63  1  0.34928599  0.15685994  0.21275619  1
  In  In64  1  0.80805312  0.15943017  -0.02914096  1
  In  In65  1  0.14941354  0.18178386  0.01213307  1
  In  In66  1  0.53730487  0.68921616  0.53832063  1
  In  In67  1  0.68947514  0.65501590  0.33946320  1
  In  In68  1  0.34776940  0.83756200  0.84440005  1
  In  In69  1  0.47951556  0.16534421  0.00572227  1
  In  In70  1  0.66908807  0.13413406  0.19240087  1
  In  In71  1  0.49542770  0.50860341  0.01912386  1
  Te  Te72  1  0.05696974  0.07316010  0.06638814  1
  Te  Te73  1  0.07276255  0.10845728  0.43150424  1
  Te  Te74  1  0.10375825  0.10105982  0.71534783  1
  Te  Te75  1  0.06546507  0.40075244  0.08728411  1
  Te  Te76  1  0.10459407  0.39532226  0.44703166  1
  Te  Te77  1  0.09238308  0.43261359  0.75078508  1
  Te  Te78  1  0.09356885  0.72517306  0.09394245  1
  Te  Te79  1  0.05125776  0.79691703  0.46246946  1
  Te  Te80  1  0.08683719  0.75455191  0.71157209  1
  Te  Te81  1  0.43206220  0.07060978  0.11620018  1
  Te  Te82  1  0.39315625  0.05161997  0.40582543  1
  Te  Te83  1  0.42193395  0.07300659  0.76870081  1
  Te  Te84  1  0.44352249  0.39902644  0.11097835  1
  Te  Te85  1  0.42779536  0.41433165  0.36326652  1
  Te  Te86  1  0.39414959  0.39700000  0.73364938  1
  Te  Te87  1  0.41177127  0.76205716  0.06889601  1
  Te  Te88  1  0.44234656  0.76288394  0.44704205  1
  Te  Te89  1  0.41135133  0.74911633  0.73991987  1
  Te  Te90  1  0.77127920  0.07755257  0.09391018  1
  Te  Te91  1  0.75027761  0.11788796  0.44173168  1
  Te  Te92  1  0.74709018  0.10634592  0.72165643  1
  Te  Te93  1  0.74622259  0.40409098  0.08260472  1
  Te  Te94  1  0.75128411  0.41567917  0.40762189  1
  Te  Te95  1  0.72745237  0.40687049  0.72267520  1
  Te  Te96  1  0.77436642  0.76097902  0.04671795  1
  Te  Te97  1  0.74970567  0.76345086  0.42630731  1
  Te  Te98  1  0.76696892  0.77980419  0.70695489  1
  Te  Te99  1  0.09094026  0.24588068  0.23427848  1
  Te  Te100  1  0.08589746  0.27474059  0.56610054  1
  Te  Te101  1  0.07972578  0.24190325  0.89062410  1
  Te  Te102  1  0.10280537  0.58063596  0.28706614  1
  Te  Te103  1  0.08390943  0.59637450  0.57442619  1
  Te  Te104  1  0.07564317  0.57970728  0.92806132  1
  Te  Te105  1  0.08041393  0.89444240  0.23620192  1
  Te  Te106  1  0.07807545  0.92029822  0.56146222  1
  Te  Te107  1  0.05888233  0.91303641  0.91547190  1
  Te  Te108  1  0.38910095  0.27844282  0.29446875  1
  Te  Te109  1  0.43931039  0.24954702  0.53706955  1
  Te  Te110  1  0.40064391  0.25681053  0.91745853  1
  Te  Te111  1  0.44702461  0.62697172  0.25781213  1
  Te  Te112  1  0.42366017  0.58913237  0.58549184  1
  Te  Te113  1  0.38995130  0.58163525  0.93443552  1
  Te  Te114  1  0.43485762  0.90004048  0.26262829  1
  Te  Te115  1  0.40314599  0.90498269  0.59130527  1
  Te  Te116  1  0.43983297  0.92002217  0.92146826  1
  Te  Te117  1  0.75927856  0.24776232  0.24561695  1
  Te  Te118  1  0.73359790  0.25494966  0.53493118  1
  Te  Te119  1  0.72574563  0.26108498  0.89586910  1
  Te  Te120  1  0.76126486  0.55829014  0.24669747  1
  Te  Te121  1  0.75328406  0.60302467  0.57264222  1
  Te  Te122  1  0.75346737  0.58535598  0.91028089  1
  Te  Te123  1  0.76191675  0.93316876  0.27125552  1
  Te  Te124  1  0.79569481  0.93566788  0.55770275  1
  Te  Te125  1  0.72650482  0.91260326  0.88015213  1
  Te  Te126  1  0.25967208  0.22428623  0.10518796  1
  Te  Te127  1  0.26283889  0.26476960  0.41455894  1
  Te  Te128  1  0.25877442  0.23725859  0.72100045  1
  Te  Te129  1  0.30294965  0.56001486  0.16152688  1
  Te  Te130  1  0.25764554  0.55911916  0.41678342  1
  Te  Te131  1  0.24426152  0.58744920  0.75754410  1
  Te  Te132  1  0.25096035  0.90912239  0.10180924  1
  Te  Te133  1  0.14755743  0.91413425  0.42376873  1
  Te  Te134  1  0.23988830  0.91788129  0.77121433  1
  Te  Te135  1  0.59401921  0.23158066  0.09291321  1
  Te  Te136  1  0.53798649  0.22005882  0.42304435  1
  Te  Te137  1  0.55444386  0.25510901  0.74743499  1
  Te  Te138  1  0.60351141  0.59050360  0.07217100  1
  Te  Te139  1  0.58086385  0.59418825  0.42544701  1
  Te  Te140  1  0.60015636  0.58706929  0.73421983  1
  Te  Te141  1  0.59559227  0.90752591  0.08859122  1
  Te  Te142  1  0.59576177  0.91187219  0.44844175  1
  Te  Te143  1  0.56984212  0.92571776  0.71505456  1
  Te  Te144  1  0.91053217  0.25181870  0.05090831  1
  Te  Te145  1  0.92129937  0.25304812  0.41677457  1
  Te  Te146  1  0.89614805  0.25663415  0.72113891  1
  Te  Te147  1  0.91847138  0.57833234  0.07722509  1
  Te  Te148  1  0.91945607  0.59969592  0.41421456  1
  Te  Te149  1  0.92736908  0.60210436  0.71277114  1
  Te  Te150  1  0.86655343  0.88845543  0.07189717  1
  Te  Te151  1  0.90333954  0.95016464  0.43697437  1
  Te  Te152  1  0.94211203  0.96354971  0.70908628  1
  Te  Te153  1  0.24926589  0.05798891  0.27246224  1
  Te  Te154  1  0.23603017  0.08304385  0.58306553  1
  Te  Te155  1  0.23968651  0.07395726  0.93844134  1
  Te  Te156  1  0.23593710  0.42860722  0.20777510  1
  Te  Te157  1  0.28782151  0.40984611  0.59693067  1
  Te  Te158  1  0.23581876  0.41048770  0.93544138  1
  Te  Te159  1  0.26089522  0.75864107  0.29708545  1
  Te  Te160  1  0.24814629  0.75633967  0.54433312  1
  Te  Te161  1  0.23612898  0.75057452  0.91853341  1
  Te  Te162  1  0.56685507  0.10349476  0.30249267  1
  Te  Te163  1  0.58339944  0.08853710  0.58171866  1
  Te  Te164  1  0.58047507  0.07920999  0.93275878  1
  Te  Te165  1  0.58107616  0.41388278  0.28753101  1
  Te  Te166  1  0.55866770  0.41799718  0.56390888  1
  Te  Te167  1  0.55009082  0.42248397  0.90366470  1
  Te  Te168  1  0.62279993  0.74991408  0.24226179  1
  Te  Te169  1  0.60539175  0.77841569  0.63623372  1
  Te  Te170  1  0.58085187  0.73631115  0.89931456  1
  Te  Te171  1  0.93265736  0.06048995  0.25269984  1
  Te  Te172  1  0.90164591  0.05478989  0.58674749  1
  Te  Te173  1  0.90634685  0.07904686  0.89189494  1
  Te  Te174  1  0.92980363  0.42690537  0.26563360  1
  Te  Te175  1  0.90330019  0.41617772  0.56205728  1
  Te  Te176  1  0.89284426  0.40852902  0.87301910  1
  Te  Te177  1  0.91859126  0.73343707  0.24841131  1
  Te  Te178  1  0.88287335  0.80962759  0.60957658  1
  Te  Te179  1  0.90946018  0.75639592  0.87510869  1
