# generated using pymatgen
data_In2Te3
_symmetry_space_group_name_H-M   'P 1'
_cell_length_a   18.90342240
_cell_length_b   18.88653180
_cell_length_c   18.90497532
_cell_angle_alpha   90.11871836
_cell_angle_beta   89.99336441
_cell_angle_gamma   89.93678097
_symmetry_Int_Tables_number   1
_chemical_formula_structural   In2Te3
_chemical_formula_sum   'In72 Te108'
_cell_volume   6749.43731689
_cell_formula_units_Z   36
loop_
 _symmetry_equiv_pos_site_id
 _symmetry_equiv_pos_as_xyz
  1  'x, y, z'
loop_
 _atom_site_type_symbol
 _atom_site_label
 _atom_site_symmetry_multiplicity
 _atom_site_fract_x
 _atom_site_fract_y
 _atom_site_fract_z
 _atom_site_occupancy
  In  In0  1  0.18890106  0.64912659  0.16290717  1
  In  In1  1  0.62626344  0.16795309  0.52087188  1
  In  In2  1  0.32097928  0.00731444  -0.03954638  1
  In  In3  1  0.33778671  0.81985909  0.14173216  1
  In  In4  1  0.65498484  0.15934309  0.83050899  1
  In  In5  1  0.02161816  0.03459691  0.68337530  1
  In  In6  1  0.20336033  0.32181508  0.81577646  1
  In  In7  1  0.83342688  0.81969019  -0.02235997  1
  In  In8  1  0.64805037  0.68064493  -0.03038104  1
  In  In9  1  0.33571091  0.52553105  0.82539048  1
  In  In10  1  0.33344533  0.00322527  0.34799055  1
  In  In11  1  0.01970541  0.88031941  0.14877811  1
  In  In12  1  0.82294705  0.30456004  0.16304082  1
  In  In13  1  0.48183567  -0.01062432  0.50735384  1
  In  In14  1  0.87381181  0.69292939  0.15850990  1
  In  In15  1  0.20576262  -0.00790983  0.52773288  1
  In  In16  1  0.03052436  0.34321081  -0.02193736  1
  In  In17  1  0.16310715  0.30786157  0.16985210  1
  In  In18  1  -0.00037081  0.00239324  0.33643360  1
  In  In19  1  0.19269624  0.29001946  0.49836354  1
  In  In20  1  0.82412511  0.15034792  0.34002244  1
  In  In21  1  0.19293501  0.71082261  0.51218524  1
  In  In22  1  0.62445348  -0.03112194  0.70217780  1
  In  In23  1  0.83971774  0.18797349  0.67760997  1
  In  In24  1  0.17148307  0.50782453  0.68749385  1
  In  In25  1  0.66084388  0.32659136  0.03211239  1
  In  In26  1  0.82293381  0.80701616  0.34917969  1
  In  In27  1  0.66517806  0.63292427  0.34599547  1
  In  In28  1  0.47824164  0.32493957  0.83690601  1
  In  In29  1  -0.00817668  0.51013713  0.83419446  1
  In  In30  1  0.83400673  0.49784834  0.36061180  1
  In  In31  1  0.49176742  0.14109844  0.34077217  1
  In  In32  1  0.35438242  0.00630255  0.70008411  1
  In  In33  1  0.84200790  0.01916258  0.84353183  1
  In  In34  1  0.65949704  -0.00680650  -0.02318482  1
  In  In35  1  0.48776346  0.51352671  -0.02809752  1
  In  In36  1  0.32817480  0.83527176  0.81545618  1
  In  In37  1  0.49381702  0.49049558  0.35357763  1
  In  In38  1  0.80348496  0.41798564  0.54082028  1
  In  In39  1  0.01917166  0.68260092  -0.01070951  1
  In  In40  1  0.49786813  0.30056241  0.17787697  1
  In  In41  1  0.36481945  0.31438083  0.64061838  1
  In  In42  1  0.85888310  0.15691509  0.00598365  1
  In  In43  1  0.33143022  0.31136284  -0.00455026  1
  In  In44  1  0.65157199  0.35412832  0.67933551  1
  In  In45  1  0.31786966  0.47340257  0.14763161  1
  In  In46  1  0.15813496  0.67694562  0.82381052  1
  In  In47  1  0.79501057  -0.00041016  0.52698958  1
  In  In48  1  0.01246135  0.84857799  0.49127209  1
  In  In49  1  0.48827221  0.66604244  0.16810007  1
  In  In50  1  0.01762679  0.69629451  0.66411278  1
  In  In51  1  0.01470022  0.16994590  0.48971043  1
  In  In52  1  -0.00974396  0.50190188  0.51101319  1
  In  In53  1  0.65525297  0.84247336  0.17284685  1
  In  In54  1  0.67410418  0.50258066  0.18053089  1
  In  In55  1  0.51129381  0.54904503  0.65602044  1
  In  In56  1  0.47577655  0.83517179  0.35666481  1
  In  In57  1  0.16332621  0.49299332  0.31389366  1
  In  In58  1  0.48048029  0.02116235  0.14100508  1
  In  In59  1  0.00115886  0.49326560  0.15824877  1
  In  In60  1  0.82743775  0.66908475  0.81324324  1
  In  In61  1  0.82147853  0.84957631  0.67285058  1
  In  In62  1  0.66860198  0.51078537  0.83565211  1
  In  In63  1  0.82269786  0.64327079  0.51264046  1
  In  In64  1  0.17264549  0.86886441  -0.02546121  1
  In  In65  1  0.03634982  0.12994603  0.13385126  1
  In  In66  1  0.00862811  0.32080348  0.33430991  1
  In  In67  1  0.82485898  -0.02633646  0.16581034  1
  In  In68  1  0.65096384  0.17283801  0.17024487  1
  In  In69  1  0.34211671  0.67239093  0.34489250  1
  In  In70  1  0.33879536  0.48932145  0.49888855  1
  In  In71  1  0.83675382  0.31482691  0.82085139  1
  Te  Te72  1  0.10401846  0.05292268  0.02513557  1
  Te  Te73  1  0.10235767  0.06174562  0.43185194  1
  Te  Te74  1  0.13493010  0.06489063  0.77471393  1
  Te  Te75  1  0.11060060  0.42217713  0.08172931  1
  Te  Te76  1  0.08876789  0.41416102  0.42322895  1
  Te  Te77  1  0.08483135  0.41141825  0.76390997  1
  Te  Te78  1  0.09989679  0.76065548  0.09048696  1
  Te  Te79  1  0.09833846  0.76100514  0.41209506  1
  Te  Te80  1  0.09380123  0.78636572  0.75047490  1
  Te  Te81  1  0.38117982  0.09871309  0.06461601  1
  Te  Te82  1  0.39300439  0.10484612  0.45898203  1
  Te  Te83  1  0.42284527  0.08901510  0.80425908  1
  Te  Te84  1  0.43558369  0.40592246  0.07368632  1
  Te  Te85  1  0.39858564  0.39131704  0.40720301  1
  Te  Te86  1  0.41303069  0.42389736  0.74164475  1
  Te  Te87  1  0.42686696  0.73894607  0.05769116  1
  Te  Te88  1  0.43700500  0.72424209  0.44525499  1
  Te  Te89  1  0.43467630  0.78036536  0.72045795  1
  Te  Te90  1  0.74289740  0.08037124  0.08133795  1
  Te  Te91  1  0.71892132  0.08497279  0.42732049  1
  Te  Te92  1  0.74238258  0.07627171  0.73508005  1
  Te  Te93  1  0.76549559  0.42293281  0.08581840  1
  Te  Te94  1  0.72565307  0.41876556  0.41588477  1
  Te  Te95  1  0.76495857  0.42874616  0.74980944  1
  Te  Te96  1  0.74889391  0.75365398  0.08856759  1
  Te  Te97  1  0.72551711  0.73814089  0.44234822  1
  Te  Te98  1  0.73332514  0.74432703  0.72881192  1
  Te  Te99  1  0.08139974  0.21392217  0.25827803  1
  Te  Te100  1  0.08833502  0.24577578  0.59120433  1
  Te  Te101  1  0.12599800  0.24577115  0.92025910  1
  Te  Te102  1  0.07182611  0.59448863  0.24681633  1
  Te  Te103  1  0.09814489  0.59546291  0.57976097  1
  Te  Te104  1  0.10030186  0.57378819  0.91953883  1
  Te  Te105  1  0.10402469  0.94702535  0.24897795  1
  Te  Te106  1  0.08718747  0.92459750  0.59750297  1
  Te  Te107  1  0.04922334  0.93767541  0.93732894  1
  Te  Te108  1  0.39960243  0.21432490  0.24744162  1
  Te  Te109  1  0.43352009  0.23592044  0.53562427  1
  Te  Te110  1  0.38889497  0.21743129  0.89005731  1
  Te  Te111  1  0.40297905  0.56608358  0.24459777  1
  Te  Te112  1  0.39030991  0.60088480  0.58112486  1
  Te  Te113  1  0.43801429  0.61645484  0.88171358  1
  Te  Te114  1  0.41874157  0.91544895  0.24064957  1
  Te  Te115  1  0.40635148  0.89525612  0.59940988  1
  Te  Te116  1  0.41659130  0.90109297  0.91705095  1
  Te  Te117  1  0.73147878  0.25416225  0.27089392  1
  Te  Te118  1  0.73706959  0.25425101  0.58822304  1
  Te  Te119  1  0.74782484  0.24176380  0.92792821  1
  Te  Te120  1  0.78008490  0.59819160  0.24325945  1
  Te  Te121  1  0.74294917  0.54572220  0.58527567  1
  Te  Te122  1  0.76230945  0.59014488  0.92668174  1
  Te  Te123  1  0.74031747  0.91445144  0.27633974  1
  Te  Te124  1  0.70044628  0.89817069  0.58913822  1
  Te  Te125  1  0.74645365  0.90597520  0.88704608  1
  Te  Te126  1  0.25571837  0.22416710  0.08832269  1
  Te  Te127  1  0.23619634  0.20717010  0.38729861  1
  Te  Te128  1  0.26947719  0.22917869  0.71768368  1
  Te  Te129  1  0.27615007  0.58595573  0.06377936  1
  Te  Te130  1  0.23817304  0.58220848  0.41318609  1
  Te  Te131  1  0.26440430  0.62055358  0.72948030  1
  Te  Te132  1  0.25504202  0.93240019  0.08493951  1
  Te  Te133  1  0.27037702  0.89677115  0.43064473  1
  Te  Te134  1  0.23310645  0.94040531  0.76476469  1
  Te  Te135  1  0.55703279  0.22079251  0.05993021  1
  Te  Te136  1  0.55631100  0.25198584  0.41939837  1
  Te  Te137  1  0.56639133  0.24427136  0.74121792  1
  Te  Te138  1  0.58992591  0.57804130  0.07722866  1
  Te  Te139  1  0.56932993  0.57966649  0.44253067  1
  Te  Te140  1  0.59973798  0.62074171  0.76012831  1
  Te  Te141  1  0.56930124  0.91489351  0.07247731  1
  Te  Te142  1  0.57758749  0.91711165  0.42158406  1
  Te  Te143  1  0.53331387  0.88680453  0.78911137  1
  Te  Te144  1  0.94548816  0.25969101  0.08453794  1
  Te  Te145  1  0.90402852  0.25148604  0.42102736  1
  Te  Te146  1  0.94889553  0.23120656  0.76922573  1
  Te  Te147  1  0.92600754  0.58593965  0.06365072  1
  Te  Te148  1  0.93081771  0.60334112  0.41270010  1
  Te  Te149  1  0.92473051  0.59080292  0.72463044  1
  Te  Te150  1  0.91267857  0.93112902  0.04770210  1
  Te  Te151  1  0.89324985  0.93128453  0.42361208  1
  Te  Te152  1  0.92363933  0.93268137  0.74774083  1
  Te  Te153  1  0.26815734  0.10913299  0.27009827  1
  Te  Te154  1  0.26522402  0.09673412  0.61612025  1
  Te  Te155  1  0.20854092  0.09634731  0.91014274  1
  Te  Te156  1  0.25858425  0.38836753  0.25881490  1
  Te  Te157  1  0.24207738  0.41072719  0.59306656  1
  Te  Te158  1  0.26577296  0.42179670  0.91341651  1
  Te  Te159  1  0.25467066  0.75467247  0.25158234  1
  Te  Te160  1  0.27167377  0.81466875  0.58022976  1
  Te  Te161  1  0.24979551  0.75153007  0.91989937  1
  Te  Te162  1  0.58351162  0.06224044  0.24715319  1
  Te  Te163  1  0.55430202  0.07206667  0.61510213  1
  Te  Te164  1  0.55695416  0.07241473  0.90191049  1
  Te  Te165  1  0.57763429  0.41054647  0.25023283  1
  Te  Te166  1  0.55529062  0.42087410  0.59206409  1
  Te  Te167  1  0.59360273  0.40205774  0.91226632  1
  Te  Te168  1  0.58476394  0.73844914  0.26076622  1
  Te  Te169  1  0.53920779  0.69872129  0.63588931  1
  Te  Te170  1  0.59276866  0.79615668  0.90264296  1
  Te  Te171  1  0.90829824  0.08474611  0.23105563  1
  Te  Te172  1  0.91142834  0.08370229  0.57960004  1
  Te  Te173  1  0.94525187  0.11408564  0.89409537  1
  Te  Te174  1  0.91265850  0.41000591  0.25254805  1
  Te  Te175  1  0.93788433  0.39419480  0.59455369  1
  Te  Te176  1  0.90984073  0.41237439  0.91720158  1
  Te  Te177  1  0.93853699  0.79169851  0.25109194  1
  Te  Te178  1  0.90811371  0.76351844  0.57586835  1
  Te  Te179  1  0.93428278  0.75354654  0.88550777  1
