# generated using pymatgen
data_In2Te3
_symmetry_space_group_name_H-M   'P 1'
_cell_length_a   18.97270102
_cell_length_b   18.96398700
_cell_length_c   18.96773576
_cell_angle_alpha   90.00210151
_cell_angle_beta   89.95034409
_cell_angle_gamma   90.06553542
_symmetry_Int_Tables_number   1
_chemical_formula_structural   In2Te3
_chemical_formula_sum   'In72 Te108'
_cell_volume   6824.54741097
_cell_formula_units_Z   36
loop_
 _symmetry_equiv_pos_site_id
 _symmetry_equiv_pos_as_xyz
  1  'x, y, z'
loop_
 _atom_site_type_symbol
 _atom_site_label
 _atom_site_symmetry_multiplicity
 _atom_site_fract_x
 _atom_site_fract_y
 _atom_site_fract_z
 _atom_site_occupancy
  In  In0  1  0.85488320  -0.00958280  0.85329495  1
  In  In1  1  0.34827428  0.69717745  0.35608534  1
  In  In2  1  0.29739248  0.53412475  0.14916158  1
  In  In3  1  0.85733797  0.68980389  0.19009991  1
  In  In4  1  0.69534991  0.00246428  0.30673292  1
  In  In5  1  0.51298251  0.50682251  0.33001882  1
  In  In6  1  0.66558148  0.18433643  0.16334492  1
  In  In7  1  0.29389446  0.82494036  0.80791726  1
  In  In8  1  0.66301818  -0.01536705  0.03230770  1
  In  In9  1  0.83117809  0.85605230  0.02819831  1
  In  In10  1  0.65253886  0.00798397  0.69668252  1
  In  In11  1  0.49826259  0.31210268  0.84803038  1
  In  In12  1  -0.00568299  0.34534256  0.00850461  1
  In  In13  1  0.82774843  0.32699991  0.48351999  1
  In  In14  1  0.34010319  0.48655155  0.51317720  1
  In  In15  1  0.70682192  0.17813596  0.84067469  1
  In  In16  1  0.33030144  0.82504869  0.17680655  1
  In  In17  1  0.66111018  0.16337784  0.52223241  1
  In  In18  1  0.50595032  0.33311942  0.52245526  1
  In  In19  1  0.01454483  0.13761561  0.48272447  1
  In  In20  1  0.32372496  0.30180932  0.68047064  1
  In  In21  1  0.13087945  0.18169989  0.29802454  1
  In  In22  1  0.83301108  0.66099514  0.82426565  1
  In  In23  1  0.50033869  0.83598702  0.01054383  1
  In  In24  1  0.30969963  0.16860548  0.83892031  1
  In  In25  1  0.64157064  0.34132124  0.65328535  1
  In  In26  1  0.66271474  0.82270508  0.49218510  1
  In  In27  1  0.02068319  -0.05280562  0.02994038  1
  In  In28  1  0.84003932  0.50205348  0.01287123  1
  In  In29  1  0.14947819  0.51677867  0.33052933  1
  In  In30  1  0.83594660  0.85587733  0.68890984  1
  In  In31  1  0.49849801  0.49792007  -0.01045526  1
  In  In32  1  0.16478036  0.33167278  0.83729939  1
  In  In33  1  0.01192006  0.30847183  0.67194435  1
  In  In34  1  0.51108039  -0.01572126  0.85324190  1
  In  In35  1  0.84765399  0.49674202  0.33235028  1
  In  In36  1  0.16485261  0.66635238  0.51914635  1
  In  In37  1  0.49299696  0.66064159  0.48458142  1
  In  In38  1  0.33183118  0.49571276  0.81981202  1
  In  In39  1  0.18710705  0.34350034  0.48136606  1
  In  In40  1  0.00710585  0.83889769  0.47973609  1
  In  In41  1  -0.00698412  0.65400108  0.63185804  1
  In  In42  1  0.16636613  0.17181609  0.01824308  1
  In  In43  1  0.30680976  -0.02658797  0.35414415  1
  In  In44  1  0.49354831  0.36723690  0.17123910  1
  In  In45  1  0.81682015  0.34248603  0.82147574  1
  In  In46  1  0.29740234  -0.02271434  0.58016253  1
  In  In47  1  0.50286405  0.67749030  0.17875126  1
  In  In48  1  0.46489371  0.16593379  0.66448601  1
  In  In49  1  0.32193215  0.33430092  0.30740511  1
  In  In50  1  0.51177894  0.84067422  0.34406188  1
  In  In51  1  0.14917336  0.84525415  0.65643972  1
  In  In52  1  0.32402924  0.02222569  -0.00894377  1
  In  In53  1  0.01142529  0.50482794  0.15815447  1
  In  In54  1  0.16316416  -0.02462987  0.19032383  1
  In  In55  1  0.67022578  0.65556382  0.66756740  1
  In  In56  1  0.33958760  0.16467814  0.15064045  1
  In  In57  1  0.68043648  0.66151565  0.01076888  1
  In  In58  1  0.82479174  -0.02128855  0.46992069  1
  In  In59  1  0.49727313  0.17474932  -0.00787945  1
  In  In60  1  0.01988110  0.80279617  0.86187254  1
  In  In61  1  0.48103348  0.69241559  0.83745681  1
  In  In62  1  0.85735270  0.16606642  -0.00957371  1
  In  In63  1  0.17046003  0.64649131  0.84007887  1
  In  In64  1  0.86213393  0.14683221  0.30150823  1
  In  In65  1  0.84745618  0.68458611  0.45542192  1
  In  In66  1  0.08020120  0.66680543  0.04393179  1
  In  In67  1  0.89067840  0.16962984  0.64086417  1
  In  In68  1  0.84730271  0.34238664  0.15607506  1
  In  In69  1  0.83030522  0.50294033  0.65050212  1
  In  In70  1  0.48712550  0.13512444  0.35650782  1
  In  In71  1  0.50113468  0.51485492  0.66248833  1
  Te  Te72  1  0.08774500  0.06794418  0.09830269  1
  Te  Te73  1  0.06316564  0.06336038  0.36075759  1
  Te  Te74  1  0.01579053  0.13803433  0.71441823  1
  Te  Te75  1  0.09423689  0.44328022  0.05223873  1
  Te  Te76  1  0.08130143  0.41961035  0.41630740  1
  Te  Te77  1  0.08646746  0.41142628  0.74456780  1
  Te  Te78  1  0.04877291  0.78416252  0.13010966  1
  Te  Te79  1  0.06724962  0.71826101  0.42169230  1
  Te  Te80  1  0.07462129  0.73621930  0.73663325  1
  Te  Te81  1  0.43697897  0.06884752  0.08145057  1
  Te  Te82  1  0.40334203  0.04950233  0.44440169  1
  Te  Te83  1  0.41498547  0.07969313  0.77674521  1
  Te  Te84  1  0.39417387  0.43395032  0.08098057  1
  Te  Te85  1  0.41655564  0.40482217  0.40980097  1
  Te  Te86  1  0.43555025  0.39757827  0.73339289  1
  Te  Te87  1  0.40739772  0.73763608  0.07925055  1
  Te  Te88  1  0.41292165  0.79759833  0.45777773  1
  Te  Te89  1  0.41139523  0.77353687  0.73804103  1
  Te  Te90  1  0.75493629  0.09485974  0.07986252  1
  Te  Te91  1  0.75451479  0.10452470  0.41696643  1
  Te  Te92  1  0.77768511  0.07584965  0.75185933  1
  Te  Te93  1  0.74874793  0.44396829  0.11389791  1
  Te  Te94  1  0.74674425  0.42248893  0.41089706  1
  Te  Te95  1  0.72774452  0.43316085  0.73909611  1
  Te  Te96  1  0.74574821  0.75772753  0.10747376  1
  Te  Te97  1  0.74926556  0.76816988  0.38615974  1
  Te  Te98  1  0.74076005  0.75936130  0.75544812  1
  Te  Te99  1  0.04619934  0.27582050  0.22617273  1
  Te  Te100  1  0.08842382  0.24949389  0.55358253  1
  Te  Te101  1  0.07430994  0.24664184  0.92358150  1
  Te  Te102  1  0.08811651  0.60711318  0.23248962  1
  Te  Te103  1  0.08283236  0.55585516  0.57264822  1
  Te  Te104  1  0.06595483  0.58405416  0.92319410  1
  Te  Te105  1  0.09518293  0.86156312  0.25746486  1
  Te  Te106  1  0.09695817  0.93694375  0.54867234  1
  Te  Te107  1  0.11491268  0.88787238  0.93360658  1
  Te  Te108  1  0.43132485  0.24089254  0.25313584  1
  Te  Te109  1  0.39024487  0.24047109  0.55678340  1
  Te  Te110  1  0.38550180  0.25890932  0.93429241  1
  Te  Te111  1  0.40432393  0.58379909  0.25384661  1
  Te  Te112  1  0.40070946  0.60123208  0.59137162  1
  Te  Te113  1  0.40324209  0.58916922  0.91642352  1
  Te  Te114  1  0.41451393  0.92007309  0.25977630  1
  Te  Te115  1  0.42854719  0.91765656  0.55215647  1
  Te  Te116  1  0.39628148  0.90865790  0.91776224  1
  Te  Te117  1  0.76598600  0.25407690  0.25170922  1
  Te  Te118  1  0.75610394  0.24531381  0.60780854  1
  Te  Te119  1  0.75828472  0.27394575  0.94577102  1
  Te  Te120  1  0.77296245  0.57421786  0.23025205  1
  Te  Te121  1  0.76430084  0.60476117  0.56121672  1
  Te  Te122  1  0.74762293  0.57022135  0.91052388  1
  Te  Te123  1  0.76141104  0.92454216  0.20243966  1
  Te  Te124  1  0.73672826  0.92505656  0.58923431  1
  Te  Te125  1  0.74023297  0.91710057  0.92061538  1
  Te  Te126  1  0.24063216  0.26194114  0.10636886  1
  Te  Te127  1  0.24170952  0.23413310  0.38858569  1
  Te  Te128  1  0.21305123  0.20740641  0.72767516  1
  Te  Te129  1  0.22751276  0.62407660  0.05601722  1
  Te  Te130  1  0.26746025  0.57795760  0.41658780  1
  Te  Te131  1  0.25350492  0.58525338  0.73623683  1
  Te  Te132  1  0.25693050  0.92019043  0.08447792  1
  Te  Te133  1  0.22709218  0.90660120  0.45947278  1
  Te  Te134  1  0.24264281  0.94091453  0.72695361  1
  Te  Te135  1  0.57426634  0.27085505  0.07958013  1
  Te  Te136  1  0.57754558  0.24215310  0.42368457  1
  Te  Te137  1  0.58957754  0.23103232  0.74919103  1
  Te  Te138  1  0.57912447  0.58081718  0.09013868  1
  Te  Te139  1  0.59904121  0.60456962  0.39989459  1
  Te  Te140  1  0.57634159  0.59080062  0.76756708  1
  Te  Te141  1  0.58132274  0.89792245  0.11581385  1
  Te  Te142  1  0.60375910  0.93965834  0.41200591  1
  Te  Te143  1  0.57280189  0.89899655  0.75190567  1
  Te  Te144  1  0.94056215  0.23108571  0.10176260  1
  Te  Te145  1  0.92280358  0.23574009  0.40991786  1
  Te  Te146  1  0.91884028  0.23440377  0.78312790  1
  Te  Te147  1  0.92508148  0.60986116  0.07599139  1
  Te  Te148  1  0.93878742  0.57805723  0.41603361  1
  Te  Te149  1  0.92607257  0.57371895  0.74409368  1
  Te  Te150  1  0.89919860  0.94479378  0.13197135  1
  Te  Te151  1  0.90863839  0.89613934  0.38158804  1
  Te  Te152  1  0.95124487  0.91019244  0.76834225  1
  Te  Te153  1  0.26077764  0.08092301  0.24968388  1
  Te  Te154  1  0.24621079  0.11029338  0.61081817  1
  Te  Te155  1  0.21079696  0.07545454  0.90615818  1
  Te  Te156  1  0.22855432  0.42496207  0.23464432  1
  Te  Te157  1  0.24820484  0.40993137  0.60556790  1
  Te  Te158  1  0.25303162  0.41795821  0.91556070  1
  Te  Te159  1  0.24286744  0.74985704  0.26887569  1
  Te  Te160  1  0.24893435  0.75359477  0.60007213  1
  Te  Te161  1  0.24823562  0.74245851  0.92249779  1
  Te  Te162  1  0.58397572  0.08749588  0.24694253  1
  Te  Te163  1  0.56268158  0.07367564  0.59227267  1
  Te  Te164  1  0.60297630  0.09268368  0.91795747  1
  Te  Te165  1  0.59863714  0.40909081  0.26294198  1
  Te  Te166  1  0.59352339  0.45200827  0.55995155  1
  Te  Te167  1  0.58637886  0.40457898  0.91776495  1
  Te  Te168  1  0.59443171  0.73589127  0.27873207  1
  Te  Te169  1  0.57614176  0.74141702  0.58636037  1
  Te  Te170  1  0.59213415  0.75151723  0.92518213  1
  Te  Te171  1  0.95430380  0.04688307  0.24617567  1
  Te  Te172  1  0.92578526  0.04139718  0.56290244  1
  Te  Te173  1  0.95355927  0.05922514  0.94150702  1
  Te  Te174  1  0.95187312  0.39800857  0.25423493  1
  Te  Te175  1  0.91412954  0.39651796  0.58584436  1
  Te  Te176  1  0.91389013  0.42424430  0.90503870  1
  Te  Te177  1  0.95261730  0.78211028  0.25975528  1
  Te  Te178  1  0.90322921  0.77222735  0.58333745  1
  Te  Te179  1  0.89178614  0.75722927  0.92561376  1
