# generated using pymatgen
data_In2Te3
_symmetry_space_group_name_H-M   'P 1'
_cell_length_a   18.95540892
_cell_length_b   18.94667727
_cell_length_c   18.96543544
_cell_angle_alpha   89.98377854
_cell_angle_beta   90.03469926
_cell_angle_gamma   89.96513166
_symmetry_Int_Tables_number   1
_chemical_formula_structural   In2Te3
_chemical_formula_sum   'In72 Te108'
_cell_volume   6811.28192182
_cell_formula_units_Z   36
loop_
 _symmetry_equiv_pos_site_id
 _symmetry_equiv_pos_as_xyz
  1  'x, y, z'
loop_
 _atom_site_type_symbol
 _atom_site_label
 _atom_site_symmetry_multiplicity
 _atom_site_fract_x
 _atom_site_fract_y
 _atom_site_fract_z
 _atom_site_occupancy
  In  In0  1  0.34297708  0.81072311  0.50587952  1
  In  In1  1  -0.00754885  0.48985589  0.82672099  1
  In  In2  1  0.17761615  0.16838395  0.68821487  1
  In  In3  1  0.34386260  0.32777976  -0.00194452  1
  In  In4  1  -0.02421167  0.46310712  0.49849222  1
  In  In5  1  -0.03488376  0.01528785  0.65784005  1
  In  In6  1  -0.02675141  0.20478860  0.47952974  1
  In  In7  1  0.83823750  0.18666176  0.64925895  1
  In  In8  1  0.64434748  0.48665932  0.85842492  1
  In  In9  1  0.01010717  0.83218341  0.84935561  1
  In  In10  1  0.17222011  0.86812361  0.66176298  1
  In  In11  1  0.83094498  -0.00391615  0.84516863  1
  In  In12  1  0.52092714  0.32203889  0.16926354  1
  In  In13  1  0.15166468  0.00473447  0.15181380  1
  In  In14  1  0.31215489  -0.01553945  0.32964043  1
  In  In15  1  0.36951611  0.19272025  0.51369698  1
  In  In16  1  0.79530115  0.34548683  0.18802385  1
  In  In17  1  0.51770970  0.00415569  0.49564420  1
  In  In18  1  0.32205058  0.00369283  0.69243365  1
  In  In19  1  0.65571539  0.65139735  0.32987339  1
  In  In20  1  0.17882449  0.17229565  0.35701593  1
  In  In21  1  0.50589630  0.16248757  0.32062753  1
  In  In22  1  0.00615876  0.66464878  0.33831192  1
  In  In23  1  0.67639764  -0.00124335  0.66836252  1
  In  In24  1  0.82713731  0.16576281  -0.00278799  1
  In  In25  1  0.15444347  0.51722312  0.34069758  1
  In  In26  1  0.51041397  -0.00364342  0.18819873  1
  In  In27  1  0.65608987  0.67152817  -0.00611976  1
  In  In28  1  -0.01424087  0.31221593  -0.01848413  1
  In  In29  1  0.35821098  0.64246673  0.00591147  1
  In  In30  1  -0.00807475  0.67401757  0.66641501  1
  In  In31  1  0.16188035  0.67280224  0.49897077  1
  In  In32  1  -0.02209213  0.65537122  0.01075929  1
  In  In33  1  -0.01060004  0.17752874  0.81084106  1
  In  In34  1  0.52318814  0.15888423  0.01946471  1
  In  In35  1  0.51038207  0.24613460  0.68584565  1
  In  In36  1  0.33159129  0.80188106  0.17414337  1
  In  In37  1  0.66220227  0.83327874  0.49340562  1
  In  In38  1  0.37097546  0.63522263  0.64139219  1
  In  In39  1  0.63995877  0.35715903  0.37647631  1
  In  In40  1  0.50327564  0.83178408  0.67526234  1
  In  In41  1  0.83468055  0.49396368  0.66834125  1
  In  In42  1  0.80204339  0.48584614  0.34331841  1
  In  In43  1  0.83502566  0.81758587  0.32377117  1
  In  In44  1  0.84252558  0.83722029  0.02451149  1
  In  In45  1  0.35077363  0.51214572  0.18088574  1
  In  In46  1  0.18633852  0.83412310  -0.00982502  1
  In  In47  1  0.34588993  0.19214464  0.15860574  1
  In  In48  1  0.47469957  0.02406647  0.85207619  1
  In  In49  1  0.80979186  0.81254868  0.65128484  1
  In  In50  1  0.64736857  0.62122576  0.63502425  1
  In  In51  1  -0.03936203  0.49370911  0.16045360  1
  In  In52  1  -0.00440938  0.84353818  0.18293709  1
  In  In53  1  -0.01273411  -0.00417523  0.31323670  1
  In  In54  1  0.34008826  0.18395546  0.83041172  1
  In  In55  1  0.67677412  0.17047563  0.48166997  1
  In  In56  1  0.68564203  0.82480947  0.84153746  1
  In  In57  1  0.20870577  0.01537717  0.83821352  1
  In  In58  1  0.16632031  0.32786780  0.52407850  1
  In  In59  1  0.16150098  0.34673548  0.18678125  1
  In  In60  1  0.51519603  0.64966956  0.83586167  1
  In  In61  1  -0.00656069  0.16148302  0.18106145  1
  In  In62  1  0.65954755  0.50530498  0.14506656  1
  In  In63  1  0.19186770  0.63969148  0.81048923  1
  In  In64  1  0.15582983  0.50978282  0.67801463  1
  In  In65  1  0.64376719  0.82360814  0.15611847  1
  In  In66  1  0.65858798  0.20265124  0.83119970  1
  In  In67  1  0.83264813  0.00935263  0.16934948  1
  In  In68  1  0.15388315  0.00082087  0.52165399  1
  In  In69  1  0.37676775  0.63467031  0.36076783  1
  In  In70  1  0.18536587  0.68021757  0.15786778  1
  In  In71  1  0.16154864  0.47364468  -0.02831773  1
  Te  Te72  1  0.07859277  0.10535986  0.07662649  1
  Te  Te73  1  0.07506864  0.08030937  0.41860346  1
  Te  Te74  1  0.08542750  0.05892545  0.74230908  1
  Te  Te75  1  0.06931845  0.41101478  0.08156127  1
  Te  Te76  1  0.08690360  0.40366049  0.41544471  1
  Te  Te77  1  0.09677372  0.40741828  0.76544982  1
  Te  Te78  1  0.07835142  0.76190140  0.07489253  1
  Te  Te79  1  0.08347953  0.76209476  0.41422068  1
  Te  Te80  1  0.09468257  0.75031503  0.75223315  1
  Te  Te81  1  0.41806911  0.07849534  0.09266670  1
  Te  Te82  1  0.40451191  0.07747645  0.40872284  1
  Te  Te83  1  0.43269024  0.10514118  0.72936256  1
  Te  Te84  1  0.42578794  0.41360888  0.09204515  1
  Te  Te85  1  0.46152926  0.46106697  0.42180504  1
  Te  Te86  1  0.45555249  0.37088220  0.75021416  1
  Te  Te87  1  0.42394824  0.75458185  0.07174479  1
  Te  Te88  1  0.44423551  0.75107929  0.42085965  1
  Te  Te89  1  0.41861091  0.73196043  0.74972901  1
  Te  Te90  1  0.74125359  0.08809168  0.08662000  1
  Te  Te91  1  0.72608339  0.09679532  0.36525893  1
  Te  Te92  1  0.76145143  0.09416478  0.75164272  1
  Te  Te93  1  0.72338466  0.39516029  0.06792574  1
  Te  Te94  1  0.77162982  0.39149121  0.45905594  1
  Te  Te95  1  0.74199017  0.42132076  0.76090281  1
  Te  Te96  1  0.75256963  0.73818165  0.09280104  1
  Te  Te97  1  0.74855639  0.73458265  0.41706788  1
  Te  Te98  1  0.71516680  0.72753090  0.73113120  1
  Te  Te99  1  0.08021552  0.25049769  0.27111632  1
  Te  Te100  1  0.07269838  0.22854887  0.59011692  1
  Te  Te101  1  0.08559564  0.25425563  0.89145493  1
  Te  Te102  1  0.07833266  0.58199183  0.22315318  1
  Te  Te103  1  0.06331474  0.57682770  0.56903140  1
  Te  Te104  1  0.08219077  0.59697698  0.91507038  1
  Te  Te105  1  0.10555006  0.91111448  0.26138336  1
  Te  Te106  1  0.04857801  0.91028908  0.58309876  1
  Te  Te107  1  0.09911339  0.93298789  0.91559544  1
  Te  Te108  1  0.41345959  0.27174356  0.26619563  1
  Te  Te109  1  0.40292416  0.30821378  0.60024248  1
  Te  Te110  1  0.45172862  0.25115897  0.91982866  1
  Te  Te111  1  0.45117251  0.60644986  0.23453783  1
  Te  Te112  1  0.45170545  0.54667501  0.55230938  1
  Te  Te113  1  0.43831676  0.55430808  0.91998869  1
  Te  Te114  1  0.41429719  0.90101541  0.25962684  1
  Te  Te115  1  0.41490673  0.92585033  0.59132377  1
  Te  Te116  1  0.37253873  0.93186818  0.89546216  1
  Te  Te117  1  0.71808721  0.26444508  0.28408241  1
  Te  Te118  1  0.74091110  0.27195424  0.57316171  1
  Te  Te119  1  0.77024351  0.26369572  0.90352894  1
  Te  Te120  1  0.75446565  0.58169400  0.23747335  1
  Te  Te121  1  0.76905626  0.57762679  0.56690653  1
  Te  Te122  1  0.73466675  0.59557573  0.89607265  1
  Te  Te123  1  0.74719624  0.90409973  0.23719006  1
  Te  Te124  1  0.75918595  0.92793838  0.56498213  1
  Te  Te125  1  0.74449204  0.92094461  0.94366930  1
  Te  Te126  1  0.23372455  0.26155233  0.08432349  1
  Te  Te127  1  0.27177119  0.26951783  0.42545979  1
  Te  Te128  1  0.25252159  0.27418022  0.75417114  1
  Te  Te129  1  0.23895494  0.56045329  0.07890690  1
  Te  Te130  1  0.25713134  0.57329340  0.43741683  1
  Te  Te131  1  0.29463782  0.55203018  0.74345202  1
  Te  Te132  1  0.25893140  0.91524753  0.09420153  1
  Te  Te133  1  0.24344130  0.90644320  0.44008073  1
  Te  Te134  1  0.27428279  0.88418811  0.77857361  1
  Te  Te135  1  0.61728409  0.25903110  0.07605652  1
  Te  Te136  1  0.55164380  0.24543180  0.43793537  1
  Te  Te137  1  0.64927723  0.29936308  0.71356164  1
  Te  Te138  1  0.56351429  0.57372437  0.05595690  1
  Te  Te139  1  0.58625136  0.56054848  0.42894518  1
  Te  Te140  1  0.56564473  0.54669245  0.73587772  1
  Te  Te141  1  0.56418294  0.91860754  0.07676661  1
  Te  Te142  1  0.59004873  0.92166739  0.40110481  1
  Te  Te143  1  0.58597133  0.92356159  0.76364498  1
  Te  Te144  1  0.90234273  0.25856129  0.10574491  1
  Te  Te145  1  0.87601918  0.28806724  0.40901823  1
  Te  Te146  1  0.90469103  0.27934041  0.74424665  1
  Te  Te147  1  0.88006849  0.55326057  0.05231021  1
  Te  Te148  1  0.91253286  0.57044127  0.40990250  1
  Te  Te149  1  0.90657813  0.59680496  0.76266713  1
  Te  Te150  1  0.93775507  0.94008371  0.08223867  1
  Te  Te151  1  0.91226920  0.91127853  0.40523275  1
  Te  Te152  1  0.90519938  0.90089205  0.75203426  1
  Te  Te153  1  0.25063707  0.09723049  0.24397971  1
  Te  Te154  1  0.26308634  0.09758537  0.57663018  1
  Te  Te155  1  0.27219336  0.10442189  0.93401932  1
  Te  Te156  1  0.25855399  0.42964912  0.26887290  1
  Te  Te157  1  0.24437659  0.43643778  0.58486508  1
  Te  Te158  1  0.27524787  0.41596149  0.90141970  1
  Te  Te159  1  0.26366521  0.71799996  0.27917902  1
  Te  Te160  1  0.25217272  0.73751342  0.60489551  1
  Te  Te161  1  0.25972659  0.72254945  0.91893796  1
  Te  Te162  1  0.61479438  0.08290952  0.25656556  1
  Te  Te163  1  0.59081864  0.09626384  0.59051207  1
  Te  Te164  1  0.60057995  0.08508663  0.91022158  1
  Te  Te165  1  0.58277541  0.43071082  0.25321920  1
  Te  Te166  1  0.57671943  0.43483027  0.52031570  1
  Te  Te167  1  0.53676640  0.38276425  0.87771958  1
  Te  Te168  1  0.56548898  0.73183805  0.24382870  1
  Te  Te169  1  0.57126683  0.74321331  0.57409463  1
  Te  Te170  1  0.56705917  0.76956872  0.91578874  1
  Te  Te171  1  0.88964012  0.10643682  0.27731406  1
  Te  Te172  1  0.89498335  0.09100932  0.54542785  1
  Te  Te173  1  0.93010814  0.08445958  0.91511249  1
  Te  Te174  1  0.91468804  0.40472403  0.27141003  1
  Te  Te175  1  0.93623496  0.39381132  0.62238734  1
  Te  Te176  1  0.90774173  0.42595779  0.92963443  1
  Te  Te177  1  0.91565109  0.72619179  0.23176188  1
  Te  Te178  1  0.90487943  0.73929570  0.56865696  1
  Te  Te179  1  0.90215436  0.74909782  0.91564734  1
