# generated using pymatgen
data_In2Te3
_symmetry_space_group_name_H-M   'P 1'
_cell_length_a   18.85112773
_cell_length_b   18.85721461
_cell_length_c   18.85055085
_cell_angle_alpha   89.98304580
_cell_angle_beta   90.16514613
_cell_angle_gamma   89.99556211
_symmetry_Int_Tables_number   1
_chemical_formula_structural   In2Te3
_chemical_formula_sum   'In72 Te108'
_cell_volume   6700.96116511
_cell_formula_units_Z   36
loop_
 _symmetry_equiv_pos_site_id
 _symmetry_equiv_pos_as_xyz
  1  'x, y, z'
loop_
 _atom_site_type_symbol
 _atom_site_label
 _atom_site_symmetry_multiplicity
 _atom_site_fract_x
 _atom_site_fract_y
 _atom_site_fract_z
 _atom_site_occupancy
  In  In0  1  0.82489635  -0.03267811  0.15571084  1
  In  In1  1  0.81980419  0.78832387  0.35823767  1
  In  In2  1  0.00551344  0.49736801  0.48924678  1
  In  In3  1  0.49382491  0.32902701  0.82846809  1
  In  In4  1  0.49468390  0.01138291  0.14957241  1
  In  In5  1  0.66673655  0.63964224  0.00285092  1
  In  In6  1  0.31654445  0.83073417  0.18270338  1
  In  In7  1  0.19235686  0.66421269  0.19639349  1
  In  In8  1  0.82374766  0.64204539  0.17033548  1
  In  In9  1  0.65043198  0.35055394  0.63274719  1
  In  In10  1  0.70100000  0.31491437  0.01223852  1
  In  In11  1  0.17383512  -0.01396811  0.48286379  1
  In  In12  1  -0.01740441  0.19055303  0.52057132  1
  In  In13  1  0.64928580  0.35133361  0.34333621  1
  In  In14  1  0.00906242  0.67356206  0.64002008  1
  In  In15  1  0.50861271  0.85890233  -0.01440613  1
  In  In16  1  0.30363962  0.17593124  0.46828638  1
  In  In17  1  0.82054773  0.50292992  0.36817890  1
  In  In18  1  0.34537695  0.02026227  0.00663774  1
  In  In19  1  0.49017568  0.15621353  0.31741742  1
  In  In20  1  0.65899320  0.52366050  0.82727033  1
  In  In21  1  0.33574724  0.51468692  0.81466544  1
  In  In22  1  0.55705126  0.03214082  0.81074448  1
  In  In23  1  0.15529822  0.48839524  0.00129890  1
  In  In24  1  0.18442961  0.83167477  -0.00124923  1
  In  In25  1  0.85613224  0.13563217  -0.02847796  1
  In  In26  1  0.82271831  0.49776687  -0.03585272  1
  In  In27  1  0.82950840  -0.03061446  0.49897201  1
  In  In28  1  0.16477011  0.17405074  0.01955985  1
  In  In29  1  0.51881843  0.66115486  0.50792283  1
  In  In30  1  0.65788810  0.48854195  0.19438852  1
  In  In31  1  0.30602318  0.68038724  0.63813005  1
  In  In32  1  0.16457550  -0.02291758  0.81760314  1
  In  In33  1  0.34078214  0.66610148  0.00111828  1
  In  In34  1  0.82960803  0.83858609  -0.02850770  1
  In  In35  1  0.82453443  0.32516200  0.82216719  1
  In  In36  1  0.49995978  0.67470271  0.79672724  1
  In  In37  1  -0.01194637  0.49597452  0.81802891  1
  In  In38  1  0.84587097  0.84061604  0.66947196  1
  In  In39  1  0.14634370  0.83251205  0.65338913  1
  In  In40  1  0.01312397  0.17342571  0.15913710  1
  In  In41  1  0.00927649  0.33893120  0.67341529  1
  In  In42  1  0.80700571  0.53007766  0.62535698  1
  In  In43  1  0.64909267  0.15717028  0.17063702  1
  In  In44  1  0.51136679  0.47963637  0.01563965  1
  In  In45  1  0.02185361  0.32789266  0.31352364  1
  In  In46  1  0.03059062  0.14467105  0.82747682  1
  In  In47  1  0.17371206  0.16437573  0.66211926  1
  In  In48  1  0.01912573  0.52122939  0.16461456  1
  In  In49  1  0.86105440  0.16335470  0.34625460  1
  In  In50  1  0.35798874  0.16243578  0.84555810  1
  In  In51  1  0.33189381  0.67039557  0.36931295  1
  In  In52  1  0.65943305  0.80073017  0.19897088  1
  In  In53  1  0.01899244  0.84343125  0.18093523  1
  In  In54  1  0.45133103  0.65984430  0.20780277  1
  In  In55  1  0.68029191  0.17422250  0.50432839  1
  In  In56  1  0.49092857  0.16958908  0.65691383  1
  In  In57  1  -0.00483515  0.69643271  -0.02291251  1
  In  In58  1  0.02722344  0.69230147  0.35863021  1
  In  In59  1  0.18848329  0.34290763  0.18704810  1
  In  In60  1  0.00869143  0.00729682  0.34830965  1
  In  In61  1  0.47126984  0.33523655  0.18844915  1
  In  In62  1  0.35002126  0.35441034  0.65664409  1
  In  In63  1  0.33086202  0.80584193  0.80829132  1
  In  In64  1  0.65331420  0.00431853  -0.02092412  1
  In  In65  1  0.49882310  0.84770587  0.34907133  1
  In  In66  1  0.33567130  0.49140572  0.48725784  1
  In  In67  1  0.81041056  0.12824513  0.68859631  1
  In  In68  1  0.66381223  0.82225414  0.79775996  1
  In  In69  1  0.49586180  -0.01993886  0.51099655  1
  In  In70  1  0.16967081  0.34364553  0.83257566  1
  In  In71  1  0.85102913  0.32230543  0.18698728  1
  Te  Te72  1  0.07598985  0.07101860  0.07521717  1
  Te  Te73  1  0.07822972  0.11071482  0.43375605  1
  Te  Te74  1  0.08049004  0.05588053  0.71342593  1
  Te  Te75  1  0.07451743  0.39917386  0.09489822  1
  Te  Te76  1  0.09619694  0.41007467  0.40978011  1
  Te  Te77  1  0.10448221  0.44072883  0.73521061  1
  Te  Te78  1  0.09600332  0.73518995  0.09488748  1
  Te  Te79  1  0.11289243  0.78917960  0.42798067  1
  Te  Te80  1  0.07179541  0.75058878  0.75029296  1
  Te  Te81  1  0.39453019  0.11254917  0.11146350  1
  Te  Te82  1  0.41348006  0.07721509  0.42245207  1
  Te  Te83  1  0.41857222  0.06983896  0.74430795  1
  Te  Te84  1  0.40164726  0.42850316  0.09627474  1
  Te  Te85  1  0.43696428  0.38860002  0.44891963  1
  Te  Te86  1  0.44635960  0.44066742  0.73889092  1
  Te  Te87  1  0.42436270  0.76288696  0.08871732  1
  Te  Te88  1  0.41804101  0.76778619  0.45313258  1
  Te  Te89  1  0.43180367  0.76886929  0.69339559  1
  Te  Te90  1  0.75157789  0.08361393  0.08092985  1
  Te  Te91  1  0.75715182  0.07867137  0.41333350  1
  Te  Te92  1  0.70227842  0.07177726  0.76781324  1
  Te  Te93  1  0.75993997  0.43218655  0.09418859  1
  Te  Te94  1  0.74929984  0.39724473  0.44175674  1
  Te  Te95  1  0.74955199  0.42804940  0.73766427  1
  Te  Te96  1  0.75265531  0.74921340  0.07978809  1
  Te  Te97  1  0.71613439  0.76131040  0.46125425  1
  Te  Te98  1  0.73897529  0.73433353  0.70424953  1
  Te  Te99  1  0.11568506  0.22180977  0.25880836  1
  Te  Te100  1  0.10325544  0.26873657  0.57612279  1
  Te  Te101  1  0.08066144  0.25617663  0.91860270  1
  Te  Te102  1  0.09838518  0.57843750  0.27971496  1
  Te  Te103  1  0.10285472  0.59068794  0.55595758  1
  Te  Te104  1  0.07459233  0.58179208  0.91153780  1
  Te  Te105  1  0.10410207  0.94432094  0.24994375  1
  Te  Te106  1  0.06894103  0.93024818  0.57256502  1
  Te  Te107  1  0.08589215  0.90042109  0.91463945  1
  Te  Te108  1  0.38150152  0.25115928  0.27542602  1
  Te  Te109  1  0.40887779  0.25217634  0.56000858  1
  Te  Te110  1  0.41583631  0.26501751  0.93332474  1
  Te  Te111  1  0.36445164  0.55859992  0.27343685  1
  Te  Te112  1  0.41090826  0.58475539  0.58486402  1
  Te  Te113  1  0.44008795  0.58650399  0.91583059  1
  Te  Te114  1  0.41347952  0.92708388  0.24944073  1
  Te  Te115  1  0.41421631  0.88208764  0.58529561  1
  Te  Te116  1  0.38924424  0.90872852  0.90943293  1
  Te  Te117  1  0.74232414  0.24535460  0.25854993  1
  Te  Te118  1  0.76502457  0.25006343  0.60475034  1
  Te  Te119  1  0.74712532  0.22038753  0.90245460  1
  Te  Te120  1  0.73171008  0.59300113  0.27977737  1
  Te  Te121  1  0.72685130  0.60642480  0.52133187  1
  Te  Te122  1  0.76553997  0.61552203  0.88885016  1
  Te  Te123  1  0.75341521  0.89771077  0.27012019  1
  Te  Te124  1  0.74626118  0.93837932  0.61514338  1
  Te  Te125  1  0.74205988  0.92698844  0.88383580  1
  Te  Te126  1  0.26217973  0.25700179  0.09175259  1
  Te  Te127  1  0.27150896  0.30292639  0.38967424  1
  Te  Te128  1  0.26444795  0.25283758  0.75180256  1
  Te  Te129  1  0.25072695  0.57673515  0.08565660  1
  Te  Te130  1  0.22863547  0.59450007  0.44929666  1
  Te  Te131  1  0.24007938  0.60124008  0.74426291  1
  Te  Te132  1  0.25002835  0.93352157  0.09116137  1
  Te  Te133  1  0.28912903  0.92495106  0.41077833  1
  Te  Te134  1  0.26118674  0.91034364  0.72197749  1
  Te  Te135  1  0.58295099  0.27173957  0.09683215  1
  Te  Te136  1  0.57540961  0.23931713  0.41504005  1
  Te  Te137  1  0.58920215  0.25561462  0.73764264  1
  Te  Te138  1  0.57080284  0.59301873  0.11169186  1
  Te  Te139  1  0.60030601  0.54797050  0.45023128  1
  Te  Te140  1  0.58669305  0.58714547  0.71607453  1
  Te  Te141  1  0.60527179  0.90708278  0.09807372  1
  Te  Te142  1  0.60278403  0.90737663  0.43621380  1
  Te  Te143  1  0.55484372  0.90218284  0.73896087  1
  Te  Te144  1  0.90828794  0.24434920  0.07144578  1
  Te  Te145  1  0.91581089  0.28267183  0.41841939  1
  Te  Te146  1  0.92713865  0.23399756  0.74980544  1
  Te  Te147  1  0.91747506  0.58409586  0.05903090  1
  Te  Te148  1  0.91951887  0.60767225  0.42499707  1
  Te  Te149  1  0.90879808  0.58578804  0.72675893  1
  Te  Te150  1  0.93048281  0.90402295  0.06857408  1
  Te  Te151  1  0.92265040  0.89487433  0.40398701  1
  Te  Te152  1  0.90659664  0.92680472  0.77408539  1
  Te  Te153  1  0.22046987  0.03098921  0.33746567  1
  Te  Te154  1  0.26432430  0.07833976  0.57874164  1
  Te  Te155  1  0.23990015  0.08451583  0.90594094  1
  Te  Te156  1  0.25882157  0.42226230  0.29213504  1
  Te  Te157  1  0.24410553  0.42216065  0.58257449  1
  Te  Te158  1  0.26699204  0.42394602  0.91805596  1
  Te  Te159  1  0.23378666  0.77262738  0.29624683  1
  Te  Te160  1  0.21827976  0.75915999  0.54044959  1
  Te  Te161  1  0.24114087  0.72655466  0.90314327  1
  Te  Te162  1  0.59149071  0.05427722  0.26362413  1
  Te  Te163  1  0.58965076  0.08157507  0.58284085  1
  Te  Te164  1  0.54462389  0.09580953  0.94423609  1
  Te  Te165  1  0.54221549  0.43899036  0.27836623  1
  Te  Te166  1  0.55549450  0.42452164  0.54119770  1
  Te  Te167  1  0.61226372  0.41198414  0.92133496  1
  Te  Te168  1  0.56555596  0.72170514  0.28855653  1
  Te  Te169  1  0.62354215  0.73880811  0.58612311  1
  Te  Te170  1  0.58518400  0.74533826  0.91804739  1
  Te  Te171  1  0.91218051  0.07285574  0.23485319  1
  Te  Te172  1  0.90677473  0.07563052  0.58342668  1
  Te  Te173  1  0.92877009  0.04267555  0.87872969  1
  Te  Te174  1  0.91354590  0.44364649  0.25382323  1
  Te  Te175  1  0.91548462  0.42486876  0.58980197  1
  Te  Te176  1  0.92341977  0.39624880  0.91533062  1
  Te  Te177  1  0.92135316  0.73760577  0.23987406  1
  Te  Te178  1  0.91115606  0.75577154  0.56620190  1
  Te  Te179  1  0.91550345  0.76699730  0.87334394  1
