# generated using pymatgen
data_In2Te3
_symmetry_space_group_name_H-M   'P 1'
_cell_length_a   18.97748990
_cell_length_b   18.95416480
_cell_length_c   18.99009990
_cell_angle_alpha   89.81232987
_cell_angle_beta   90.23515440
_cell_angle_gamma   90.08042867
_symmetry_Int_Tables_number   1
_chemical_formula_structural   In2Te3
_chemical_formula_sum   'In72 Te108'
_cell_volume   6830.68508683
_cell_formula_units_Z   36
loop_
 _symmetry_equiv_pos_site_id
 _symmetry_equiv_pos_as_xyz
  1  'x, y, z'
loop_
 _atom_site_type_symbol
 _atom_site_label
 _atom_site_symmetry_multiplicity
 _atom_site_fract_x
 _atom_site_fract_y
 _atom_site_fract_z
 _atom_site_occupancy
  In  In0  1  0.67214686  0.12356906  0.21228246  1
  In  In1  1  0.02152764  0.60078201  0.85372623  1
  In  In2  1  0.48551984  0.31467088  0.16341671  1
  In  In3  1  0.66799255  0.33605005  0.32760242  1
  In  In4  1  0.32711226  0.15616672  0.49337713  1
  In  In5  1  0.67629257  0.51790107  0.85856573  1
  In  In6  1  0.33425507  0.12760191  0.15724079  1
  In  In7  1  0.48628965  0.85295097  0.63684786  1
  In  In8  1  0.16139207  0.16115846  -0.00492674  1
  In  In9  1  0.17639135  0.15798628  0.67027316  1
  In  In10  1  0.33418907  0.65863510  0.67078593  1
  In  In11  1  0.51784162  0.50967652  0.00532419  1
  In  In12  1  0.32339273  0.32608294  -0.01331818  1
  In  In13  1  0.51812801  0.71064102  0.86745630  1
  In  In14  1  0.51454929  0.52628262  0.64422053  1
  In  In15  1  0.16855301  0.49136874  0.34023665  1
  In  In16  1  0.66669183  0.36790268  0.66224399  1
  In  In17  1  0.00261922  -0.01048008  -0.01368353  1
  In  In18  1  -0.00889065  0.17432687  0.83658523  1
  In  In19  1  0.67260956  0.54141381  0.17479877  1
  In  In20  1  0.33742289  -0.01871903  0.32433770  1
  In  In21  1  0.19627548  0.67680045  0.49346334  1
  In  In22  1  0.63713012  0.15123299  0.82983172  1
  In  In23  1  0.15392428  0.53312818  0.68974629  1
  In  In24  1  0.00837808  0.51412851  0.50049582  1
  In  In25  1  0.15530717  0.82375345  0.70048620  1
  In  In26  1  0.31925039  0.85212167  0.15864343  1
  In  In27  1  0.47367168  0.50239216  0.30776135  1
  In  In28  1  -0.00152920  0.17801561  0.17348284  1
  In  In29  1  0.49984064  0.13763095  0.30753213  1
  In  In30  1  0.80115984  0.31768206  0.83684705  1
  In  In31  1  0.04483171  0.40855168  -0.02452453  1
  In  In32  1  0.82999636  0.15865875  0.03764415  1
  In  In33  1  0.02540582  0.36610210  0.66586899  1
  In  In34  1  0.46993617  0.10943627  0.64044931  1
  In  In35  1  0.85424426  0.53386247  -0.03555605  1
  In  In36  1  -0.01262037  0.31698524  0.32634591  1
  In  In37  1  0.82552990  0.69490020  0.52480149  1
  In  In38  1  0.16215021  0.82805534  -0.00981566  1
  In  In39  1  0.31267857  0.31371919  0.64663864  1
  In  In40  1  -0.00277679  0.49669004  0.15943509  1
  In  In41  1  0.18883244  0.82787045  0.30986093  1
  In  In42  1  -0.00647596  0.66062875  0.32755657  1
  In  In43  1  0.82222447  0.36813195  0.17334781  1
  In  In44  1  0.50095900  0.12144536  0.02184452  1
  In  In45  1  0.00537565  0.01846238  0.67491343  1
  In  In46  1  0.35815815  0.50257235  0.84228568  1
  In  In47  1  0.46211842  0.31807391  0.80857947  1
  In  In48  1  0.01937836  0.00054614  0.33673537  1
  In  In49  1  0.31797451  0.82454165  0.83911688  1
  In  In50  1  0.81363129  0.17255346  0.65980306  1
  In  In51  1  0.51183975  0.71615362  0.13279860  1
  In  In52  1  0.85020538  0.34832400  0.49649510  1
  In  In53  1  0.33555896  0.49078200  0.48290616  1
  In  In54  1  0.68334861  -0.00855018  0.66693517  1
  In  In55  1  0.86459691  -0.02608710  0.15280538  1
  In  In56  1  0.00130817  0.80344571  0.17389383  1
  In  In57  1  0.01304834  0.82032897  0.53042063  1
  In  In58  1  0.66465116  0.52738395  0.48833197  1
  In  In59  1  0.17898527  0.31295126  0.51941993  1
  In  In60  1  0.68304860  0.83271048  0.16178054  1
  In  In61  1  0.64356133  0.33997020  0.01799133  1
  In  In62  1  0.85555523  0.81767397  0.34925124  1
  In  In63  1  0.49762831  0.70714859  0.44609502  1
  In  In64  1  0.30825716  0.16200535  0.85347912  1
  In  In65  1  0.83518148  -0.14088270  0.84973764  1
  In  In66  1  0.30277673  0.52521777  0.15743668  1
  In  In67  1  0.66402573  0.69175452  0.67908649  1
  In  In68  1  0.65513559  0.11988251  0.43661079  1
  In  In69  1  0.67571715  0.90256298  0.45545585  1
  In  In70  1  0.48637207  -0.03170492  0.85111670  1
  In  In71  1  -0.01198246  0.14763091  0.48512933  1
  Te  Te72  1  0.07307206  0.07869995  0.08611699  1
  Te  Te73  1  0.10218347  0.07845428  0.42952658  1
  Te  Te74  1  0.09771489  0.08520903  0.77736114  1
  Te  Te75  1  0.09430379  0.39783027  0.11101135  1
  Te  Te76  1  0.07632941  0.39804067  0.43222403  1
  Te  Te77  1  0.06063468  0.45605107  0.77789833  1
  Te  Te78  1  0.09856750  0.73129544  0.08830547  1
  Te  Te79  1  0.08606653  0.75077272  0.40791528  1
  Te  Te80  1  0.06855667  0.72289333  0.76890713  1
  Te  Te81  1  0.44268536  0.03338163  0.12278601  1
  Te  Te82  1  0.42341998  0.06717364  0.41697046  1
  Te  Te83  1  0.41833626  0.08706458  0.78116838  1
  Te  Te84  1  0.41785448  0.41519236  0.07128485  1
  Te  Te85  1  0.41959726  0.40474443  0.40212056  1
  Te  Te86  1  0.41088202  0.43285804  0.71577933  1
  Te  Te87  1  0.39308885  0.77062491  0.05622522  1
  Te  Te88  1  0.38385917  0.79872218  0.42027400  1
  Te  Te89  1  0.43177986  0.75036826  0.74470423  1
  Te  Te90  1  0.74175711  0.05230678  0.09760466  1
  Te  Te91  1  0.75566401  0.02080667  0.40609354  1
  Te  Te92  1  0.75624093  0.08172645  0.76696455  1
  Te  Te93  1  0.74504587  0.44122412  0.06452524  1
  Te  Te94  1  0.75280798  0.43038565  0.41069603  1
  Te  Te95  1  0.75957154  0.44102878  0.75736374  1
  Te  Te96  1  0.77951438  0.77706255  0.06488722  1
  Te  Te97  1  0.73659907  0.76006158  0.42206092  1
  Te  Te98  1  0.74010656  0.79020489  0.75738071  1
  Te  Te99  1  0.09428344  0.24119545  0.26452589  1
  Te  Te100  1  0.06244165  0.23668066  0.59531603  1
  Te  Te101  1  0.07544535  0.26452278  0.92399072  1
  Te  Te102  1  0.09244521  0.58307080  0.24612098  1
  Te  Te103  1  0.08683408  0.61456432  0.58127419  1
  Te  Te104  1  0.08291973  0.59092721  0.99239656  1
  Te  Te105  1  0.08715983  0.91281369  0.23381023  1
  Te  Te106  1  0.09658302  0.92655386  0.59746501  1
  Te  Te107  1  0.07537607  0.90361483  0.89140070  1
  Te  Te108  1  0.39754804  0.23564729  0.25310692  1
  Te  Te109  1  0.42460199  0.24564318  0.57933807  1
  Te  Te110  1  0.43673446  0.23140572  0.93679541  1
  Te  Te111  1  0.42629418  0.59869542  0.20248375  1
  Te  Te112  1  0.42150550  0.60538901  0.55341245  1
  Te  Te113  1  0.42619439  0.60544692  0.93105240  1
  Te  Te114  1  0.42677535  0.85807856  0.28474109  1
  Te  Te115  1  0.41719934  0.97598830  0.59436301  1
  Te  Te116  1  0.40192963  0.89035625  0.94491951  1
  Te  Te117  1  0.75659795  0.24739167  0.24368686  1
  Te  Te118  1  0.74112887  0.27131402  0.57072088  1
  Te  Te119  1  0.72645119  0.23199141  0.93821090  1
  Te  Te120  1  0.78326987  0.59509463  0.24845873  1
  Te  Te121  1  0.74443193  0.58910916  0.60118217  1
  Te  Te122  1  0.76035273  0.62890579  0.90258103  1
  Te  Te123  1  0.77622393  0.91034005  0.25784763  1
  Te  Te124  1  0.75680242  0.90168769  0.57902613  1
  Te  Te125  1  0.74260027  0.88358267  0.96676132  1
  Te  Te126  1  0.25250716  0.24138337  0.08678877  1
  Te  Te127  1  0.24997010  0.24993839  0.41117894  1
  Te  Te128  1  0.23374196  0.26411109  0.76406582  1
  Te  Te129  1  0.22272810  0.53546836  0.03414042  1
  Te  Te130  1  0.27130073  0.59511715  0.39232068  1
  Te  Te131  1  0.25160057  0.60121538  0.78388769  1
  Te  Te132  1  0.23509524  0.93402772  0.06670518  1
  Te  Te133  1  0.25367920  0.90207307  0.42114199  1
  Te  Te134  1  0.24879221  0.92243079  0.75583295  1
  Te  Te135  1  0.59188135  0.22054180  0.10938147  1
  Te  Te136  1  0.57447847  0.24098398  0.39854141  1
  Te  Te137  1  0.58616523  0.26084765  0.73869870  1
  Te  Te138  1  0.61006341  0.61475858  0.06006308  1
  Te  Te139  1  0.57331874  0.59052201  0.38471579  1
  Te  Te140  1  0.57440016  0.59292339  0.76624959  1
  Te  Te141  1  0.55663163  0.85885329  0.08026361  1
  Te  Te142  1  0.55208517  0.90888111  0.37042645  1
  Te  Te143  1  0.57756630  0.91314680  0.74314660  1
  Te  Te144  1  0.91099193  0.27303740  0.09199978  1
  Te  Te145  1  0.88954365  0.23233660  0.40709755  1
  Te  Te146  1  0.90883359  0.26301377  0.73996277  1
  Te  Te147  1  0.93228344  0.59943861  0.07126638  1
  Te  Te148  1  0.90380941  0.59871485  0.43230587  1
  Te  Te149  1  0.92054190  0.63608949  0.74774836  1
  Te  Te150  1  0.92910928  0.87432251  0.05723199  1
  Te  Te151  1  0.93974610  0.91088075  0.43240373  1
  Te  Te152  1  0.95155936  0.92124721  0.77845709  1
  Te  Te153  1  0.24305310  0.06651750  0.25248710  1
  Te  Te154  1  0.26688236  0.06942112  0.59890242  1
  Te  Te155  1  0.26298799  0.06150138  0.95162276  1
  Te  Te156  1  0.26095757  0.42162004  0.25181734  1
  Te  Te157  1  0.23248225  0.44319659  0.59037582  1
  Te  Te158  1  0.24707021  0.42633611  0.90737491  1
  Te  Te159  1  0.24893925  0.73500704  0.21475190  1
  Te  Te160  1  0.25826829  0.76679488  0.59788925  1
  Te  Te161  1  0.23676061  0.72635872  0.91158102  1
  Te  Te162  1  0.57683770  0.01624452  0.25847377  1
  Te  Te163  1  0.60669524  0.08770078  0.57641475  1
  Te  Te164  1  0.59459398  0.04589839  0.93030655  1
  Te  Te165  1  0.58577240  0.41729553  0.22691005  1
  Te  Te166  1  0.57468188  0.42221211  0.55342177  1
  Te  Te167  1  0.57243250  0.40698381  0.89971372  1
  Te  Te168  1  0.60395404  0.74064390  0.24610910  1
  Te  Te169  1  0.57620620  0.75283842  0.56805389  1
  Te  Te170  1  0.60470389  0.80437674  0.94380823  1
  Te  Te171  1  0.91766983  0.07670580  0.25197474  1
  Te  Te172  1  0.89725633  0.07353826  0.58254918  1
  Te  Te173  1  0.90296645  0.08785178  0.92536149  1
  Te  Te174  1  0.91332793  0.43763100  0.27264488  1
  Te  Te175  1  0.91402625  0.44286402  0.59760980  1
  Te  Te176  1  0.90385349  0.39920046  0.91959172  1
  Te  Te177  1  0.88079499  0.71633088  0.23302138  1
  Te  Te178  1  0.91489033  0.76050732  0.62273379  1
  Te  Te179  1  0.92333394  0.72391134  0.87047276  1
