# generated using pymatgen
data_In2Te3
_symmetry_space_group_name_H-M   'P 1'
_cell_length_a   18.89140871
_cell_length_b   18.90122426
_cell_length_c   18.89968422
_cell_angle_alpha   90.07858272
_cell_angle_beta   89.90479969
_cell_angle_gamma   90.00972523
_symmetry_Int_Tables_number   1
_chemical_formula_structural   In2Te3
_chemical_formula_sum   'In72 Te108'
_cell_volume   6748.50871443
_cell_formula_units_Z   36
loop_
 _symmetry_equiv_pos_site_id
 _symmetry_equiv_pos_as_xyz
  1  'x, y, z'
loop_
 _atom_site_type_symbol
 _atom_site_label
 _atom_site_symmetry_multiplicity
 _atom_site_fract_x
 _atom_site_fract_y
 _atom_site_fract_z
 _atom_site_occupancy
  In  In0  1  0.31234575  0.37005602  0.30515741  1
  In  In1  1  0.83865460  0.36345707  0.83267308  1
  In  In2  1  0.49266057  0.81273184  0.32210949  1
  In  In3  1  0.67694576  -0.00207074  0.31370057  1
  In  In4  1  0.84856275  0.51316028  0.65735844  1
  In  In5  1  0.48331142  -0.02721910  0.50723721  1
  In  In6  1  0.15938195  -0.00032055  0.49435509  1
  In  In7  1  0.66678442  0.33315117  0.66172308  1
  In  In8  1  -0.00304678  0.49568066  0.50008013  1
  In  In9  1  0.14906097  0.33319180  0.48773196  1
  In  In10  1  -0.01600628  0.15401357  0.82287780  1
  In  In11  1  0.49774385  0.83397837  0.00830031  1
  In  In12  1  0.82358104  0.17920652  0.32806540  1
  In  In13  1  0.64582164  0.14442828  0.47874845  1
  In  In14  1  0.17962556  0.33571575  0.86248275  1
  In  In15  1  0.83195576  0.16084402  0.01407718  1
  In  In16  1  0.51944277  0.64667797  0.53140299  1
  In  In17  1  0.69714635  0.49879870  0.50048861  1
  In  In18  1  0.01558933  0.64188516  0.00520391  1
  In  In19  1  0.00166365  0.00562352  0.68781151  1
  In  In20  1  0.01680569  0.35985589  0.31597031  1
  In  In21  1  0.17162794  0.81017260  0.67224075  1
  In  In22  1  0.32452601  -0.00380786  0.68029574  1
  In  In23  1  0.66583337  0.83977803  0.82715766  1
  In  In24  1  0.83323679  0.48201573  0.32404539  1
  In  In25  1  0.84403845  0.64400283  0.83374601  1
  In  In26  1  0.17039709  0.51980286  0.67156003  1
  In  In27  1  0.01580623  0.65921656  0.34110648  1
  In  In28  1  0.64681633  0.65065715  0.69514836  1
  In  In29  1  0.50252289  0.49745126  -0.00752284  1
  In  In30  1  0.31840666  0.02671745  0.31791709  1
  In  In31  1  0.68100228  0.82769294  0.50802139  1
  In  In32  1  0.19755207  0.14490728  0.28719704  1
  In  In33  1  0.65602244  0.49195212  0.15664380  1
  In  In34  1  0.00301816  0.17084960  0.17635349  1
  In  In35  1  0.47164186  0.36069259  0.83193726  1
  In  In36  1  0.32187182  0.18480474  0.85581897  1
  In  In37  1  0.83062006  0.52201844  0.00685630  1
  In  In38  1  0.50883729  -0.00274106  0.85379532  1
  In  In39  1  0.48517898  0.00485637  0.13776759  1
  In  In40  1  0.16806543  0.17811092  0.70913389  1
  In  In41  1  0.46853351  0.19184143  0.31359349  1
  In  In42  1  0.31104244  0.51774592  0.48547770  1
  In  In43  1  0.64744495  0.15364851  0.85598776  1
  In  In44  1  0.33483378  0.34753864  0.01376396  1
  In  In45  1  0.65367051  0.31147862  0.00432476  1
  In  In46  1  0.65882816  0.66988613  0.32492763  1
  In  In47  1  0.33635718  0.19330607  0.50748631  1
  In  In48  1  0.83633426  0.83159165  0.01384905  1
  In  In49  1  0.17601869  0.65778341  0.16162561  1
  In  In50  1  0.31226979  0.84869426  0.13930682  1
  In  In51  1  0.01783463  0.36321770  0.64622716  1
  In  In52  1  0.66792410  0.67841611  0.00374220  1
  In  In53  1  0.32499578  0.80779956  0.50919498  1
  In  In54  1  0.48124319  0.50696954  0.30752325  1
  In  In55  1  0.50285499  0.16068671  0.65045178  1
  In  In56  1  0.33145156  0.66345781  0.00358285  1
  In  In57  1  0.81264598  0.17151966  0.67823090  1
  In  In58  1  0.02178687  0.36081310  0.02751077  1
  In  In59  1  0.01276996  0.83679903  0.16001481  1
  In  In60  1  0.52522559  0.34018945  0.49397038  1
  In  In61  1  0.16313332  0.16119726  0.00361719  1
  In  In62  1  -0.01712421  0.15420488  0.49025183  1
  In  In63  1  0.83811832  0.83991037  0.33644834  1
  In  In64  1  0.14750339  0.82290761  0.32929338  1
  In  In65  1  0.67257584  0.17221020  0.17410786  1
  In  In66  1  0.02850657  0.85649431  0.87099330  1
  In  In67  1  0.86567193  0.80095262  0.63525904  1
  In  In68  1  0.16678591  0.66057327  0.84698039  1
  In  In69  1  -0.00631776  -0.01652674  0.32117746  1
  In  In70  1  0.35837521  0.79903223  0.81908562  1
  In  In71  1  0.82819276  -0.00318215  0.84655581  1
  Te  Te72  1  0.07438967  0.07584427  0.08735406  1
  Te  Te73  1  0.09158422  0.09660511  0.39896821  1
  Te  Te74  1  0.10387396  0.06452985  0.78438668  1
  Te  Te75  1  0.10868358  0.44578771  0.11204388  1
  Te  Te76  1  0.10483014  0.45019195  0.40185770  1
  Te  Te77  1  0.09509240  0.41936783  0.76032494  1
  Te  Te78  1  0.10034144  0.75155623  0.06898736  1
  Te  Te79  1  0.07275315  0.75858551  0.43778592  1
  Te  Te80  1  0.07003892  0.75054028  0.76970457  1
  Te  Te81  1  0.39455859  0.10129082  0.07843913  1
  Te  Te82  1  0.41864141  0.08955278  0.42961843  1
  Te  Te83  1  0.41278052  0.09562032  0.75474514  1
  Te  Te84  1  0.43814225  0.41553419  0.09909162  1
  Te  Te85  1  0.41252553  0.41007280  0.41791310  1
  Te  Te86  1  0.44187609  0.46022817  0.73035130  1
  Te  Te87  1  0.41619080  0.74409549  0.10082178  1
  Te  Te88  1  0.43246348  0.73034571  0.43315985  1
  Te  Te89  1  0.41427811  0.69406496  0.72994626  1
  Te  Te90  1  0.74415082  0.07393146  0.09165952  1
  Te  Te91  1  0.76266393  0.06950212  0.41704628  1
  Te  Te92  1  0.73047019  0.07102522  0.75701753  1
  Te  Te93  1  0.75019512  0.40761643  0.07114511  1
  Te  Te94  1  0.73902446  0.39872624  0.40278575  1
  Te  Te95  1  0.74277784  0.43730134  0.74260281  1
  Te  Te96  1  0.76464960  0.73415792  0.09808564  1
  Te  Te97  1  0.75924521  0.73543644  0.41737450  1
  Te  Te98  1  0.76212203  0.74508010  0.75176442  1
  Te  Te99  1  0.10633204  0.26102107  0.24149543  1
  Te  Te100  1  0.08364165  0.22869010  0.58943047  1
  Te  Te101  1  0.05861128  0.25365637  0.91258549  1
  Te  Te102  1  0.06622287  0.57772277  0.22495767  1
  Te  Te103  1  0.06578784  0.59451829  0.59085392  1
  Te  Te104  1  0.10930278  0.55445409  0.93275331  1
  Te  Te105  1  0.10975825  0.93476215  0.23780000  1
  Te  Te106  1  0.08693911  0.91714101  0.59691373  1
  Te  Te107  1  0.09904834  0.92793963  0.97805583  1
  Te  Te108  1  0.37291590  0.25934264  0.22659703  1
  Te  Te109  1  0.42555708  0.27899104  0.59449728  1
  Te  Te110  1  0.43290116  0.25330313  0.93044222  1
  Te  Te111  1  0.36477840  0.58529835  0.26477031  1
  Te  Te112  1  0.39892100  0.57962588  0.58933216  1
  Te  Te113  1  0.41667363  0.58587780  0.90943400  1
  Te  Te114  1  0.40659691  0.91662206  0.25285875  1
  Te  Te115  1  0.40773925  0.89009890  0.60930131  1
  Te  Te116  1  0.40345758  0.91095734  0.91841074  1
  Te  Te117  1  0.75651607  0.27377868  0.23923865  1
  Te  Te118  1  0.73550640  0.23794546  0.56538837  1
  Te  Te119  1  0.76752184  0.24545589  0.89817697  1
  Te  Te120  1  0.74729273  0.57918505  0.24090116  1
  Te  Te121  1  0.75140931  0.60808411  0.58970967  1
  Te  Te122  1  0.72961443  0.57664618  0.90670390  1
  Te  Te123  1  0.75075315  0.90057931  0.23418673  1
  Te  Te124  1  0.77294849  0.90482766  0.59281138  1
  Te  Te125  1  0.73506056  0.91834642  0.93668398  1
  Te  Te126  1  0.22055862  0.27613543  0.07623188  1
  Te  Te127  1  0.24855352  0.25504452  0.40098334  1
  Te  Te128  1  0.27118201  0.27945221  0.74740878  1
  Te  Te129  1  0.26928615  0.55920736  0.09360850  1
  Te  Te130  1  0.25750191  0.59042444  0.37052048  1
  Te  Te131  1  0.26550063  0.60144324  0.75127902  1
  Te  Te132  1  0.23484577  0.94057496  0.05411908  1
  Te  Te133  1  0.26066384  0.91528119  0.41866444  1
  Te  Te134  1  0.24755552  0.90125637  0.76725640  1
  Te  Te135  1  0.56685999  0.23983018  0.09645995  1
  Te  Te136  1  0.58852400  0.25163741  0.38790883  1
  Te  Te137  1  0.57938005  0.24826150  0.75319532  1
  Te  Te138  1  0.57014663  0.59668605  0.08849509  1
  Te  Te139  1  0.58221709  0.56541035  0.40911818  1
  Te  Te140  1  0.52708385  0.58631402  0.76459070  1
  Te  Te141  1  0.58714507  0.90622735  0.10022449  1
  Te  Te142  1  0.58429193  0.90753456  0.41161935  1
  Te  Te143  1  0.57016620  0.91740959  0.74748548  1
  Te  Te144  1  0.92032817  0.26180997  0.08659932  1
  Te  Te145  1  0.92954499  0.26239010  0.40180729  1
  Te  Te146  1  0.92040208  0.26741129  0.73426995  1
  Te  Te147  1  0.92166977  0.58529155  0.10396146  1
  Te  Te148  1  0.90579210  0.58085893  0.41510448  1
  Te  Te149  1  0.94217207  0.56688130  0.75662932  1
  Te  Te150  1  0.91868911  0.92588239  0.09135251  1
  Te  Te151  1  0.92600169  0.91407567  0.42966973  1
  Te  Te152  1  0.91729105  0.90413852  0.76398380  1
  Te  Te153  1  0.28279039  0.07711769  0.17567629  1
  Te  Te154  1  0.24995669  0.09214637  0.58581279  1
  Te  Te155  1  0.25873875  0.07406472  0.92894583  1
  Te  Te156  1  0.23177220  0.45000303  0.20660528  1
  Te  Te157  1  0.23782295  0.41635136  0.57836867  1
  Te  Te158  1  0.27311304  0.43638008  0.91268241  1
  Te  Te159  1  0.25598678  0.75489156  0.25020527  1
  Te  Te160  1  0.23198530  0.71612047  0.57572597  1
  Te  Te161  1  0.25149944  0.76280095  0.92172326  1
  Te  Te162  1  0.55940864  0.07775913  0.25935045  1
  Te  Te163  1  0.58794688  0.05277654  0.58578281  1
  Te  Te164  1  0.58047768  0.07256269  0.95742526  1
  Te  Te165  1  0.55432687  0.40659544  0.22602228  1
  Te  Te166  1  0.58665204  0.44072740  0.59019086  1
  Te  Te167  1  0.59565950  0.41054700  0.90548800  1
  Te  Te168  1  0.58402934  0.75000115  0.22690895  1
  Te  Te169  1  0.58597484  0.76046944  0.60661096  1
  Te  Te170  1  0.57370453  0.74891841  0.90674614  1
  Te  Te171  1  0.90327881  0.07800535  0.24498057  1
  Te  Te172  1  0.90477509  0.07900053  0.59655135  1
  Te  Te173  1  0.92720736  0.06921075  0.93530322  1
  Te  Te174  1  0.92105069  0.41937817  0.22284316  1
  Te  Te175  1  0.89648170  0.40050565  0.56391103  1
  Te  Te176  1  0.93018589  0.43574101  0.92712584  1
  Te  Te177  1  0.92943539  0.74999390  0.25229232  1
  Te  Te178  1  0.96201160  0.71197958  0.57346730  1
  Te  Te179  1  0.92234879  0.74446457  0.92009685  1
