# generated using pymatgen
data_In2Te3
_symmetry_space_group_name_H-M   'P 1'
_cell_length_a   18.95418790
_cell_length_b   18.94934868
_cell_length_c   18.93494535
_cell_angle_alpha   89.85989729
_cell_angle_beta   89.96538602
_cell_angle_gamma   90.14130014
_symmetry_Int_Tables_number   1
_chemical_formula_structural   In2Te3
_chemical_formula_sum   'In72 Te108'
_cell_volume   6800.81286960
_cell_formula_units_Z   36
loop_
 _symmetry_equiv_pos_site_id
 _symmetry_equiv_pos_as_xyz
  1  'x, y, z'
loop_
 _atom_site_type_symbol
 _atom_site_label
 _atom_site_symmetry_multiplicity
 _atom_site_fract_x
 _atom_site_fract_y
 _atom_site_fract_z
 _atom_site_occupancy
  In  In0  1  0.62929177  0.00622443  0.65957428  1
  In  In1  1  0.44948951  0.47436987  0.69435983  1
  In  In2  1  0.83286167  0.83136250  0.68259707  1
  In  In3  1  0.64214097  0.82837853  0.47743769  1
  In  In4  1  0.83256190  -0.00181747  0.85422532  1
  In  In5  1  0.70278311  0.67597180  -0.00877083  1
  In  In6  1  0.17750030  0.31478926  0.86062114  1
  In  In7  1  0.33062462  0.65468097  0.63674590  1
  In  In8  1  0.00202317  -0.00781514  -0.02021160  1
  In  In9  1  0.03439637  0.82778071  0.51077244  1
  In  In10  1  0.15879274  0.15304986  0.01175394  1
  In  In11  1  0.82247257  0.50088179  0.00462809  1
  In  In12  1  0.00033156  0.35186094  0.34288152  1
  In  In13  1  0.35846069  0.65264330  0.00238659  1
  In  In14  1  0.48498486  0.33135434  0.47555884  1
  In  In15  1  0.17796567  0.81501623  0.35221045  1
  In  In16  1  0.65699871  0.32191511  0.67726647  1
  In  In17  1  0.49110420  0.17941268  0.65053776  1
  In  In18  1  0.66503191  0.48757972  0.16328997  1
  In  In19  1  0.00962829  0.67744400  0.68267001  1
  In  In20  1  -0.01455698  0.33702977  0.02069457  1
  In  In21  1  0.16930019  0.66689425  0.82913659  1
  In  In22  1  0.03347691  0.51829306  0.84003717  1
  In  In23  1  0.81621832  0.02376035  0.16948877  1
  In  In24  1  0.34062495  0.17177965  0.85166815  1
  In  In25  1  -0.01075205  0.17257677  0.16844885  1
  In  In26  1  0.85587634  0.82502470  -0.00807471  1
  In  In27  1  -0.00393276  0.00760815  0.69823296  1
  In  In28  1  0.67662183  0.49622279  0.52037861  1
  In  In29  1  0.48922471  0.81963211  0.64344327  1
  In  In30  1  -0.00453131  0.34514769  0.67572710  1
  In  In31  1  0.19645997  0.30495701  0.45681860  1
  In  In32  1  0.50740024  0.46168962  0.00677817  1
  In  In33  1  -0.01330723  0.17922498  0.50795267  1
  In  In34  1  0.32117333  0.82595310  0.81129937  1
  In  In35  1  0.65960891  0.84200310  0.14676473  1
  In  In36  1  0.48404707  0.84650322  0.02509074  1
  In  In37  1  0.80745889  -0.01272507  0.48249825  1
  In  In38  1  0.69107225  0.67221109  0.32372008  1
  In  In39  1  0.68634826  0.83525475  0.83781355  1
  In  In40  1  -0.00407428  0.80978726  0.16076423  1
  In  In41  1  0.49711685  0.01357821  0.84514468  1
  In  In42  1  0.32571840  0.86003379  0.50085542  1
  In  In43  1  0.62686910  0.19957319  0.14203728  1
  In  In44  1  0.33924941  0.16283175  0.14470881  1
  In  In45  1  0.01619523  0.00521691  0.32527151  1
  In  In46  1  0.19162855  0.36096810  0.20197000  1
  In  In47  1  0.81691501  0.16637383  0.65486087  1
  In  In48  1  0.45014550  0.15917528  0.32613875  1
  In  In49  1  0.21114629  0.00938916  0.17628345  1
  In  In50  1  0.49745479  0.49431630  0.34350122  1
  In  In51  1  0.17753357  -0.01443515  0.83522276  1
  In  In52  1  0.18885382  0.63400543  0.48841173  1
  In  In53  1  0.51196195  0.64646266  0.18573165  1
  In  In54  1  0.85171588  0.50273667  0.65775587  1
  In  In55  1  0.65340860  0.17851171  0.82503054  1
  In  In56  1  0.85330915  0.83092396  0.31803431  1
  In  In57  1  -0.01706255  0.49245221  0.51612540  1
  In  In58  1  0.16840578  0.01662320  0.50218079  1
  In  In59  1  0.17570846  0.15468061  0.66394557  1
  In  In60  1  0.00768689  0.51433584  0.15420195  1
  In  In61  1  0.17517441  0.52008516  -0.02125154  1
  In  In62  1  0.65331502  0.02772975  0.32992482  1
  In  In63  1  0.64271371  0.32301134  0.31069611  1
  In  In64  1  0.83515697  0.49016488  0.32754546  1
  In  In65  1  0.48424277  0.67247913  0.48952662  1
  In  In66  1  0.53562813  0.65300880  0.83477677  1
  In  In67  1  0.35217738  0.33676350  0.00530742  1
  In  In68  1  0.20283839  0.47647871  0.64167807  1
  In  In69  1  0.83624735  0.33068614  0.81565517  1
  In  In70  1  0.16142267  0.67025970  0.18251057  1
  In  In71  1  0.47874566  0.88110943  0.30948024  1
  Te  Te72  1  0.08049091  0.06324469  0.10740749  1
  Te  Te73  1  0.08388196  0.10765754  0.41467736  1
  Te  Te74  1  0.09013324  0.09684017  0.77526383  1
  Te  Te75  1  0.10329880  0.42096950  0.07260991  1
  Te  Te76  1  0.09388316  0.41673620  0.44199207  1
  Te  Te77  1  0.10884668  0.41249374  0.75565063  1
  Te  Te78  1  0.10957400  0.76480095  0.08104235  1
  Te  Te79  1  0.08157283  0.71668077  0.41897414  1
  Te  Te80  1  0.10163448  0.76866222  0.74955409  1
  Te  Te81  1  0.40846221  0.03956410  0.09544174  1
  Te  Te82  1  0.36744424  0.09249736  0.43087187  1
  Te  Te83  1  0.41145169  0.08750742  0.74561499  1
  Te  Te84  1  0.38667605  0.45096832  0.09226655  1
  Te  Te85  1  0.39332887  0.38988847  0.37213324  1
  Te  Te86  1  0.37910331  0.38844668  0.78883254  1
  Te  Te87  1  0.41644091  0.74177197  0.11145028  1
  Te  Te88  1  0.41481360  0.77826777  0.40810945  1
  Te  Te89  1  0.42232049  0.72540503  0.74510723  1
  Te  Te90  1  0.71822637  0.09409310  0.08755905  1
  Te  Te91  1  0.75468271  0.10055468  0.40794682  1
  Te  Te92  1  0.74542475  0.06251081  0.74416545  1
  Te  Te93  1  0.75332954  0.39910482  0.08625204  1
  Te  Te94  1  0.72644933  0.41489782  0.40223692  1
  Te  Te95  1  0.74724879  0.42653662  0.74053266  1
  Te  Te96  1  0.77130918  0.75277380  0.10207852  1
  Te  Te97  1  0.76501994  0.75822374  0.42375346  1
  Te  Te98  1  0.75370807  0.73348674  0.75888152  1
  Te  Te99  1  0.08225255  0.26587375  0.24814700  1
  Te  Te100  1  0.09341167  0.25954000  0.58865988  1
  Te  Te101  1  0.06579379  0.24103811  0.92925076  1
  Te  Te102  1  0.09879297  0.56011135  0.25946804  1
  Te  Te103  1  0.08701124  0.57159999  0.60134846  1
  Te  Te104  1  0.06495711  0.62883411  0.94246300  1
  Te  Te105  1  0.08923656  0.89495739  0.25523094  1
  Te  Te106  1  0.09194926  0.93286459  0.60394820  1
  Te  Te107  1  0.10273540  0.90038618  0.93051944  1
  Te  Te108  1  0.41427198  0.26084937  0.22430781  1
  Te  Te109  1  0.39680276  0.27016540  0.57994916  1
  Te  Te110  1  0.43587314  0.22497133  0.95369759  1
  Te  Te111  1  0.40878535  0.59739487  0.28146999  1
  Te  Te112  1  0.41825926  0.55784885  0.56334616  1
  Te  Te113  1  0.43807140  0.56520921  0.90983516  1
  Te  Te114  1  0.37667098  0.95585476  0.22984490  1
  Te  Te115  1  0.42189199  0.93397591  0.58341731  1
  Te  Te116  1  0.40833446  0.90841228  0.90849621  1
  Te  Te117  1  0.73850582  0.26218734  0.21724785  1
  Te  Te118  1  0.72147000  0.23949797  0.57269461  1
  Te  Te119  1  0.74659727  0.25862050  0.90595036  1
  Te  Te120  1  0.76470496  0.58362699  0.22821175  1
  Te  Te121  1  0.77340223  0.59276384  0.57159163  1
  Te  Te122  1  0.73302382  0.56271985  0.90542979  1
  Te  Te123  1  0.73920688  0.91544165  0.26319564  1
  Te  Te124  1  0.72975792  0.90672542  0.58750860  1
  Te  Te125  1  0.74260359  0.92004007  0.94842962  1
  Te  Te126  1  0.23355468  0.26600568  0.08010446  1
  Te  Te127  1  0.28896549  0.21667808  0.37731467  1
  Te  Te128  1  0.25970653  0.25184831  0.74899241  1
  Te  Te129  1  0.25695353  0.57982215  0.09011087  1
  Te  Te130  1  0.28428816  0.57154967  0.39689356  1
  Te  Te131  1  0.25701455  0.57573343  0.74337670  1
  Te  Te132  1  0.29634669  0.93056804  0.08747376  1
  Te  Te133  1  0.24963113  0.94226121  0.39779981  1
  Te  Te134  1  0.26540214  0.93272430  0.72961683  1
  Te  Te135  1  0.56119210  0.30132565  0.04289077  1
  Te  Te136  1  0.56762437  0.22972464  0.40276156  1
  Te  Te137  1  0.54579920  0.26533939  0.76356893  1
  Te  Te138  1  0.59359616  0.59169777  0.07065986  1
  Te  Te139  1  0.59811878  0.59058709  0.41322975  1
  Te  Te140  1  0.56777795  0.55283918  0.73245706  1
  Te  Te141  1  0.56045552  0.94313125  0.10720067  1
  Te  Te142  1  0.56217432  0.94332831  0.42172704  1
  Te  Te143  1  0.57390927  0.89875121  0.75574664  1
  Te  Te144  1  0.89434282  0.23757036  0.07796256  1
  Te  Te145  1  0.90837905  0.26156260  0.41626271  1
  Te  Te146  1  0.92347959  0.22848202  0.74371877  1
  Te  Te147  1  0.91943362  0.59610329  0.06577504  1
  Te  Te148  1  0.90759560  0.57596712  0.42278816  1
  Te  Te149  1  0.91985966  0.58703141  0.76455474  1
  Te  Te150  1  0.91272376  0.92921552  0.09859400  1
  Te  Te151  1  0.93759812  0.91379505  0.42606583  1
  Te  Te152  1  0.92473139  0.90159324  0.78077019  1
  Te  Te153  1  0.23494158  0.13283173  0.25245314  1
  Te  Te154  1  0.27399384  0.10405969  0.56374758  1
  Te  Te155  1  0.25817282  0.07296794  0.93276381  1
  Te  Te156  1  0.25275457  0.44739596  0.30697488  1
  Te  Te157  1  0.28005845  0.38592226  0.55397674  1
  Te  Te158  1  0.27459081  0.42841035  0.90025153  1
  Te  Te159  1  0.26462797  0.74244346  0.26018838  1
  Te  Te160  1  0.23916757  0.75379687  0.57045169  1
  Te  Te161  1  0.26270432  0.74168009  0.92443784  1
  Te  Te162  1  0.55906471  0.09840787  0.23783808  1
  Te  Te163  1  0.58831241  0.10870447  0.56378218  1
  Te  Te164  1  0.59267944  0.08827628  0.92477594  1
  Te  Te165  1  0.55190746  0.41146092  0.22827457  1
  Te  Te166  1  0.57013428  0.40570521  0.58051020  1
  Te  Te167  1  0.59457381  0.38011880  0.92239903  1
  Te  Te168  1  0.58201150  0.76560770  0.26228042  1
  Te  Te169  1  0.59252026  0.72837310  0.58189596  1
  Te  Te170  1  0.58017523  0.76070598  0.93619893  1
  Te  Te171  1  0.90607311  0.09406621  0.27125361  1
  Te  Te172  1  0.91057103  0.05784798  0.58231852  1
  Te  Te173  1  0.91125937  0.09471454  0.93048404  1
  Te  Te174  1  0.91999901  0.41304034  0.22869840  1
  Te  Te175  1  0.89242743  0.38333468  0.57230192  1
  Te  Te176  1  0.93232677  0.42164013  0.90351205  1
  Te  Te177  1  0.93404236  0.72411196  0.26267976  1
  Te  Te178  1  0.92278773  0.75557029  0.58524499  1
  Te  Te179  1  0.92951209  0.71403103  0.93534357  1
