# generated using pymatgen
data_In2Te3
_symmetry_space_group_name_H-M   'P 1'
_cell_length_a   18.95453344
_cell_length_b   18.96133155
_cell_length_c   18.96815893
_cell_angle_alpha   90.02914476
_cell_angle_beta   90.01404622
_cell_angle_gamma   90.07924056
_symmetry_Int_Tables_number   1
_chemical_formula_structural   In2Te3
_chemical_formula_sum   'In72 Te108'
_cell_volume   6817.20927472
_cell_formula_units_Z   36
loop_
 _symmetry_equiv_pos_site_id
 _symmetry_equiv_pos_as_xyz
  1  'x, y, z'
loop_
 _atom_site_type_symbol
 _atom_site_label
 _atom_site_symmetry_multiplicity
 _atom_site_fract_x
 _atom_site_fract_y
 _atom_site_fract_z
 _atom_site_occupancy
  In  In0  1  -0.00836719  0.48872553  0.48591851  1
  In  In1  1  0.50482263  0.36341277  0.19020839  1
  In  In2  1  0.53123711  0.33655443  0.81338328  1
  In  In3  1  0.66262505  0.32302505  0.00003827  1
  In  In4  1  0.15578196  -0.02310688  0.16580416  1
  In  In5  1  0.50259125  0.83503731  0.04264251  1
  In  In6  1  0.85014331  0.01364985  0.47559620  1
  In  In7  1  0.34362432  0.65037479  0.68697168  1
  In  In8  1  0.84316217  -0.01311138  0.13523385  1
  In  In9  1  0.67286626  0.49796140  0.82011834  1
  In  In10  1  -0.00435818  0.33359691  -0.00405492  1
  In  In11  1  0.68333714  0.17358429  0.48898853  1
  In  In12  1  0.67511334  0.85023281  0.83963926  1
  In  In13  1  0.33714469  0.16139604  0.51107740  1
  In  In14  1  0.48226554  0.14829341  0.66378060  1
  In  In15  1  0.85683188  0.50710783  -0.01020074  1
  In  In16  1  0.33141153  0.34677089  0.62533840  1
  In  In17  1  -0.02764295  0.83403375  0.49166304  1
  In  In18  1  0.16183931  0.51264051  0.33578478  1
  In  In19  1  0.32512985  0.50357551  0.83847838  1
  In  In20  1  0.15529387  0.16940056  0.66260185  1
  In  In21  1  0.80455199  0.65147211  0.48358843  1
  In  In22  1  0.51333238  -0.02308149  0.49406870  1
  In  In23  1  0.84189407  0.31224452  0.49380428  1
  In  In24  1  0.31232021  0.15916984  0.86159866  1
  In  In25  1  0.34702576  0.83182537  0.80794168  1
  In  In26  1  0.84428853  0.66751364  0.88462179  1
  In  In27  1  0.78575968  0.82820342  0.66424429  1
  In  In28  1  0.16399846  0.34012302  0.16242241  1
  In  In29  1  0.15553293  0.17422744  0.32576857  1
  In  In30  1  0.16836993  0.84493324  0.00689394  1
  In  In31  1  0.84627601  0.00359984  0.82127527  1
  In  In32  1  -0.01753515  -0.00994713  0.66471036  1
  In  In33  1  0.51754448  0.54377512  0.03496440  1
  In  In34  1  0.14346091  0.14468722  0.02803196  1
  In  In35  1  -0.01413094  0.17438386  0.80668187  1
  In  In36  1  0.00448909  0.69918552  0.29344609  1
  In  In37  1  0.33923950  0.71432164  0.32682991  1
  In  In38  1  0.15953415  0.65945521  0.83467977  1
  In  In39  1  0.82242707  0.50905574  0.64492531  1
  In  In40  1  0.16467917  0.82642360  0.68353211  1
  In  In41  1  0.83492876  0.33219220  0.18328358  1
  In  In42  1  0.51164638  -0.00412326  0.84644258  1
  In  In43  1  0.32968656  0.66485049  0.02024558  1
  In  In44  1  0.15517153  0.33085053  0.50268992  1
  In  In45  1  0.83663154  0.50447832  0.31246252  1
  In  In46  1  0.46962362  0.16333204  0.02459407  1
  In  In47  1  0.36408784  0.37101328  0.37619556  1
  In  In48  1  0.83107693  0.15748399  0.32319296  1
  In  In49  1  0.64768378  0.67588526  0.34106394  1
  In  In50  1  0.16813097  0.01639060  0.49203478  1
  In  In51  1  0.82309044  0.83403174  0.31048875  1
  In  In52  1  0.00069117  0.66927489  0.67605474  1
  In  In53  1  0.33951370  0.85034140  0.49614523  1
  In  In54  1  0.84244072  0.17275031  -0.03417851  1
  In  In55  1  0.01275155  0.48460739  0.82530589  1
  In  In56  1  0.50858729  0.48188444  0.64260090  1
  In  In57  1  0.00842081  0.68388223  0.03306493  1
  In  In58  1  0.18007015  0.33028913  0.82708330  1
  In  In59  1  0.65385646  -0.00738129  0.00407976  1
  In  In60  1  0.34049610  0.02312285  0.00679381  1
  In  In61  1  0.16849201  0.65343727  0.49836142  1
  In  In62  1  0.51754717  0.16154038  0.35403400  1
  In  In63  1  0.33043266  0.34631116  -0.00537737  1
  In  In64  1  0.33258556  -0.04149522  0.32060745  1
  In  In65  1  0.69443801  0.14182927  0.81730042  1
  In  In66  1  0.35910880  0.15795612  0.17060362  1
  In  In67  1  0.31851898  0.53311906  0.19093555  1
  In  In68  1  0.66495424  0.50096279  0.50238809  1
  In  In69  1  0.67643524  0.52907038  0.15790389  1
  In  In70  1  0.50516775  0.69230097  0.82241787  1
  In  In71  1  0.66518966  0.14659364  0.19032953  1
  Te  Te72  1  0.05600851  0.08101870  0.12886187  1
  Te  Te73  1  0.07443145  0.07618142  0.39890681  1
  Te  Te74  1  0.08106350  0.06951125  0.75072812  1
  Te  Te75  1  0.07708845  0.42272711  0.07852920  1
  Te  Te76  1  0.07538174  0.40230090  0.39401669  1
  Te  Te77  1  0.08087100  0.38945954  0.73807072  1
  Te  Te78  1  0.12922226  0.74395427  0.11291534  1
  Te  Te79  1  0.07684400  0.74505140  0.42190007  1
  Te  Te80  1  0.06344125  0.76201340  0.77896723  1
  Te  Te81  1  0.44828174  0.04446400  0.11608047  1
  Te  Te82  1  0.40309780  0.06577233  0.41357558  1
  Te  Te83  1  0.40506070  0.07573830  0.77346487  1
  Te  Te84  1  0.41705578  0.43222835  0.08452644  1
  Te  Te85  1  0.44948652  0.46274128  0.44836877  1
  Te  Te86  1  0.41144931  0.41262755  0.75248465  1
  Te  Te87  1  0.40785616  0.74605857  0.11515882  1
  Te  Te88  1  0.43033435  0.74787175  0.44219968  1
  Te  Te89  1  0.44072442  0.76750136  0.70796299  1
  Te  Te90  1  0.74481052  0.10489580  0.06810998  1
  Te  Te91  1  0.73278625  0.06576509  0.39382597  1
  Te  Te92  1  0.74259782  0.04089774  0.72343113  1
  Te  Te93  1  0.75398615  0.41748904  0.07691788  1
  Te  Te94  1  0.76711606  0.42491687  0.42010723  1
  Te  Te95  1  0.73955944  0.41015443  0.72263162  1
  Te  Te96  1  0.73819507  0.69398791  0.04247598  1
  Te  Te97  1  0.73810386  0.77080151  0.42188462  1
  Te  Te98  1  0.75181853  0.73373176  0.78424233  1
  Te  Te99  1  0.07319216  0.24637511  0.22823198  1
  Te  Te100  1  0.06574601  0.23508752  0.56875436  1
  Te  Te101  1  0.09100464  0.24172395  0.91474824  1
  Te  Te102  1  0.07710353  0.58332320  0.24083690  1
  Te  Te103  1  0.07385654  0.57244305  0.58548400  1
  Te  Te104  1  0.06503156  0.58544952  0.92466887  1
  Te  Te105  1  0.10604888  0.85515088  0.23689693  1
  Te  Te106  1  0.08107594  0.90301331  0.57766477  1
  Te  Te107  1  0.04070874  0.91310113  0.97708354  1
  Te  Te108  1  0.42300137  0.25815121  0.26574859  1
  Te  Te109  1  0.43899281  0.25962644  0.56625670  1
  Te  Te110  1  0.42434494  0.26127890  0.90814089  1
  Te  Te111  1  0.42251185  0.61892005  0.24532107  1
  Te  Te112  1  0.40320884  0.56536631  0.57993959  1
  Te  Te113  1  0.42289917  0.59484528  0.91017613  1
  Te  Te114  1  0.43937303  0.87347337  0.26279968  1
  Te  Te115  1  0.41019472  0.93561250  0.59121836  1
  Te  Te116  1  0.41789617  0.90903981  0.92926411  1
  Te  Te117  1  0.72895106  0.26160832  0.26433100  1
  Te  Te118  1  0.77675630  0.22304731  0.59697799  1
  Te  Te119  1  0.74954720  0.26601416  0.89057142  1
  Te  Te120  1  0.75857898  0.61725360  0.25219367  1
  Te  Te121  1  0.71718213  0.60890235  0.59860204  1
  Te  Te122  1  0.72140003  0.58597090  0.93931359  1
  Te  Te123  1  0.74344207  0.93004003  0.22904859  1
  Te  Te124  1  0.74983772  0.92894830  0.55403244  1
  Te  Te125  1  0.76803517  0.92673078  0.93100925  1
  Te  Te126  1  0.26140851  0.23768298  0.07616834  1
  Te  Te127  1  0.26006800  0.24908423  0.41561741  1
  Te  Te128  1  0.27202893  0.24781611  0.73721074  1
  Te  Te129  1  0.23448405  0.56945352  0.07738909  1
  Te  Te130  1  0.26856208  0.59479662  0.40224702  1
  Te  Te131  1  0.22789829  0.56458893  0.73956720  1
  Te  Te132  1  0.27360161  0.91626321  0.09103627  1
  Te  Te133  1  0.22506017  0.90122865  0.41133297  1
  Te  Te134  1  0.23894996  0.92061104  0.76744265  1
  Te  Te135  1  0.57404042  0.25233124  0.10170201  1
  Te  Te136  1  0.59354959  0.26711927  0.41880340  1
  Te  Te137  1  0.59396821  0.22654248  0.73424417  1
  Te  Te138  1  0.60276525  0.65016600  0.10447690  1
  Te  Te139  1  0.56689354  0.57633553  0.41878184  1
  Te  Te140  1  0.57117311  0.58133132  0.74367848  1
  Te  Te141  1  0.62335798  0.89230977  0.10907369  1
  Te  Te142  1  0.53786734  0.87240240  0.38842883  1
  Te  Te143  1  0.59046868  0.92605217  0.74084535  1
  Te  Te144  1  0.90887604  0.24443630  0.08223275  1
  Te  Te145  1  0.92289916  0.24956799  0.39029638  1
  Te  Te146  1  0.87201079  0.19884415  0.71965428  1
  Te  Te147  1  0.91123973  0.59107472  0.09584480  1
  Te  Te148  1  0.92451183  0.59977978  0.40653655  1
  Te  Te149  1  0.90593951  0.58001131  0.75684054  1
  Te  Te150  1  0.95457274  0.89038922  0.09844285  1
  Te  Te151  1  0.92785725  0.92223825  0.37921914  1
  Te  Te152  1  0.90557581  0.88721563  0.74459863  1
  Te  Te153  1  0.25517110  0.07641001  0.24716165  1
  Te  Te154  1  0.25626502  0.07145066  0.60165690  1
  Te  Te155  1  0.21697781  0.06008078  0.92543295  1
  Te  Te156  1  0.26618812  0.40577156  0.25901488  1
  Te  Te157  1  0.23951770  0.43679506  0.55893540  1
  Te  Te158  1  0.22574287  0.43352601  0.92918506  1
  Te  Te159  1  0.22495658  0.75616694  0.23818575  1
  Te  Te160  1  0.25138693  0.74002046  0.59376162  1
  Te  Te161  1  0.25747143  0.74886330  0.90802706  1
  Te  Te162  1  0.56521447  0.06254573  0.25651550  1
  Te  Te163  1  0.58508781  0.08591026  0.57179607  1
  Te  Te164  1  0.58026998  0.10746806  0.92311584  1
  Te  Te165  1  0.60008524  0.45038672  0.25699617  1
  Te  Te166  1  0.62350697  0.39783203  0.60191622  1
  Te  Te167  1  0.57462492  0.42638779  0.92944133  1
  Te  Te168  1  0.57342613  0.78217000  0.26609786  1
  Te  Te169  1  0.64415584  0.83429196  0.61621251  1
  Te  Te170  1  0.58027757  0.76804046  0.92714255  1
  Te  Te171  1  0.91375113  0.07510303  0.23088426  1
  Te  Te172  1  0.93416075  0.09084169  0.57062759  1
  Te  Te173  1  0.94318506  0.07308280  0.91800798  1
  Te  Te174  1  0.93249164  0.42894656  0.23271628  1
  Te  Te175  1  0.91959156  0.40639429  0.59021396  1
  Te  Te176  1  0.90577244  0.39951182  0.89208864  1
  Te  Te177  1  0.91015715  0.77276873  0.20400252  1
  Te  Te178  1  0.89994923  0.73392528  0.58137106  1
  Te  Te179  1  0.91502428  0.77376680  0.95926338  1
