# generated using pymatgen
data_In2Te3
_symmetry_space_group_name_H-M   'P 1'
_cell_length_a   18.96163673
_cell_length_b   18.96658991
_cell_length_c   18.92250938
_cell_angle_alpha   89.90748462
_cell_angle_beta   90.01944557
_cell_angle_gamma   89.74673725
_symmetry_Int_Tables_number   1
_chemical_formula_structural   In2Te3
_chemical_formula_sum   'In72 Te108'
_cell_volume   6805.16986796
_cell_formula_units_Z   36
loop_
 _symmetry_equiv_pos_site_id
 _symmetry_equiv_pos_as_xyz
  1  'x, y, z'
loop_
 _atom_site_type_symbol
 _atom_site_label
 _atom_site_symmetry_multiplicity
 _atom_site_fract_x
 _atom_site_fract_y
 _atom_site_fract_z
 _atom_site_occupancy
  In  In0  1  0.01154837  0.31901657  0.64974562  1
  In  In1  1  0.19123246  -0.00246758  0.82771184  1
  In  In2  1  0.16009294  0.13544441  -0.00362256  1
  In  In3  1  0.17244880  0.69333090  0.18328258  1
  In  In4  1  0.04033327  0.85721581  0.82311194  1
  In  In5  1  0.67090763  0.52628703  0.83818445  1
  In  In6  1  0.63422754  -0.04543589  0.33336790  1
  In  In7  1  0.21516750  0.69332683  0.83832191  1
  In  In8  1  0.66158385  0.33954219  0.62618216  1
  In  In9  1  0.79202652  0.46389281  0.35952912  1
  In  In10  1  0.34825947  0.30027824  0.63819748  1
  In  In11  1  0.17806648  0.13469470  0.32299495  1
  In  In12  1  0.83079031  0.84131786  0.67210153  1
  In  In13  1  0.80905126  0.64305470  0.16538411  1
  In  In14  1  0.15337574  0.47776009  0.65735851  1
  In  In15  1  0.50148470  0.67743078  0.51637279  1
  In  In16  1  -0.01226859  0.67033659  0.66850531  1
  In  In17  1  0.49220376  0.34644608  0.16774790  1
  In  In18  1  0.84600431  0.81179937  0.01997795  1
  In  In19  1  0.85833126  0.00349790  0.84353572  1
  In  In20  1  0.50256126  0.84081890  0.01122577  1
  In  In21  1  0.50748756  0.15159778  -0.00605600  1
  In  In22  1  -0.01540477  0.49659861  0.86545643  1
  In  In23  1  0.81408750  0.65399575  0.49784179  1
  In  In24  1  0.81639751  0.69094362  0.84076848  1
  In  In25  1  0.16559982  0.83419397  0.33963834  1
  In  In26  1  0.66494359  0.85055434  0.81495208  1
  In  In27  1  0.39528491  0.71215884  0.67355685  1
  In  In28  1  0.18284357  0.01241811  0.50394596  1
  In  In29  1  0.51613273  0.14856514  0.62973735  1
  In  In30  1  0.34004872  0.50311414  0.17632878  1
  In  In31  1  0.14239589  0.29421235  0.15275423  1
  In  In32  1  0.81175073  0.32490857  0.83524484  1
  In  In33  1  0.33767254  -0.01442110  -0.00131473  1
  In  In34  1  0.64699188  0.66109387  0.02753647  1
  In  In35  1  0.49887354  0.49895812  0.33331592  1
  In  In36  1  0.18638464  0.51723757  0.31433860  1
  In  In37  1  0.15223568  0.32828213  0.49002096  1
  In  In38  1  0.32990376  0.17078839  0.18357066  1
  In  In39  1  0.52230115  0.50072398  0.66975304  1
  In  In40  1  0.83271069  0.16496484  -0.00830373  1
  In  In41  1  0.64076297  0.70698706  0.31242790  1
  In  In42  1  0.39730638  -0.00574613  0.35004742  1
  In  In43  1  0.35599493  0.84072980  0.51891536  1
  In  In44  1  0.34186725  0.19547146  0.79129921  1
  In  In45  1  0.65790599  0.00779909  -0.01271752  1
  In  In46  1  0.79039706  0.34430681  0.18166092  1
  In  In47  1  0.15507504  0.50042922  0.01262392  1
  In  In48  1  0.65550745  0.17512965  0.83665342  1
  In  In49  1  0.31951443  0.68343013  0.34099103  1
  In  In50  1  -0.00535412  0.84326563  0.17828677  1
  In  In51  1  -0.01110850  0.31137145  -0.00230998  1
  In  In52  1  0.32500639  0.33389936  0.34223451  1
  In  In53  1  0.64014038  0.14068208  0.47956792  1
  In  In54  1  0.01304307  0.68208661  0.34216168  1
  In  In55  1  0.64836322  0.14638249  0.19379269  1
  In  In56  1  0.84764352  0.18253943  0.34440440  1
  In  In57  1  0.63835629  0.00450445  0.65448449  1
  In  In58  1  0.84998011  0.00477468  0.48703676  1
  In  In59  1  -0.00088425  0.14464833  0.17785052  1
  In  In60  1  0.83250199  0.50132131  0.63854650  1
  In  In61  1  0.36390065  0.34591744  0.00853861  1
  In  In62  1  0.52351517  0.37161183  0.82872444  1
  In  In63  1  0.82575387  0.85258603  0.32908054  1
  In  In64  1  -0.02049632  0.65859561  0.01604647  1
  In  In65  1  0.19703497  0.85421967  0.65185563  1
  In  In66  1  0.20628924  0.33022165  0.81781795  1
  In  In67  1  -0.00423764  0.47874186  0.49487395  1
  In  In68  1  0.35410903  0.52833877  0.82854134  1
  In  In69  1  0.35578759  0.68066085  -0.00530480  1
  In  In70  1  0.02316671  0.15188847  0.81318486  1
  In  In71  1  0.81836616  0.16115606  0.64904345  1
  Te  Te72  1  0.11080313  0.06908768  0.11560227  1
  Te  Te73  1  0.08331175  0.05002650  0.39870916  1
  Te  Te74  1  0.10939448  0.07099812  0.72854647  1
  Te  Te75  1  0.06271749  0.40968401  0.09087864  1
  Te  Te76  1  0.08937742  0.42267190  0.39042883  1
  Te  Te77  1  0.06729413  0.41232667  0.76522939  1
  Te  Te78  1  0.07428990  0.75419380  0.08244245  1
  Te  Te79  1  0.10987286  0.73775387  0.43489396  1
  Te  Te80  1  0.10061850  0.74590769  0.73676580  1
  Te  Te81  1  0.41392083  0.08300125  0.08938983  1
  Te  Te82  1  0.38568718  0.09975416  0.45355540  1
  Te  Te83  1  0.41789025  0.08549398  0.72602201  1
  Te  Te84  1  0.44069882  0.45792128  0.07145982  1
  Te  Te85  1  0.38844745  0.44395508  0.41553840  1
  Te  Te86  1  0.40502143  0.40831569  0.73922995  1
  Te  Te87  1  0.44305891  0.73626626  0.10164211  1
  Te  Te88  1  0.43032660  0.76486356  0.40773609  1
  Te  Te89  1  0.38736920  0.78041594  0.80356074  1
  Te  Te90  1  0.74346033  0.08638434  0.08502663  1
  Te  Te91  1  0.73990368  0.05893081  0.39819707  1
  Te  Te92  1  0.75141744  0.07965492  0.76258423  1
  Te  Te93  1  0.69490939  0.44387765  0.12482185  1
  Te  Te94  1  0.70749750  0.44098054  0.47733869  1
  Te  Te95  1  0.73912946  0.41772133  0.73942355  1
  Te  Te96  1  0.73336745  0.76172912  0.10492412  1
  Te  Te97  1  0.74162532  0.75911769  0.41587729  1
  Te  Te98  1  0.73228777  0.74063853  0.72736893  1
  Te  Te99  1  0.07338757  0.23917259  0.27251054  1
  Te  Te100  1  0.05643512  0.22368743  0.54256330  1
  Te  Te101  1  0.10018163  0.25612108  0.90994871  1
  Te  Te102  1  0.07682976  0.58804096  0.23854997  1
  Te  Te103  1  0.07306757  0.57899991  0.57843088  1
  Te  Te104  1  0.08852732  0.59589177  0.91228471  1
  Te  Te105  1  0.07732639  0.92804401  0.26717658  1
  Te  Te106  1  0.09366413  0.91307610  0.56850910  1
  Te  Te107  1  0.10388991  0.93534599  0.92838734  1
  Te  Te108  1  0.42740687  0.24917281  0.26711228  1
  Te  Te109  1  0.43936169  0.24178662  0.52855642  1
  Te  Te110  1  0.43858933  0.26121815  0.90648826  1
  Te  Te111  1  0.41770409  0.60287219  0.25448707  1
  Te  Te112  1  0.41473012  0.58271216  0.59679869  1
  Te  Te113  1  0.44924610  0.60173174  0.91018370  1
  Te  Te114  1  0.47065757  0.91695820  0.24404319  1
  Te  Te115  1  0.40108078  0.94637654  0.61262012  1
  Te  Te116  1  0.42363318  0.90952214  0.90311489  1
  Te  Te117  1  0.72504012  0.24709913  0.27879122  1
  Te  Te118  1  0.73927398  0.23755935  0.54655871  1
  Te  Te119  1  0.72331576  0.26034273  0.94085569  1
  Te  Te120  1  0.73307524  0.58366950  0.28120417  1
  Te  Te121  1  0.71882992  0.57772869  0.58237355  1
  Te  Te122  1  0.75977935  0.59600414  0.94047415  1
  Te  Te123  1  0.73576050  0.91690014  0.23353849  1
  Te  Te124  1  0.74952227  0.93109735  0.58109807  1
  Te  Te125  1  0.76462776  0.91031762  0.91723936  1
  Te  Te126  1  0.26055091  0.24972232  0.06356194  1
  Te  Te127  1  0.24615617  0.23062961  0.42004185  1
  Te  Te128  1  0.22246589  0.23539583  0.70094715  1
  Te  Te129  1  0.24941750  0.59463262  0.08673302  1
  Te  Te130  1  0.25931584  0.57788938  0.42493793  1
  Te  Te131  1  0.23741489  0.57358920  0.74548701  1
  Te  Te132  1  0.26014968  0.88569368  0.07013107  1
  Te  Te133  1  0.27317057  0.91763889  0.41321779  1
  Te  Te134  1  0.28379790  0.89540210  0.76680917  1
  Te  Te135  1  0.57685318  0.24078282  0.09456064  1
  Te  Te136  1  0.55117730  0.24389350  0.42499553  1
  Te  Te137  1  0.57813862  0.25423522  0.73152323  1
  Te  Te138  1  0.61098138  0.57042081  0.13859750  1
  Te  Te139  1  0.57941714  0.60494763  0.40951868  1
  Te  Te140  1  0.56705178  0.60330648  0.76554351  1
  Te  Te141  1  0.57486854  0.94365534  0.08933249  1
  Te  Te142  1  0.56948331  0.85932132  0.43680549  1
  Te  Te143  1  0.56196653  0.89215064  0.71579307  1
  Te  Te144  1  0.89917372  0.24733280  0.10284187  1
  Te  Te145  1  0.93813371  0.24088587  0.44198884  1
  Te  Te146  1  0.91302099  0.24792548  0.75337813  1
  Te  Te147  1  0.90557399  0.55928961  0.09157889  1
  Te  Te148  1  0.91442516  0.57943962  0.41195199  1
  Te  Te149  1  0.90303936  0.57604386  0.75629033  1
  Te  Te150  1  0.91850374  0.92208397  0.07888243  1
  Te  Te151  1  0.93028651  0.90267990  0.41695934  1
  Te  Te152  1  0.93611713  0.92969616  0.73722653  1
  Te  Te153  1  0.28246463  0.04746873  0.25408551  1
  Te  Te154  1  0.30757482  0.06403952  0.58045759  1
  Te  Te155  1  0.27741384  0.10675488  0.90414527  1
  Te  Te156  1  0.24447752  0.39412452  0.22107796  1
  Te  Te157  1  0.25334113  0.40580749  0.57185591  1
  Te  Te158  1  0.26154875  0.43041201  0.92401202  1
  Te  Te159  1  0.27519413  0.78811324  0.23655985  1
  Te  Te160  1  0.26989333  0.73625579  0.58981935  1
  Te  Te161  1  0.24648374  0.77971404  0.95930389  1
  Te  Te162  1  0.55065381  0.06868885  0.27678671  1
  Te  Te163  1  0.54897711  0.03144527  0.53375941  1
  Te  Te164  1  0.56346661  0.06448879  0.88174011  1
  Te  Te165  1  0.59209345  0.41014599  0.25748226  1
  Te  Te166  1  0.55929798  0.41707790  0.55177260  1
  Te  Te167  1  0.60577724  0.43186437  0.93140467  1
  Te  Te168  1  0.54571361  0.78158911  0.22348724  1
  Te  Te169  1  0.57562390  0.79459975  0.57154830  1
  Te  Te170  1  0.60144175  0.76297972  0.92096974  1
  Te  Te171  1  0.89724032  0.07731765  0.25670091  1
  Te  Te172  1  0.92464656  0.08291824  0.58807587  1
  Te  Te173  1  0.94877522  0.08712123  0.93070724  1
  Te  Te174  1  0.89027816  0.40559378  0.26830818  1
  Te  Te175  1  0.90056631  0.38581487  0.56782779  1
  Te  Te176  1  0.88566310  0.40889458  0.93872246  1
  Te  Te177  1  0.90790464  0.73602851  0.24426364  1
  Te  Te178  1  0.90652536  0.75325871  0.57250818  1
  Te  Te179  1  0.93638932  0.76258129  0.89589204  1
