# generated using pymatgen
data_In2Te3
_symmetry_space_group_name_H-M   'P 1'
_cell_length_a   18.77100948
_cell_length_b   18.76713976
_cell_length_c   18.77603318
_cell_angle_alpha   89.98063911
_cell_angle_beta   89.99289495
_cell_angle_gamma   90.03396444
_symmetry_Int_Tables_number   1
_chemical_formula_structural   In2Te3
_chemical_formula_sum   'In72 Te108'
_cell_volume   6614.38479771
_cell_formula_units_Z   36
loop_
 _symmetry_equiv_pos_site_id
 _symmetry_equiv_pos_as_xyz
  1  'x, y, z'
loop_
 _atom_site_type_symbol
 _atom_site_label
 _atom_site_symmetry_multiplicity
 _atom_site_fract_x
 _atom_site_fract_y
 _atom_site_fract_z
 _atom_site_occupancy
  In  In0  1  0.66032886  0.34771533  -0.00735109  1
  In  In1  1  0.01705462  0.51949781  0.82485206  1
  In  In2  1  0.16322248  0.15665618  0.67016831  1
  In  In3  1  -0.01201793  -0.03132013  0.65706094  1
  In  In4  1  0.14791035  -0.00405957  0.51502010  1
  In  In5  1  0.86925424  0.31994577  0.82935383  1
  In  In6  1  0.36129307  0.53816702  0.86316678  1
  In  In7  1  0.33258139  0.83386319  0.83363745  1
  In  In8  1  0.49842870  -0.03075042  0.16098364  1
  In  In9  1  0.16231204  0.79885492  0.34341843  1
  In  In10  1  0.17531751  0.51394575  -0.00129346  1
  In  In11  1  0.65740793  -0.01549962  0.00597350  1
  In  In12  1  0.49412471  0.15364703  0.33111801  1
  In  In13  1  -0.01443970  0.53340736  0.51439830  1
  In  In14  1  0.83566877  0.68878790  0.83793063  1
  In  In15  1  0.85012389  0.32961059  0.14599265  1
  In  In16  1  0.83501571  0.82878585  0.33376343  1
  In  In17  1  0.32401489  -0.02170750  0.01063537  1
  In  In18  1  -0.01527801  0.52106921  0.15325675  1
  In  In19  1  0.66196226  0.15380392  0.82627517  1
  In  In20  1  0.31654149  0.13457781  0.85719577  1
  In  In21  1  -0.00033469  0.32326786  -0.01194960  1
  In  In22  1  0.51995706  0.50231002  0.67987475  1
  In  In23  1  0.82683364  -0.02626292  0.48402792  1
  In  In24  1  0.86534368  0.11110436  0.30541839  1
  In  In25  1  0.50320828  0.33978733  0.16385532  1
  In  In26  1  0.17853563  0.31537573  0.16365084  1
  In  In27  1  0.18752326  0.33149308  0.48609810  1
  In  In28  1  0.16435432  0.67928955  0.83837113  1
  In  In29  1  0.50078077  0.54494993  0.34857549  1
  In  In30  1  0.12588511  0.51323995  0.67353614  1
  In  In31  1  0.64785904  0.51637442  0.82432367  1
  In  In32  1  0.01260819  0.82989416  0.15719036  1
  In  In33  1  0.15210975  -0.02516999  0.13167496  1
  In  In34  1  0.81700352  0.32825344  0.48915063  1
  In  In35  1  0.50921472  0.67619310  0.49322803  1
  In  In36  1  0.01089727  0.14094940  0.84957802  1
  In  In37  1  0.65937211  0.14511493  0.51062711  1
  In  In38  1  -0.00355873  0.68219474  0.65301842  1
  In  In39  1  0.66390316  0.32005917  0.68087077  1
  In  In40  1  0.67577867  0.34457477  0.33612938  1
  In  In41  1  0.32753733  0.32505660  0.01327053  1
  In  In42  1  0.34245234  0.83040137  0.51044590  1
  In  In43  1  0.18339240  0.53128605  0.33540414  1
  In  In44  1  0.00227637  0.16098025  0.50604493  1
  In  In45  1  0.83579792  0.55275326  0.33408513  1
  In  In46  1  0.83075937  0.83526630  0.00197068  1
  In  In47  1  0.31622075  -0.02299279  0.66200001  1
  In  In48  1  0.67003010  -0.02234643  0.66066463  1
  In  In49  1  0.35346634  -0.01485273  0.32663836  1
  In  In50  1  0.47400314  0.34060188  0.50961303  1
  In  In51  1  0.32516803  0.68611640  0.66991573  1
  In  In52  1  0.66421796  0.67066827  0.65550233  1
  In  In53  1  0.78784995  0.52486275  0.64757579  1
  In  In54  1  0.32723052  0.51881634  0.18362862  1
  In  In55  1  0.01855854  0.34505228  0.32770983  1
  In  In56  1  0.33475817  0.31476451  0.66010076  1
  In  In57  1  -0.01635293  0.34126019  0.69566165  1
  In  In58  1  0.64888467  0.55770458  0.17231411  1
  In  In59  1  0.50023024  -0.02025435  0.83282168  1
  In  In60  1  0.83443694  0.52913712  0.03347063  1
  In  In61  1  0.17268035  0.15814478  0.35112608  1
  In  In62  1  0.50987225  0.32255306  0.83547310  1
  In  In63  1  0.64349570  -0.05149822  0.35434829  1
  In  In64  1  0.32954970  0.16104733  0.16095649  1
  In  In65  1  0.63838709  0.69598964  0.00713794  1
  In  In66  1  0.67292937  0.17333000  0.16147566  1
  In  In67  1  0.65231073  0.55499226  0.51519079  1
  In  In68  1  0.84113980  0.12669833  -0.02802975  1
  In  In69  1  0.15709704  0.68129332  0.15235202  1
  In  In70  1  0.84734386  -0.01880776  0.83345364  1
  In  In71  1  0.32061235  0.51460842  0.48630241  1
  Te  Te72  1  0.06289747  0.08878311  0.10362538  1
  Te  Te73  1  0.06333017  0.06488586  0.40484887  1
  Te  Te74  1  0.08470659  0.05278468  0.74770082  1
  Te  Te75  1  0.08539986  0.41623826  0.09130122  1
  Te  Te76  1  0.08402306  0.43880873  0.42951437  1
  Te  Te77  1  0.09924962  0.40030119  0.77707931  1
  Te  Te78  1  0.10160661  0.77497408  0.04970560  1
  Te  Te79  1  0.06572423  0.73019055  0.43232374  1
  Te  Te80  1  0.06842160  0.75949885  0.75814389  1
  Te  Te81  1  0.42417897  0.07602446  0.07867248  1
  Te  Te82  1  0.43742640  0.05652106  0.42602554  1
  Te  Te83  1  0.40482202  0.06882747  0.75314419  1
  Te  Te84  1  0.41016360  0.43134283  0.08520188  1
  Te  Te85  1  0.41249296  0.42633087  0.40129405  1
  Te  Te86  1  0.41723409  0.41582797  0.75236070  1
  Te  Te87  1  0.47409956  0.73079336  0.11014185  1
  Te  Te88  1  0.42246800  0.76117406  0.40333890  1
  Te  Te89  1  0.42442829  0.77737504  0.72919955  1
  Te  Te90  1  0.75660053  0.06878372  0.08720500  1
  Te  Te91  1  0.74241306  0.07913213  0.39985834  1
  Te  Te92  1  0.76017986  0.07300838  0.74603556  1
  Te  Te93  1  0.73347877  0.42664635  0.10233994  1
  Te  Te94  1  0.74967395  0.45137526  0.42160893  1
  Te  Te95  1  0.75176141  0.41326388  0.76437349  1
  Te  Te96  1  0.74092657  0.75751375  0.09422626  1
  Te  Te97  1  0.74804633  0.75523018  0.43310867  1
  Te  Te98  1  0.74412893  0.75766385  0.74505335  1
  Te  Te99  1  0.08122703  0.23207609  0.24759000  1
  Te  Te100  1  0.08523601  0.26530034  0.58373355  1
  Te  Te101  1  0.09706146  0.24644172  0.90874286  1
  Te  Te102  1  0.07575747  0.59799985  0.25235952  1
  Te  Te103  1  0.11022396  0.61519293  0.56200334  1
  Te  Te104  1  0.06674712  0.60232977  0.93986976  1
  Te  Te105  1  0.09445874  0.90880317  0.25980153  1
  Te  Te106  1  0.07600849  0.88093063  0.57354987  1
  Te  Te107  1  0.09254822  0.95081233  0.91280682  1
  Te  Te108  1  0.41038208  0.25497747  0.25114504  1
  Te  Te109  1  0.41897254  0.22417366  0.58043767  1
  Te  Te110  1  0.41410700  0.23868406  0.92078628  1
  Te  Te111  1  0.42330898  0.61845059  0.24365582  1
  Te  Te112  1  0.42494089  0.57748649  0.58291027  1
  Te  Te113  1  0.43367730  0.65077922  0.92455491  1
  Te  Te114  1  0.44071818  0.87530224  0.26565591  1
  Te  Te115  1  0.43338690  0.91530947  0.59322336  1
  Te  Te116  1  0.43205357  0.89677520  0.94175482  1
  Te  Te117  1  0.76631732  0.25010731  0.25621860  1
  Te  Te118  1  0.75533910  0.23451166  0.59305465  1
  Te  Te119  1  0.75363201  0.24834882  0.92028822  1
  Te  Te120  1  0.75899933  0.63585455  0.23512691  1
  Te  Te121  1  0.78908107  0.64629937  0.53825926  1
  Te  Te122  1  0.74334196  0.58791846  0.92090677  1
  Te  Te123  1  0.73908522  0.90963580  0.25154495  1
  Te  Te124  1  0.75603068  0.88457186  0.57876086  1
  Te  Te125  1  0.73430852  0.90348259  0.90240027  1
  Te  Te126  1  0.22947049  0.21626457  0.05938924  1
  Te  Te127  1  0.27782987  0.23939346  0.41630071  1
  Te  Te128  1  0.25040607  0.24077363  0.76360801  1
  Te  Te129  1  0.26917210  0.60710864  0.07245138  1
  Te  Te130  1  0.26887656  0.62818600  0.40724202  1
  Te  Te131  1  0.25009844  0.57914422  0.75318112  1
  Te  Te132  1  0.27064400  0.88327960  0.11458367  1
  Te  Te133  1  0.24543327  0.91821097  0.41779254  1
  Te  Te134  1  0.22771161  0.90986226  0.75945738  1
  Te  Te135  1  0.57474829  0.24442380  0.06829456  1
  Te  Te136  1  0.58405160  0.25504318  0.41948656  1
  Te  Te137  1  0.56053292  0.22095137  0.73197528  1
  Te  Te138  1  0.54776648  0.58733419  0.06564029  1
  Te  Te139  1  0.61900083  0.63649348  0.38748114  1
  Te  Te140  1  0.56006490  0.62551453  0.76088134  1
  Te  Te141  1  0.59415607  0.87590312  0.09036249  1
  Te  Te142  1  0.56214911  0.86351280  0.44365101  1
  Te  Te143  1  0.59928755  0.89350581  0.76319369  1
  Te  Te144  1  0.92166753  0.22009597  0.07038779  1
  Te  Te145  1  0.92086589  0.24913161  0.40825028  1
  Te  Te146  1  0.92299186  0.20811272  0.74002048  1
  Te  Te147  1  0.91392865  0.63919706  0.09545968  1
  Te  Te148  1  0.94415222  0.63258367  0.40576560  1
  Te  Te149  1  0.90444195  0.57771667  0.73987583  1
  Te  Te150  1  0.90545975  0.92304502  0.10166931  1
  Te  Te151  1  0.93535357  0.91534245  0.40329819  1
  Te  Te152  1  0.91894683  0.87742909  0.75397820  1
  Te  Te153  1  0.24747642  0.06591615  0.24682358  1
  Te  Te154  1  0.25490076  0.08948330  0.56958008  1
  Te  Te155  1  0.21145487  0.04440703  0.92920231  1
  Te  Te156  1  0.24762015  0.41088357  0.26082548  1
  Te  Te157  1  0.24742670  0.42761261  0.59271305  1
  Te  Te158  1  0.26408964  0.42424635  0.91521560  1
  Te  Te159  1  0.25561192  0.76519768  0.23039633  1
  Te  Te160  1  0.23319081  0.77705607  0.59771373  1
  Te  Te161  1  0.24970925  0.75585100  0.93207758  1
  Te  Te162  1  0.58910698  0.07198715  0.24244317  1
  Te  Te163  1  0.56834926  0.05497880  0.58246434  1
  Te  Te164  1  0.57258580  0.08299851  0.92535060  1
  Te  Te165  1  0.58204199  0.43570962  0.25591160  1
  Te  Te166  1  0.59893242  0.41491754  0.57694755  1
  Te  Te167  1  0.55917690  0.43859791  0.92315844  1
  Te  Te168  1  0.55015402  0.76211946  0.22827552  1
  Te  Te169  1  0.59081105  0.77690242  0.57300388  1
  Te  Te170  1  0.55395583  0.74579302  0.89675827  1
  Te  Te171  1  0.94724146  0.04447258  0.19968374  1
  Te  Te172  1  0.90446885  0.07144970  0.57839696  1
  Te  Te173  1  0.96024652  0.02137802  0.94223230  1
  Te  Te174  1  0.90635773  0.42956379  0.25880766  1
  Te  Te175  1  0.90418963  0.41790734  0.58607281  1
  Te  Te176  1  0.91144297  0.43523141  0.93067490  1
  Te  Te177  1  0.91560317  0.74432140  0.23502244  1
  Te  Te178  1  0.90079456  0.74985668  0.56266147  1
  Te  Te179  1  0.93257983  0.76978771  0.91390364  1
