# generated using pymatgen
data_In2Te3
_symmetry_space_group_name_H-M   'P 1'
_cell_length_a   18.99847261
_cell_length_b   19.00667027
_cell_length_c   18.98230590
_cell_angle_alpha   90.03122098
_cell_angle_beta   89.90569923
_cell_angle_gamma   90.03553251
_symmetry_Int_Tables_number   1
_chemical_formula_structural   In2Te3
_chemical_formula_sum   'In72 Te108'
_cell_volume   6854.45547056
_cell_formula_units_Z   36
loop_
 _symmetry_equiv_pos_site_id
 _symmetry_equiv_pos_as_xyz
  1  'x, y, z'
loop_
 _atom_site_type_symbol
 _atom_site_label
 _atom_site_symmetry_multiplicity
 _atom_site_fract_x
 _atom_site_fract_y
 _atom_site_fract_z
 _atom_site_occupancy
  In  In0  1  0.83779104  0.63247606  0.85929923  1
  In  In1  1  0.50119825  0.50795508  0.68257053  1
  In  In2  1  0.86896287  -0.02146714  0.83495693  1
  In  In3  1  0.17467074  -0.00655444  0.14203789  1
  In  In4  1  0.48996696  0.50105479  0.00769072  1
  In  In5  1  0.00726208  0.49704492  0.17193449  1
  In  In6  1  0.32335478  0.34938743  -0.00404752  1
  In  In7  1  0.17003954  0.52303916  0.67806965  1
  In  In8  1  0.84673783  0.83480587  0.68077561  1
  In  In9  1  0.17424928  -0.00162646  0.49794530  1
  In  In10  1  0.32379551  -0.01310607  0.69704676  1
  In  In11  1  0.51811032  0.02313466  0.14660737  1
  In  In12  1  0.65052135  0.64396960  0.33303731  1
  In  In13  1  -0.00204038  0.31151599  0.34315192  1
  In  In14  1  0.32954236  0.33228761  0.34318223  1
  In  In15  1  0.16650021  0.17301017  0.34007052  1
  In  In16  1  0.48851633  0.02207292  0.51602595  1
  In  In17  1  -0.02381643  0.49098479  0.48914227  1
  In  In18  1  0.35023539  0.65542811  0.34457847  1
  In  In19  1  0.68028925  -0.00128540  -0.00013183  1
  In  In20  1  0.36724617  0.02949352  0.35680950  1
  In  In21  1  0.64127260  -0.01668973  0.31180990  1
  In  In22  1  0.33298380  0.15932538  0.84757981  1
  In  In23  1  0.34219848  0.51309914  0.82791501  1
  In  In24  1  0.67964713  0.34928607  0.34233998  1
  In  In25  1  0.32560105  0.16513914  0.17969632  1
  In  In26  1  0.65452149  0.18208610  0.81365515  1
  In  In27  1  0.49154958  0.64980093  0.15452063  1
  In  In28  1  0.85533328  0.00746987  0.50161075  1
  In  In29  1  0.80809134  0.16257720  0.00522147  1
  In  In30  1  0.01712316  0.00184238  0.31842481  1
  In  In31  1  0.34358929  0.51569228  0.52050382  1
  In  In32  1  0.64234560  0.79465712  0.83946137  1
  In  In33  1  0.02796733  -0.03157016  -0.00843056  1
  In  In34  1  0.18762425  0.67975301  0.51309614  1
  In  In35  1  0.17802254  0.34226280  0.82844917  1
  In  In36  1  0.85738045  0.66735028  0.12737975  1
  In  In37  1  -0.01991571  0.33861860  -0.00711842  1
  In  In38  1  0.02704923  0.69198180  0.67981581  1
  In  In39  1  0.14851620  0.35853593  0.50563660  1
  In  In40  1  0.17728578  0.32199586  0.17671953  1
  In  In41  1  0.51435505  0.50906071  0.34478740  1
  In  In42  1  0.31501207  0.67372066  0.00229487  1
  In  In43  1  0.48872840  0.18453905  0.01770825  1
  In  In44  1  0.81887629  0.66676571  0.48985139  1
  In  In45  1  0.80293249  0.33274570  0.15138184  1
  In  In46  1  0.66522189  0.82620684  0.15040736  1
  In  In47  1  0.66259574  0.64338323  0.66978141  1
  In  In48  1  0.28536001  -0.05687618  -0.07461437  1
  In  In49  1  0.83164483  0.80625715  0.31251034  1
  In  In50  1  0.66997073  0.17528059  0.48587215  1
  In  In51  1  0.00612059  0.17005570  0.82080285  1
  In  In52  1  0.16885916  0.85389072  0.34211366  1
  In  In53  1  0.17595130  0.18168696  0.65504671  1
  In  In54  1  0.85174621  0.15754361  0.66000633  1
  In  In55  1  0.31158975  0.84968999  0.16837634  1
  In  In56  1  0.47216740  0.72473301  0.70070685  1
  In  In57  1  0.66818435  0.49566603  0.14220648  1
  In  In58  1  0.02721747  0.53036771  0.83609934  1
  In  In59  1  0.80353080  0.37242941  0.80412394  1
  In  In60  1  0.82576476  0.50063364  0.33603657  1
  In  In61  1  0.01834719  0.85239628  0.50940953  1
  In  In62  1  0.12852833  0.66286607  0.09247539  1
  In  In63  1  0.85099619  0.15418413  0.33027171  1
  In  In64  1  0.51115311  0.19123460  0.65409391  1
  In  In65  1  0.81601062  0.33963078  0.51209596  1
  In  In66  1  0.63488136  0.34797113  -0.01371073  1
  In  In67  1  0.48359007  0.84041114  0.34165084  1
  In  In68  1  0.85740922  0.83519980  -0.01281059  1
  In  In69  1  0.69278618  -0.02327449  0.67862390  1
  In  In70  1  0.35045773  0.81658891  0.53162843  1
  In  In71  1  0.48734181  -0.01061193  0.85496455  1
  Te  Te72  1  0.09528251  0.08190183  0.05817674  1
  Te  Te73  1  0.07503417  0.08846285  0.42829815  1
  Te  Te74  1  0.10262399  0.09087230  0.74488082  1
  Te  Te75  1  0.08494823  0.40130552  0.08403097  1
  Te  Te76  1  0.07629930  0.42994594  0.39153520  1
  Te  Te77  1  0.08073504  0.42032380  0.74371260  1
  Te  Te78  1  0.02738432  0.74392012  0.01763560  1
  Te  Te79  1  0.08978368  0.75202862  0.42027403  1
  Te  Te80  1  0.11329338  0.69996509  0.79710206  1
  Te  Te81  1  0.39725331  0.07807283  0.07468232  1
  Te  Te82  1  0.43045361  0.13790866  0.44000327  1
  Te  Te83  1  0.43468991  0.08785330  0.74949769  1
  Te  Te84  1  0.41691598  0.40731324  0.09159720  1
  Te  Te85  1  0.42075122  0.42430796  0.42877685  1
  Te  Te86  1  0.39741582  0.41616128  0.73316025  1
  Te  Te87  1  0.40899568  0.75886061  0.09426228  1
  Te  Te88  1  0.43917062  0.73344691  0.43855317  1
  Te  Te89  1  0.35538510  0.75662856  0.78426379  1
  Te  Te90  1  0.72861039  0.08879926  0.10351422  1
  Te  Te91  1  0.74599459  0.06533037  0.40929313  1
  Te  Te92  1  0.76156512  0.07640577  0.77075836  1
  Te  Te93  1  0.76815604  0.43611278  0.04353306  1
  Te  Te94  1  0.73438610  0.44811814  0.44349349  1
  Te  Te95  1  0.73123849  0.45020913  0.70073276  1
  Te  Te96  1  0.75144172  0.74732952  0.05422882  1
  Te  Te97  1  0.72622719  0.75393462  0.40813900  1
  Te  Te98  1  0.76007700  0.73818955  0.76061859  1
  Te  Te99  1  0.07160604  0.23039645  0.23870589  1
  Te  Te100  1  0.07490474  0.26096094  0.58453743  1
  Te  Te101  1  0.08559769  0.25960749  0.91507998  1
  Te  Te102  1  0.08027538  0.61226338  0.22324827  1
  Te  Te103  1  0.07855360  0.58342231  0.57150245  1
  Te  Te104  1  0.05775735  0.59186272  0.97098244  1
  Te  Te105  1  0.08389658  0.90113761  0.22728305  1
  Te  Te106  1  0.11532826  0.91108661  0.60228281  1
  Te  Te107  1  0.07971170  0.91926732  0.86374070  1
  Te  Te108  1  0.41528671  0.24767174  0.25804867  1
  Te  Te109  1  0.41567582  0.23743145  0.55779981  1
  Te  Te110  1  0.42036878  0.26632209  0.91163168  1
  Te  Te111  1  0.41145658  0.55999493  0.24437585  1
  Te  Te112  1  0.42063864  0.61219439  0.60605108  1
  Te  Te113  1  0.42641140  0.61096823  0.91468782  1
  Te  Te114  1  0.42000209  0.93309197  0.24032485  1
  Te  Te115  1  0.43038689  0.91786418  0.61050028  1
  Te  Te116  1  0.41913865  0.88081891  0.92348042  1
  Te  Te117  1  0.74809780  0.24251032  0.25994488  1
  Te  Te118  1  0.74174091  0.24246786  0.60223075  1
  Te  Te119  1  0.74677051  0.26779802  0.90808148  1
  Te  Te120  1  0.75465851  0.59048673  0.23378878  1
  Te  Te121  1  0.77469510  0.57521367  0.59795671  1
  Te  Te122  1  0.75093583  0.53653988  0.92576629  1
  Te  Te123  1  0.75296802  0.91322565  0.23641476  1
  Te  Te124  1  0.76715649  0.90313244  0.56943420  1
  Te  Te125  1  0.74531080  0.90610600  0.89937917  1
  Te  Te126  1  0.24931943  0.23955536  0.07284366  1
  Te  Te127  1  0.24081876  0.25388496  0.43979378  1
  Te  Te128  1  0.27183173  0.25591747  0.74754553  1
  Te  Te129  1  0.25358895  0.58447794  0.09980895  1
  Te  Te130  1  0.24672169  0.57522847  0.41997430  1
  Te  Te131  1  0.26672202  0.61507358  0.74496248  1
  Te  Te132  1  0.22023971  0.87967535  0.05330956  1
  Te  Te133  1  0.28557527  0.91158847  0.42599110  1
  Te  Te134  1  0.22081840  0.92843852  0.78829789  1
  Te  Te135  1  0.59301711  0.25594040  0.09050541  1
  Te  Te136  1  0.58594362  0.28023573  0.43112791  1
  Te  Te137  1  0.57956554  0.28893362  0.74362056  1
  Te  Te138  1  0.60038222  0.60307332  0.06247184  1
  Te  Te139  1  0.58693941  0.58236644  0.44909655  1
  Te  Te140  1  0.59024822  0.57740436  0.78316857  1
  Te  Te141  1  0.57432133  0.90886954  0.06249161  1
  Te  Te142  1  0.57185277  0.92248147  0.43195852  1
  Te  Te143  1  0.58420271  0.91215614  0.76414589  1
  Te  Te144  1  0.90781007  0.24440191  0.08775400  1
  Te  Te145  1  0.90935006  0.23850677  0.44054390  1
  Te  Te146  1  0.90269761  0.26045889  0.75692350  1
  Te  Te147  1  0.92802241  0.55678945  0.05846678  1
  Te  Te148  1  0.92031293  0.59987937  0.39798791  1
  Te  Te149  1  0.92876081  0.59344263  0.73981838  1
  Te  Te150  1  0.91220486  0.93663983  0.07521782  1
  Te  Te151  1  0.92100846  0.90501587  0.40159827  1
  Te  Te152  1  0.96232871  0.89908275  0.75082199  1
  Te  Te153  1  0.24115736  0.06158964  0.26934243  1
  Te  Te154  1  0.26856992  0.07551805  0.58648664  1
  Te  Te155  1  0.23784018  0.08350295  0.92737048  1
  Te  Te156  1  0.24452073  0.41843949  0.26119747  1
  Te  Te157  1  0.25131282  0.42348528  0.59743038  1
  Te  Te158  1  0.23769904  0.44827136  0.91851246  1
  Te  Te159  1  0.25855484  0.75219441  0.27113885  1
  Te  Te160  1  0.23172095  0.77972507  0.61154604  1
  Te  Te161  1  0.23917626  0.72827556  0.88540771  1
  Te  Te162  1  0.56388496  0.09670101  0.26420027  1
  Te  Te163  1  0.61117266  0.07524480  0.59600723  1
  Te  Te164  1  0.58405690  0.09697075  0.91825122  1
  Te  Te165  1  0.58789574  0.42030203  0.24338526  1
  Te  Te166  1  0.60179605  0.40933365  0.63138678  1
  Te  Te167  1  0.56940591  0.44234907  0.89630498  1
  Te  Te168  1  0.56909412  0.75333697  0.24768452  1
  Te  Te169  1  0.58767579  0.75778940  0.61693167  1
  Te  Te170  1  0.55602988  0.69831921  0.90673707  1
  Te  Te171  1  0.92426294  0.07483341  0.23317906  1
  Te  Te172  1  0.94352108  0.05848619  0.60503162  1
  Te  Te173  1  0.91602220  0.09281550  0.92264383  1
  Te  Te174  1  0.90275830  0.40018576  0.25296596  1
  Te  Te175  1  0.91349618  0.41210410  0.59349360  1
  Te  Te176  1  0.92293797  0.42450942  0.88268235  1
  Te  Te177  1  0.93175997  0.74450237  0.22637699  1
  Te  Te178  1  0.92127170  0.74760084  0.57458098  1
  Te  Te179  1  0.93237262  0.74533142  0.89422963  1
