# generated using pymatgen
data_In2Te3
_symmetry_space_group_name_H-M   'P 1'
_cell_length_a   18.88245748
_cell_length_b   18.88909096
_cell_length_c   18.89484867
_cell_angle_alpha   90.09529206
_cell_angle_beta   89.97501533
_cell_angle_gamma   89.91264637
_symmetry_Int_Tables_number   1
_chemical_formula_structural   In2Te3
_chemical_formula_sum   'In72 Te108'
_cell_volume   6739.25429889
_cell_formula_units_Z   36
loop_
 _symmetry_equiv_pos_site_id
 _symmetry_equiv_pos_as_xyz
  1  'x, y, z'
loop_
 _atom_site_type_symbol
 _atom_site_label
 _atom_site_symmetry_multiplicity
 _atom_site_fract_x
 _atom_site_fract_y
 _atom_site_fract_z
 _atom_site_occupancy
  In  In0  1  -0.02945528  0.83488198  0.50106764  1
  In  In1  1  0.48735233  0.67302702  0.80923647  1
  In  In2  1  0.66222803  0.15206103  0.82662819  1
  In  In3  1  0.16199950  0.37322509  0.13956532  1
  In  In4  1  0.85287028  0.16719974  0.35249664  1
  In  In5  1  0.18866641  0.67316429  0.50705999  1
  In  In6  1  0.93104389  0.61288197  0.89859951  1
  In  In7  1  -0.00237099  0.82718635  0.18031737  1
  In  In8  1  0.49836480  0.80684140  0.31850123  1
  In  In9  1  0.65067016  0.32009439  0.01135020  1
  In  In10  1  0.65479625  0.19871032  0.52644412  1
  In  In11  1  0.63977150  0.83673301  0.50121747  1
  In  In12  1  0.33290827  0.81265664  0.18272840  1
  In  In13  1  0.18388107  0.84218906  0.34671906  1
  In  In14  1  0.84351408  0.35218408  0.16508640  1
  In  In15  1  0.33761098  0.68104601  -0.01459202  1
  In  In16  1  0.65839396  0.48492643  0.15162704  1
  In  In17  1  0.46608591  0.86263679  -0.01497220  1
  In  In18  1  0.86169156  0.36175083  0.83914565  1
  In  In19  1  0.02606078  0.16041916  0.14019341  1
  In  In20  1  0.65840872  0.63909264  -0.02016961  1
  In  In21  1  0.30696486  0.51260880  0.82591140  1
  In  In22  1  0.47654489  0.86244156  0.67480530  1
  In  In23  1  0.30245524  0.01263253  0.34770077  1
  In  In24  1  0.50265756  0.51117107  0.64111720  1
  In  In25  1  0.86261274  0.82949194  0.66885922  1
  In  In26  1  0.82951816  -0.00101818  0.52814261  1
  In  In27  1  0.48609081  0.50120082  0.32936168  1
  In  In28  1  0.32617047  0.65370243  0.33057504  1
  In  In29  1  0.47542922  0.32580968  0.85983150  1
  In  In30  1  0.31474646  0.20022798  0.13953569  1
  In  In31  1  0.18350384  0.00402443  0.49247234  1
  In  In32  1  0.02706688  0.17629504  0.83830254  1
  In  In33  1  0.14568258  0.62149396  0.14022087  1
  In  In34  1  0.67508573  0.68471669  0.66568192  1
  In  In35  1  0.16036526  -0.01327219  0.15148466  1
  In  In36  1  0.81126176  0.82520673  0.35395443  1
  In  In37  1  0.35473432  0.46768192  0.15086639  1
  In  In38  1  0.15833845  0.19306348  0.33313047  1
  In  In39  1  0.64924125  0.02062002  0.68369849  1
  In  In40  1  0.16615004  0.35023837  0.51422952  1
  In  In41  1  0.15636396  0.35919936  0.84884638  1
  In  In42  1  0.17694323  0.82203026  -0.01224971  1
  In  In43  1  0.65479106  -0.02738165  0.35602425  1
  In  In44  1  0.86555500  0.79367833  0.00956811  1
  In  In45  1  0.64784363  0.49785444  0.47669250  1
  In  In46  1  0.82443968  -0.00706728  0.81075079  1
  In  In47  1  0.42761541  0.02071545  0.87698640  1
  In  In48  1  0.82991652  0.16291141  0.00106437  1
  In  In49  1  0.64561555  -0.00574561  -0.03082667  1
  In  In50  1  0.01771594  0.19007039  0.49881929  1
  In  In51  1  0.17034971  0.82223509  0.68369624  1
  In  In52  1  0.48077615  0.17698150  0.30155177  1
  In  In53  1  0.02177999  0.33966831  0.67044604  1
  In  In54  1  0.81723869  0.00862979  0.19084103  1
  In  In55  1  0.04107728  0.01868566  0.67453152  1
  In  In56  1  0.01758342  -0.02203280  -0.01261020  1
  In  In57  1  0.83040660  0.69161514  0.52175209  1
  In  In58  1  0.82908089  0.49225337  0.33726646  1
  In  In59  1  0.49908419  0.16781446  0.66600961  1
  In  In60  1  0.67828626  0.81197337  0.82325675  1
  In  In61  1  0.49317116  0.01730889  0.16872077  1
  In  In62  1  0.82578345  0.62415304  0.13932986  1
  In  In63  1  0.69323729  0.47689231  0.82794156  1
  In  In64  1  0.32381992  0.16720715  0.51308219  1
  In  In65  1  0.33371697  0.50169189  0.50388566  1
  In  In66  1  0.64147684  0.19727542  0.14632567  1
  In  In67  1  0.00269463  0.66357957  0.31314819  1
  In  In68  1  0.67812961  0.33424363  0.33111216  1
  In  In69  1  0.33500663  0.32314704  0.68266812  1
  In  In70  1  0.01819316  0.51388831  0.50353606  1
  In  In71  1  0.84891869  0.49741841  0.68534273  1
  Te  Te72  1  0.11445098  0.08358157  0.04272990  1
  Te  Te73  1  0.08376719  0.08471923  0.40947081  1
  Te  Te74  1  0.12445290  0.08328986  0.77796077  1
  Te  Te75  1  0.05449756  0.44082167  0.05311417  1
  Te  Te76  1  0.06509665  0.40119541  0.41835710  1
  Te  Te77  1  0.07666133  0.44838453  0.75689657  1
  Te  Te78  1  0.08044106  0.74792160  0.08114827  1
  Te  Te79  1  0.07386590  0.75233757  0.41522127  1
  Te  Te80  1  0.10335004  0.72221169  0.77251538  1
  Te  Te81  1  0.39226464  0.08317149  0.07995447  1
  Te  Te82  1  0.41269183  0.09450772  0.41130192  1
  Te  Te83  1  0.40719544  0.06864203  0.73149393  1
  Te  Te84  1  0.45020173  0.38894968  0.07278901  1
  Te  Te85  1  0.42486342  0.41378898  0.42957559  1
  Te  Te86  1  0.42530475  0.42830246  0.75534657  1
  Te  Te87  1  0.43160402  0.75162346  0.08553722  1
  Te  Te88  1  0.41629814  0.73338599  0.41479647  1
  Te  Te89  1  0.38818553  0.76480270  0.74925069  1
  Te  Te90  1  0.73131743  0.07377544  0.07530740  1
  Te  Te91  1  0.75126240  0.07640067  0.42161851  1
  Te  Te92  1  0.77104893  0.10862227  0.72215342  1
  Te  Te93  1  0.75921741  0.41937051  0.05885543  1
  Te  Te94  1  0.76256398  0.39965003  0.43736636  1
  Te  Te95  1  0.75437529  0.38315718  0.72591413  1
  Te  Te96  1  0.74378116  0.73405668  0.07178642  1
  Te  Te97  1  0.71781515  0.72986287  0.42515832  1
  Te  Te98  1  0.78851510  0.73030744  0.75805532  1
  Te  Te99  1  0.08175040  0.27030107  0.22858353  1
  Te  Te100  1  0.11473181  0.23849074  0.60460215  1
  Te  Te101  1  0.08033447  0.26795474  0.93921878  1
  Te  Te102  1  0.07358287  0.55090512  0.24941814  1
  Te  Te103  1  0.11384014  0.57998664  0.59284751  1
  Te  Te104  1  0.06586110  0.55138818  0.94805656  1
  Te  Te105  1  0.08151352  0.92261571  0.26484572  1
  Te  Te106  1  0.08544319  0.90855666  0.56961603  1
  Te  Te107  1  0.12204923  0.92535216  0.89333369  1
  Te  Te108  1  0.38515544  0.27433382  0.24690779  1
  Te  Te109  1  0.42441504  0.26405562  0.57461460  1
  Te  Te110  1  0.36868564  0.22343283  0.88090749  1
  Te  Te111  1  0.41669681  0.59053031  0.22831066  1
  Te  Te112  1  0.39426492  0.59860387  0.59845279  1
  Te  Te113  1  0.42191698  0.57985816  0.90818634  1
  Te  Te114  1  0.40006889  0.92917302  0.25545167  1
  Te  Te115  1  0.38973543  0.96786054  0.61862356  1
  Te  Te116  1  0.36075324  0.88184535  0.87574577  1
  Te  Te117  1  0.76368425  0.24148426  0.23885959  1
  Te  Te118  1  0.76632363  0.22940978  0.61047126  1
  Te  Te119  1  0.75146280  0.25381457  0.90777538  1
  Te  Te120  1  0.73483961  0.57423067  0.25064299  1
  Te  Te121  1  0.75219873  0.57697664  0.58775096  1
  Te  Te122  1  0.77325849  0.58057631  0.90294938  1
  Te  Te123  1  0.72518011  0.89398362  0.23994612  1
  Te  Te124  1  0.74006406  0.90104472  0.60464710  1
  Te  Te125  1  0.76282058  0.90380759  0.91862077  1
  Te  Te126  1  0.24437801  0.29057677  0.04397204  1
  Te  Te127  1  0.25575980  0.26772496  0.42074168  1
  Te  Te128  1  0.24800421  0.25397673  0.78191657  1
  Te  Te129  1  0.26926128  0.57374427  0.07136126  1
  Te  Te130  1  0.23181219  0.56463852  0.40697706  1
  Te  Te131  1  0.21467916  0.61181164  0.76333667  1
  Te  Te132  1  0.26598763  0.90505600  0.08020685  1
  Te  Te133  1  0.28485950  0.89646740  0.44488816  1
  Te  Te134  1  0.24159681  0.91317992  0.77845330  1
  Te  Te135  1  0.52491006  0.25173972  0.06808967  1
  Te  Te136  1  0.58031586  0.24363318  0.40323898  1
  Te  Te137  1  0.57436734  0.25817330  0.76105474  1
  Te  Te138  1  0.57080300  0.57739738  0.07843517  1
  Te  Te139  1  0.55938820  0.59690091  0.41650747  1
  Te  Te140  1  0.60261033  0.58290808  0.75487285  1
  Te  Te141  1  0.57245903  0.92054634  0.08041026  1
  Te  Te142  1  0.53519335  0.91678349  0.42849685  1
  Te  Te143  1  0.58158480  0.92043827  0.77316947  1
  Te  Te144  1  0.92347414  0.25388809  0.07567133  1
  Te  Te145  1  0.93652240  0.27491609  0.40778478  1
  Te  Te146  1  0.92786971  0.25324402  0.75412091  1
  Te  Te147  1  0.94409970  0.58787989  0.05674177  1
  Te  Te148  1  0.90661133  0.60017134  0.42136758  1
  Te  Te149  1  0.96167166  0.56332285  0.75527057  1
  Te  Te150  1  0.91257085  0.92716688  0.09336952  1
  Te  Te151  1  0.90345516  0.93238609  0.40599642  1
  Te  Te152  1  0.94646259  0.92275339  0.75249355  1
  Te  Te153  1  0.23778669  0.09507410  0.23688489  1
  Te  Te154  1  0.24780873  0.07831821  0.60404011  1
  Te  Te155  1  0.30887518  0.08926806  0.93613126  1
  Te  Te156  1  0.25719411  0.41174670  0.24624581  1
  Te  Te157  1  0.25051087  0.42771125  0.61266294  1
  Te  Te158  1  0.26373862  0.42087049  0.93420685  1
  Te  Te159  1  0.21724618  0.73392324  0.24195833  1
  Te  Te160  1  0.27209488  0.75537111  0.59736351  1
  Te  Te161  1  0.21663131  0.70723867  0.89472827  1
  Te  Te162  1  0.60147643  0.08235408  0.25517728  1
  Te  Te163  1  0.57548164  0.07529637  0.56538077  1
  Te  Te164  1  0.55348076  0.10207940  0.92062003  1
  Te  Te165  1  0.57482555  0.40097921  0.24518654  1
  Te  Te166  1  0.58577370  0.40985699  0.57613402  1
  Te  Te167  1  0.58466740  0.42049412  0.91690948  1
  Te  Te168  1  0.62256204  0.77138879  0.25536178  1
  Te  Te169  1  0.55825642  0.75194601  0.59809284  1
  Te  Te170  1  0.56851272  0.76019480  0.91595465  1
  Te  Te171  1  0.93103562  0.09250804  0.24298441  1
  Te  Te172  1  0.93916334  0.08816468  0.58393462  1
  Te  Te173  1  0.91530675  0.07312187  0.91211668  1
  Te  Te174  1  0.93047355  0.44568731  0.23964456  1
  Te  Te175  1  0.92668979  0.41721797  0.58121035  1
  Te  Te176  1  0.94661236  0.43168366  0.93853392  1
  Te  Te177  1  0.88802172  0.74013567  0.24316951  1
  Te  Te178  1  0.95320962  0.72481414  0.60544524  1
  Te  Te179  1  0.95707700  0.76157614  0.90227185  1
