# generated using pymatgen
data_In2Te3
_symmetry_space_group_name_H-M   'P 1'
_cell_length_a   18.94901720
_cell_length_b   18.96065591
_cell_length_c   18.93302283
_cell_angle_alpha   90.01528257
_cell_angle_beta   89.99191447
_cell_angle_gamma   89.94882325
_symmetry_Int_Tables_number   1
_chemical_formula_structural   In2Te3
_chemical_formula_sum   'In72 Te108'
_cell_volume   6802.36313448
_cell_formula_units_Z   36
loop_
 _symmetry_equiv_pos_site_id
 _symmetry_equiv_pos_as_xyz
  1  'x, y, z'
loop_
 _atom_site_type_symbol
 _atom_site_label
 _atom_site_symmetry_multiplicity
 _atom_site_fract_x
 _atom_site_fract_y
 _atom_site_fract_z
 _atom_site_occupancy
  In  In0  1  0.68403187  0.67226250  0.34474537  1
  In  In1  1  0.32441865  0.67374367  0.31887079  1
  In  In2  1  0.00792861  0.83774258  0.17388900  1
  In  In3  1  0.30542971  0.88627297  0.13329790  1
  In  In4  1  0.67834093  0.00682534  0.67540406  1
  In  In5  1  0.84629987  0.85707291  0.67903431  1
  In  In6  1  0.32901903  0.30190400  0.71484139  1
  In  In7  1  0.85040291  0.47661735  0.68828248  1
  In  In8  1  0.32525883  0.67947749  0.67487104  1
  In  In9  1  0.51759363  0.52028503  0.65663806  1
  In  In10  1  0.52425790  0.64748070  0.51186585  1
  In  In11  1  0.81041556  0.32726264  0.83665109  1
  In  In12  1  0.74287762  0.31142259  0.15941785  1
  In  In13  1  0.15150829  0.83905633  0.33647220  1
  In  In14  1  0.82520666  0.68451649  0.50805883  1
  In  In15  1  0.16529861  0.15292285  0.33159582  1
  In  In16  1  0.34431608  0.31245087  -0.03837095  1
  In  In17  1  -0.00334883  0.51081719  0.85072041  1
  In  In18  1  0.48574632  0.32144791  0.52585709  1
  In  In19  1  0.33836798  0.51128318  0.84070359  1
  In  In20  1  0.65442212  0.49376538  0.49255081  1
  In  In21  1  0.17511160  0.10007691  -0.04627610  1
  In  In22  1  0.65437377  0.00666260  -0.00521050  1
  In  In23  1  0.14733134  0.48906739  0.31676130  1
  In  In24  1  0.18346227  0.30278012  0.17107837  1
  In  In25  1  0.50098905  0.01788607  0.50201753  1
  In  In26  1  0.00881483  0.13282693  0.81095454  1
  In  In27  1  0.69286729  0.68189385  0.67728282  1
  In  In28  1  0.49450618  0.17092263  0.33303767  1
  In  In29  1  0.01426383  0.32618521  0.67370249  1
  In  In30  1  0.49241770  0.66403401  0.16785998  1
  In  In31  1  -0.03280864  0.84535811  0.49515795  1
  In  In32  1  0.65684639  0.30218597  0.32804381  1
  In  In33  1  0.00240214  0.30403416  -0.00124937  1
  In  In34  1  -0.00032291  0.15672481  0.53877620  1
  In  In35  1  0.16485380  -0.01249265  0.50066347  1
  In  In36  1  0.32106302  0.14620826  0.15420842  1
  In  In37  1  0.65482771  0.49515235  0.16781749  1
  In  In38  1  0.49075117  0.00520516  0.15816246  1
  In  In39  1  0.31887047  0.16101334  0.49885741  1
  In  In40  1  0.11404273  0.82427959  0.69979091  1
  In  In41  1  0.51734052  0.86053940  0.65330326  1
  In  In42  1  0.67524559  -0.00458595  0.34069484  1
  In  In43  1  0.32603109  0.46833749  0.49434302  1
  In  In44  1  0.48847600  0.47802309  -0.03287667  1
  In  In45  1  0.83119989  0.00227908  0.85939936  1
  In  In46  1  0.80410061  0.28687857  0.54040648  1
  In  In47  1  0.83706165  -0.02406962  0.18017222  1
  In  In48  1  0.83033641  0.02800738  0.50958218  1
  In  In49  1  0.52528196  0.82644178  -0.00822113  1
  In  In50  1  0.68535625  0.66743280  -0.01497717  1
  In  In51  1  0.52448913  0.31828502  0.79185005  1
  In  In52  1  0.00507752  0.71196448  -0.04486731  1
  In  In53  1  0.50962768  0.82763701  0.31524986  1
  In  In54  1  0.16542973  0.65926481  0.14865218  1
  In  In55  1  0.17030257  0.67045292  0.51311881  1
  In  In56  1  0.02318236  -0.00432327  -0.02831543  1
  In  In57  1  0.01951042  0.50912967  0.16954753  1
  In  In58  1  0.78358615  0.18917662  0.01174213  1
  In  In59  1  0.32123478  0.68943902  0.00262399  1
  In  In60  1  -0.01005500  0.33262730  0.35670589  1
  In  In61  1  0.00542922  0.51140997  0.51115254  1
  In  In62  1  0.82748170  0.50087889  0.35258163  1
  In  In63  1  0.49993387  0.01087575  0.82697018  1
  In  In64  1  0.34824234  0.31564237  0.31521217  1
  In  In65  1  0.19396073  0.48769472  -0.00236774  1
  In  In66  1  0.83027450  0.70413583  0.15334558  1
  In  In67  1  0.18672405  0.49188909  0.66673287  1
  In  In68  1  -0.03378034  0.14783773  0.15656088  1
  In  In69  1  0.33454580  0.84663210  0.82292380  1
  In  In70  1  0.36478018  0.84638283  0.50770460  1
  In  In71  1  0.82760610  0.51336091  0.02099004  1
  Te  Te72  1  0.08003924  0.09252023  0.07758539  1
  Te  Te73  1  0.07195184  0.07863148  0.42277399  1
  Te  Te74  1  0.12335938  0.09629352  0.72457575  1
  Te  Te75  1  0.09136083  0.40588721  0.08230235  1
  Te  Te76  1  0.09294687  0.41246608  0.43590562  1
  Te  Te77  1  0.08728412  0.42432268  0.76192417  1
  Te  Te78  1  0.09320367  0.76568172  0.06838997  1
  Te  Te79  1  0.07275244  0.75094391  0.43041568  1
  Te  Te80  1  0.04872359  0.74065884  0.80503013  1
  Te  Te81  1  0.41232530  0.08068507  0.06016905  1
  Te  Te82  1  0.39981234  0.07618281  0.40327638  1
  Te  Te83  1  0.39604068  0.08468491  0.75127396  1
  Te  Te84  1  0.41344646  0.39761841  0.06143388  1
  Te  Te85  1  0.43221446  0.40380171  0.40881597  1
  Te  Te86  1  0.41506484  0.43142471  0.73687331  1
  Te  Te87  1  0.41029918  0.77212082  0.09575287  1
  Te  Te88  1  0.42558952  0.73780273  0.41943118  1
  Te  Te89  1  0.43152319  0.76308978  0.73778112  1
  Te  Te90  1  0.74416926  0.07360304  0.10201316  1
  Te  Te91  1  0.72207942  0.09680863  0.43555952  1
  Te  Te92  1  0.75402443  0.09470713  0.77010340  1
  Te  Te93  1  0.71431383  0.41909919  0.05085474  1
  Te  Te94  1  0.74899306  0.39398038  0.42608448  1
  Te  Te95  1  0.73207235  0.41724145  0.74891336  1
  Te  Te96  1  0.77362985  0.77611060  0.03986743  1
  Te  Te97  1  0.76195086  0.77570988  0.41164927  1
  Te  Te98  1  0.75983761  0.77675196  0.76609363  1
  Te  Te99  1  0.06598410  0.24871176  0.25078629  1
  Te  Te100  1  0.10155564  0.25366458  0.58229330  1
  Te  Te101  1  0.08886632  0.22749658  0.90433591  1
  Te  Te102  1  0.07891132  0.61349264  0.26429619  1
  Te  Te103  1  0.08484477  0.59274204  0.61154188  1
  Te  Te104  1  0.09776148  0.58529291  0.93552202  1
  Te  Te105  1  0.09678721  0.93540692  0.24131658  1
  Te  Te106  1  0.06334063  0.91708117  0.59015482  1
  Te  Te107  1  0.14110698  0.92738369  0.90436792  1
  Te  Te108  1  0.42920546  0.23966375  0.21368676  1
  Te  Te109  1  0.40533037  0.22326002  0.60803202  1
  Te  Te110  1  0.45766230  0.23879780  0.89877634  1
  Te  Te111  1  0.40918138  0.57623770  0.25074512  1
  Te  Te112  1  0.39274332  0.58328006  0.57457814  1
  Te  Te113  1  0.42073097  0.60970008  0.91897110  1
  Te  Te114  1  0.40708015  0.91523087  0.24876131  1
  Te  Te115  1  0.40487106  0.95250036  0.60690454  1
  Te  Te116  1  0.42477556  0.91719679  0.92367768  1
  Te  Te117  1  0.77669732  0.23382784  0.27860067  1
  Te  Te118  1  0.74180378  0.21660852  0.65253812  1
  Te  Te119  1  0.71196402  0.23258957  0.89042048  1
  Te  Te120  1  0.75993935  0.57895523  0.23938275  1
  Te  Te121  1  0.75286394  0.57018616  0.57881362  1
  Te  Te122  1  0.78324469  0.58966510  0.90361377  1
  Te  Te123  1  0.74546768  0.89315371  0.26057333  1
  Te  Te124  1  0.74816171  0.91519901  0.57863409  1
  Te  Te125  1  0.74734062  0.90622053  0.93560902  1
  Te  Te126  1  0.24079023  0.23502697  0.05155636  1
  Te  Te127  1  0.24398812  0.25784961  0.40786049  1
  Te  Te128  1  0.22000936  0.21343320  0.76516511  1
  Te  Te129  1  0.27586692  0.57193324  0.09160412  1
  Te  Te130  1  0.24184932  0.57598540  0.41693589  1
  Te  Te131  1  0.23740109  0.59785969  0.76518721  1
  Te  Te132  1  0.23238053  0.96098628  0.02615800  1
  Te  Te133  1  0.26318353  0.91038142  0.41424661  1
  Te  Te134  1  0.21672079  0.91778607  0.75631833  1
  Te  Te135  1  0.65226199  0.22197372  0.08270882  1
  Te  Te136  1  0.57880151  0.23391646  0.44205708  1
  Te  Te137  1  0.59521036  0.21762353  0.70703291  1
  Te  Te138  1  0.57926463  0.58669141  0.06949894  1
  Te  Te139  1  0.57747044  0.57290876  0.38986616  1
  Te  Te140  1  0.58559728  0.60930488  0.74991759  1
  Te  Te141  1  0.59255692  0.90960730  0.09789443  1
  Te  Te142  1  0.57394674  0.90918729  0.42514617  1
  Te  Te143  1  0.60113620  0.91309835  0.76763813  1
  Te  Te144  1  0.89498379  0.27179306  0.09959669  1
  Te  Te145  1  0.90982779  0.23644423  0.44076012  1
  Te  Te146  1  0.92173671  0.24960826  0.76309554  1
  Te  Te147  1  0.93254562  0.60275475  0.08692244  1
  Te  Te148  1  0.92056021  0.59814257  0.42110514  1
  Te  Te149  1  0.90266269  0.58901329  0.76714214  1
  Te  Te150  1  0.93362954  0.92456530  0.07430576  1
  Te  Te151  1  0.91302032  0.95219100  0.41061495  1
  Te  Te152  1  0.93633502  0.93762336  0.77086019  1
  Te  Te153  1  0.23786549  0.06178759  0.24250516  1
  Te  Te154  1  0.22395600  0.09132031  0.59066924  1
  Te  Te155  1  0.29748014  0.11144177  0.85867146  1
  Te  Te156  1  0.25557417  0.41574549  0.24098474  1
  Te  Te157  1  0.25937746  0.38005496  0.59608076  1
  Te  Te158  1  0.24446174  0.39954996  0.88673339  1
  Te  Te159  1  0.24534530  0.76776837  0.22957775  1
  Te  Te160  1  0.24794988  0.77793103  0.58735602  1
  Te  Te161  1  0.24130883  0.76732253  0.90826622  1
  Te  Te162  1  0.58410232  0.08205121  0.25040259  1
  Te  Te163  1  0.57075781  0.09207507  0.61187620  1
  Te  Te164  1  0.56287015  0.10273067  0.92654151  1
  Te  Te165  1  0.57896121  0.39988428  0.24891088  1
  Te  Te166  1  0.59322546  0.40289266  0.59619899  1
  Te  Te167  1  0.58510745  0.42984443  0.86800475  1
  Te  Te168  1  0.60445225  0.74277761  0.23349369  1
  Te  Te169  1  0.60162270  0.75664409  0.57616446  1
  Te  Te170  1  0.59128952  0.73860569  0.89566415  1
  Te  Te171  1  0.90710724  0.07327973  0.26748785  1
  Te  Te172  1  0.91370836  0.07370451  0.62264944  1
  Te  Te173  1  0.91571811  0.10347926  0.93529128  1
  Te  Te174  1  0.92383596  0.42915149  0.25892150  1
  Te  Te175  1  0.91379191  0.40439879  0.57003021  1
  Te  Te176  1  0.91403962  0.40968531  0.93104540  1
  Te  Te177  1  0.91823322  0.75550184  0.25619414  1
  Te  Te178  1  0.92337223  0.74642913  0.60387347  1
  Te  Te179  1  0.94304750  0.82623263  0.88331816  1
