# generated using pymatgen
data_In2Te3
_symmetry_space_group_name_H-M   'P 1'
_cell_length_a   18.77205706
_cell_length_b   18.76511594
_cell_length_c   18.76341604
_cell_angle_alpha   90.00516422
_cell_angle_beta   89.98804544
_cell_angle_gamma   90.01250137
_symmetry_Int_Tables_number   1
_chemical_formula_structural   In2Te3
_chemical_formula_sum   'In72 Te108'
_cell_volume   6609.59736438
_cell_formula_units_Z   36
loop_
 _symmetry_equiv_pos_site_id
 _symmetry_equiv_pos_as_xyz
  1  'x, y, z'
loop_
 _atom_site_type_symbol
 _atom_site_label
 _atom_site_symmetry_multiplicity
 _atom_site_fract_x
 _atom_site_fract_y
 _atom_site_fract_z
 _atom_site_occupancy
  In  In0  1  0.65805415  -0.00147976  0.33309590  1
  In  In1  1  0.65733572  0.67780977  0.67575907  1
  In  In2  1  0.15804809  0.83121920  -0.00078837  1
  In  In3  1  0.33941772  0.67126289  0.33669295  1
  In  In4  1  0.15969010  0.67027222  0.13796949  1
  In  In5  1  0.18000976  0.17507244  0.67030979  1
  In  In6  1  0.85865463  0.13682598  0.31877566  1
  In  In7  1  0.01111566  0.48783305  0.50396149  1
  In  In8  1  0.63515642  0.15316152  0.50339921  1
  In  In9  1  0.63651861  0.33541016  0.68524204  1
  In  In10  1  0.82464280  0.68170241  0.82373250  1
  In  In11  1  0.33581980  0.17000098  0.18114920  1
  In  In12  1  0.83532576  0.82169799  0.01344561  1
  In  In13  1  0.00170989  0.14132987  0.15780467  1
  In  In14  1  -0.00387095  0.52931122  0.14883669  1
  In  In15  1  0.34374150  0.63617842  0.00165061  1
  In  In16  1  0.00534183  0.32958146  -0.03001712  1
  In  In17  1  -0.00478037  0.67709273  0.69159037  1
  In  In18  1  0.16416264  0.67959035  0.49126760  1
  In  In19  1  0.81140035  0.34192019  0.17476099  1
  In  In20  1  0.49108142  0.32243188  0.15573669  1
  In  In21  1  0.00704697  0.68821578  0.00009662  1
  In  In22  1  0.02789702  0.16658976  0.82402629  1
  In  In23  1  0.47674486  0.34839917  0.80445568  1
  In  In24  1  0.33808652  0.13310753  0.81031150  1
  In  In25  1  0.80426445  0.15558230  0.69136147  1
  In  In26  1  0.46969521  -0.00316543  0.49825274  1
  In  In27  1  0.31173236  0.83699481  0.49948168  1
  In  In28  1  0.49778672  0.83253281  0.35150628  1
  In  In29  1  0.33608334  0.84845501  0.16535207  1
  In  In30  1  0.82179489  0.83305862  0.32292097  1
  In  In31  1  0.20198229  0.49603272  0.32020930  1
  In  In32  1  0.16888539  0.00959900  0.48780777  1
  In  In33  1  0.51816529  0.65733852  0.17651475  1
  In  In34  1  0.82445765  0.15418238  0.02893351  1
  In  In35  1  0.32345262  -0.02126330  -0.01223486  1
  In  In36  1  0.17669676  0.50146666  -0.00929746  1
  In  In37  1  0.66279930  0.50935276  0.15171876  1
  In  In38  1  0.47839577  0.46651378  0.35955224  1
  In  In39  1  0.65506115  0.34169387  0.01706103  1
  In  In40  1  0.66626398  0.66280379  0.33023081  1
  In  In41  1  0.79796417  0.51534829  0.31921870  1
  In  In42  1  0.83099219  -0.00330405  0.83540065  1
  In  In43  1  0.18664196  0.14759652  0.34913610  1
  In  In44  1  0.80302531  -0.03183605  0.52475679  1
  In  In45  1  0.19332462  0.48143037  0.66150958  1
  In  In46  1  0.51764215  0.83851437  0.66290702  1
  In  In47  1  0.84104138  0.33976380  0.84212039  1
  In  In48  1  0.65853728  0.31548580  0.35070848  1
  In  In49  1  0.34711998  0.64785415  0.64577653  1
  In  In50  1  0.02673431  0.34370549  0.66369230  1
  In  In51  1  0.51412829  0.00065777  0.17090328  1
  In  In52  1  0.67721867  0.14818241  0.82200190  1
  In  In53  1  0.66846712  0.51403742  0.83647124  1
  In  In54  1  0.35100069  0.18858735  0.50787373  1
  In  In55  1  -0.00250738  0.00353718  0.66287325  1
  In  In56  1  0.16548019  0.67589955  0.82269390  1
  In  In57  1  -0.01091611  0.68866978  0.33396907  1
  In  In58  1  0.02626646  0.14923099  0.51167437  1
  In  In59  1  0.33248695  0.35565720  0.01204820  1
  In  In60  1  0.49999515  0.82788746  -0.02839276  1
  In  In61  1  0.01885956  0.35033647  0.33862019  1
  In  In62  1  0.00538372  -0.00960584  -0.00731938  1
  In  In63  1  0.18293863  0.33152230  0.17620218  1
  In  In64  1  0.85017060  0.33084081  0.52091916  1
  In  In65  1  0.82044956  0.66774135  0.49951576  1
  In  In66  1  0.64564127  0.50405072  0.51817287  1
  In  In67  1  -0.00406585  0.83073733  0.49998818  1
  In  In68  1  0.67155594  0.00529741  0.00407990  1
  In  In69  1  0.49602772  0.65665503  0.84112020  1
  In  In70  1  0.50879146  0.17251613  -0.00629612  1
  In  In71  1  0.30480149  0.85296177  0.80716784  1
  Te  Te72  1  0.09387672  0.09157140  0.05486534  1
  Te  Te73  1  0.05870814  0.06318417  0.39082723  1
  Te  Te74  1  0.11102060  0.05586803  0.75492963  1
  Te  Te75  1  0.08313448  0.41672734  0.09037564  1
  Te  Te76  1  0.12248666  0.41678581  0.42855276  1
  Te  Te77  1  0.10037201  0.42421840  0.76203447  1
  Te  Te78  1  0.06120378  0.78360846  0.11015683  1
  Te  Te79  1  0.10412371  0.78518958  0.39093285  1
  Te  Te80  1  0.08649918  0.77831374  0.75180037  1
  Te  Te81  1  0.41749800  0.07472334  0.07317472  1
  Te  Te82  1  0.40534481  0.09254798  0.40674066  1
  Te  Te83  1  0.44633409  0.08647147  0.72358417  1
  Te  Te84  1  0.44009944  0.43455622  0.07636936  1
  Te  Te85  1  0.37912998  0.41245459  0.45894850  1
  Te  Te86  1  0.40803193  0.43607041  0.70005353  1
  Te  Te87  1  0.41923069  0.74804846  0.08502873  1
  Te  Te88  1  0.42012591  0.74104813  0.44637503  1
  Te  Te89  1  0.41141012  0.74953490  0.75061789  1
  Te  Te90  1  0.74095402  0.07106700  0.11810432  1
  Te  Te91  1  0.75492684  0.08809221  0.42740335  1
  Te  Te92  1  0.71103355  0.03355548  0.71836127  1
  Te  Te93  1  0.76583912  0.43626186  0.06355008  1
  Te  Te94  1  0.75376884  0.41588915  0.43028102  1
  Te  Te95  1  0.74926790  0.41818443  0.74751413  1
  Te  Te96  1  0.75999738  0.71729898  0.08691878  1
  Te  Te97  1  0.73038674  0.76396033  0.42648553  1
  Te  Te98  1  0.74834669  0.78210788  0.73682158  1
  Te  Te99  1  0.08284852  0.24168333  0.25184251  1
  Te  Te100  1  0.11012061  0.26310711  0.56400910  1
  Te  Te101  1  0.11393781  0.25712834  0.90271414  1
  Te  Te102  1  0.08792347  0.58544727  0.26190776  1
  Te  Te103  1  0.08785801  0.58847807  0.59121912  1
  Te  Te104  1  0.07827291  0.58624467  0.91041146  1
  Te  Te105  1  0.12192007  0.91477718  0.31252096  1
  Te  Te106  1  0.09354683  0.91394842  0.58205205  1
  Te  Te107  1  0.08057239  0.90520618  0.89736355  1
  Te  Te108  1  0.41901024  0.25772436  0.26713990  1
  Te  Te109  1  0.42256744  0.29438527  0.59095951  1
  Te  Te110  1  0.41221951  0.25729672  0.91505931  1
  Te  Te111  1  0.42168149  0.57062327  0.25674021  1
  Te  Te112  1  0.42733703  0.53914306  0.58429847  1
  Te  Te113  1  0.41048556  0.55103004  0.90228057  1
  Te  Te114  1  0.41567647  0.92957331  0.26681097  1
  Te  Te115  1  0.39607211  0.91202607  0.60222223  1
  Te  Te116  1  0.42009579  0.92279435  0.88310115  1
  Te  Te117  1  0.75148259  0.23184233  0.26074529  1
  Te  Te118  1  0.73554347  0.25109690  0.58579811  1
  Te  Te119  1  0.74041697  0.24764850  0.92231757  1
  Te  Te120  1  0.76563742  0.62721228  0.21779730  1
  Te  Te121  1  0.75138536  0.57677563  0.59976777  1
  Te  Te122  1  0.73430426  0.61508028  0.92418156  1
  Te  Te123  1  0.73768517  0.91997440  0.23604198  1
  Te  Te124  1  0.72093744  0.88750863  0.61943490  1
  Te  Te125  1  0.74370007  0.90296478  0.91745538  1
  Te  Te126  1  0.25121590  0.24104702  0.07452278  1
  Te  Te127  1  0.25818788  0.25908503  0.41216563  1
  Te  Te128  1  0.26962475  0.25394496  0.75626176  1
  Te  Te129  1  0.26075250  0.56055522  0.10536033  1
  Te  Te130  1  0.26411348  0.57911935  0.43484871  1
  Te  Te131  1  0.26407464  0.58037893  0.75757858  1
  Te  Te132  1  0.22599694  0.92806665  0.09705560  1
  Te  Te133  1  0.25609229  0.92697275  0.39106843  1
  Te  Te134  1  0.24295503  0.96761578  0.74160446  1
  Te  Te135  1  0.59968033  0.22853851  0.10317511  1
  Te  Te136  1  0.55018383  0.24627264  0.42375290  1
  Te  Te137  1  0.55940633  0.22339516  0.75525249  1
  Te  Te138  1  0.58005044  0.59007431  0.06042139  1
  Te  Te139  1  0.56695874  0.58235920  0.41351587  1
  Te  Te140  1  0.56814954  0.56894986  0.73580924  1
  Te  Te141  1  0.58352820  0.90108386  0.07783836  1
  Te  Te142  1  0.58787056  0.91629899  0.44197654  1
  Te  Te143  1  0.60590559  0.92013436  0.74908550  1
  Te  Te144  1  0.91537773  0.26254905  0.09026440  1
  Te  Te145  1  0.92458617  0.25221786  0.41204167  1
  Te  Te146  1  0.92361632  0.24940848  0.73844829  1
  Te  Te147  1  0.89928581  0.60968169  0.07028979  1
  Te  Te148  1  0.91833939  0.57731313  0.41907181  1
  Te  Te149  1  0.91278095  0.57851516  0.76272877  1
  Te  Te150  1  0.90108598  0.93730947  0.08385929  1
  Te  Te151  1  0.90416246  0.92233168  0.41987899  1
  Te  Te152  1  0.91623691  0.91445623  0.74789307  1
  Te  Te153  1  0.23800945  0.07118312  0.23335043  1
  Te  Te154  1  0.26436596  0.08224721  0.58353575  1
  Te  Te155  1  0.24595487  0.07945359  0.91309773  1
  Te  Te156  1  0.29040145  0.39810331  0.25310864  1
  Te  Te157  1  0.29196926  0.39065911  0.58925962  1
  Te  Te158  1  0.25487891  0.41578506  0.89992562  1
  Te  Te159  1  0.24895568  0.74620706  0.23997337  1
  Te  Te160  1  0.23894641  0.75102130  0.60360947  1
  Te  Te161  1  0.26602929  0.74819462  0.92665638  1
  Te  Te162  1  0.56567426  0.09604392  0.27119674  1
  Te  Te163  1  0.54593959  0.08166946  0.60134986  1
  Te  Te164  1  0.57403702  0.06762400  0.90496660  1
  Te  Te165  1  0.59386962  0.42195578  0.25666653  1
  Te  Te166  1  0.56597060  0.38371472  0.56128926  1
  Te  Te167  1  0.57756814  0.41041078  0.90626106  1
  Te  Te168  1  0.59126441  0.76999102  0.24798825  1
  Te  Te169  1  0.56898692  0.73430424  0.57071104  1
  Te  Te170  1  0.60064254  0.74141249  0.90549358  1
  Te  Te171  1  0.92376889  0.03607312  0.22934012  1
  Te  Te172  1  0.90141604  0.09297491  0.58003303  1
  Te  Te173  1  0.90879006  0.10738952  0.90925333  1
  Te  Te174  1  0.91856546  0.42863876  0.25171293  1
  Te  Te175  1  0.91488526  0.43644723  0.61044361  1
  Te  Te176  1  0.91995452  0.43806974  0.91851949  1
  Te  Te177  1  0.92564970  0.77391549  0.23249326  1
  Te  Te178  1  0.90307476  0.75491574  0.59368987  1
  Te  Te179  1  0.92608970  0.77018410  0.90115442  1
