# generated using pymatgen
data_In2Te3
_symmetry_space_group_name_H-M   'P 1'
_cell_length_a   18.83095527
_cell_length_b   18.82237922
_cell_length_c   18.81697336
_cell_angle_alpha   89.98048985
_cell_angle_beta   89.96857593
_cell_angle_gamma   89.97880815
_symmetry_Int_Tables_number   1
_chemical_formula_structural   In2Te3
_chemical_formula_sum   'In72 Te108'
_cell_volume   6669.54981828
_cell_formula_units_Z   36
loop_
 _symmetry_equiv_pos_site_id
 _symmetry_equiv_pos_as_xyz
  1  'x, y, z'
loop_
 _atom_site_type_symbol
 _atom_site_label
 _atom_site_symmetry_multiplicity
 _atom_site_fract_x
 _atom_site_fract_y
 _atom_site_fract_z
 _atom_site_occupancy
  In  In0  1  0.67958323  -0.04438874  0.28400491  1
  In  In1  1  0.15787646  -0.01844239  0.84082004  1
  In  In2  1  0.01483243  0.49331424  0.84589603  1
  In  In3  1  0.14933364  0.84552236  0.02901414  1
  In  In4  1  0.31599061  0.49515842  0.16522918  1
  In  In5  1  0.66163386  -0.00639223  0.66703718  1
  In  In6  1  0.32907589  0.16943231  0.49892469  1
  In  In7  1  0.65727128  0.31643989  0.01984391  1
  In  In8  1  -0.00013435  -0.00072879  0.64722275  1
  In  In9  1  0.50225339  0.49353456  0.68391551  1
  In  In10  1  0.47566994  0.36753551  0.50548880  1
  In  In11  1  0.83585728  0.33891831  0.82293114  1
  In  In12  1  0.84374406  0.67732015  0.46016600  1
  In  In13  1  0.84862629  0.15795509  0.01586385  1
  In  In14  1  0.00345444  0.34352791  0.31837176  1
  In  In15  1  -0.01771452  0.83577794  0.17113539  1
  In  In16  1  0.15113684  0.48824682  0.67739415  1
  In  In17  1  0.67796593  0.49285891  0.82966996  1
  In  In18  1  0.31803144  0.33784699  0.68327510  1
  In  In19  1  0.14526879  0.31330478  0.49914781  1
  In  In20  1  0.16503077  0.65696936  0.84688763  1
  In  In21  1  0.84546842  0.17186352  0.30987055  1
  In  In22  1  0.14337187  0.83345371  0.63683100  1
  In  In23  1  0.33094035  0.85481220  0.83963202  1
  In  In24  1  0.48224813  0.29376412  0.87499899  1
  In  In25  1  0.48105898  0.33347206  0.14632357  1
  In  In26  1  0.16922119  0.33493761  0.88916463  1
  In  In27  1  0.32208680  0.01104685  0.00596949  1
  In  In28  1  0.50493830  0.51481073  0.34656452  1
  In  In29  1  -0.00810625  0.49425741  0.50363663  1
  In  In30  1  0.85959693  0.01268917  0.85184917  1
  In  In31  1  0.17104621  0.69808206  0.47446016  1
  In  In32  1  0.68130783  0.68252394  0.01578645  1
  In  In33  1  0.14063326  0.14044861  0.35088572  1
  In  In34  1  0.14742261  0.84632444  0.29789065  1
  In  In35  1  0.65091402  0.16025368  0.83034118  1
  In  In36  1  0.66798705  0.63427211  0.64928930  1
  In  In37  1  0.32427590  0.82975824  0.15987770  1
  In  In38  1  0.16811687  0.33970604  0.12289586  1
  In  In39  1  0.88070810  0.51778268  0.03580250  1
  In  In40  1  0.85523680  0.18933331  0.66696540  1
  In  In41  1  0.49847648  0.51714241  0.01060658  1
  In  In42  1  0.83053433  0.34525444  0.18953925  1
  In  In43  1  0.48620752  0.18774676  0.30453095  1
  In  In44  1  0.85049746  0.67077845  0.84867552  1
  In  In45  1  0.31038419  0.85507460  0.46514866  1
  In  In46  1  0.69131330  0.16076912  0.47397182  1
  In  In47  1  0.68678699  0.80174402  0.48626131  1
  In  In48  1  0.67696175  0.79616570  0.86413604  1
  In  In49  1  0.48526836  -0.00366416  0.16866004  1
  In  In50  1  0.68252455  0.50493768  0.47441370  1
  In  In51  1  0.47149251  0.82958205  0.66380968  1
  In  In52  1  0.87667684  -0.02091226  0.45082295  1
  In  In53  1  0.52490069  0.82259329  0.29636832  1
  In  In54  1  0.33623947  0.03369629  0.66206588  1
  In  In55  1  0.33555556  0.68687004  0.32424450  1
  In  In56  1  0.49423675  0.15628659  0.71016595  1
  In  In57  1  0.32132870  0.52360984  0.47746389  1
  In  In58  1  0.33816831  0.65904528  0.01966278  1
  In  In59  1  0.67412329  -0.00653786  0.03074301  1
  In  In60  1  0.49650949  -0.00212744  0.85103601  1
  In  In61  1  0.51001038  0.02389304  0.47163659  1
  In  In62  1  -0.00997082  0.66211755  0.66049848  1
  In  In63  1  0.84453125  0.80980418  0.01073595  1
  In  In64  1  0.84402385  0.33068672  0.49981962  1
  In  In65  1  0.00514775  0.15569352  0.15441250  1
  In  In66  1  0.29060673  0.65622527  0.70499849  1
  In  In67  1  0.83528251  0.84602519  0.66251735  1
  In  In68  1  0.67050808  0.33179570  0.34507509  1
  In  In69  1  0.50006081  0.62781735  0.49219453  1
  In  In70  1  0.16828254  0.18094665  0.66531778  1
  In  In71  1  0.70034612  0.51336894  0.19108483  1
  Te  Te72  1  0.11061272  0.11004964  0.05871027  1
  Te  Te73  1  0.07761072  0.06264201  0.45839377  1
  Te  Te74  1  0.08478768  0.07842261  0.74503807  1
  Te  Te75  1  0.07568478  0.44335556  0.06051326  1
  Te  Te76  1  0.09353094  0.42586501  0.41043920  1
  Te  Te77  1  0.08385170  0.38549916  0.76371390  1
  Te  Te78  1  0.06991427  0.73865421  0.09641658  1
  Te  Te79  1  0.06224830  0.76337469  0.39389957  1
  Te  Te80  1  0.08385985  0.74639465  0.74679794  1
  Te  Te81  1  0.40848706  0.09928706  0.09131507  1
  Te  Te82  1  0.40156567  0.08909853  0.38997598  1
  Te  Te83  1  0.38747304  0.08935611  0.79472355  1
  Te  Te84  1  0.39178491  0.41743723  0.05454853  1
  Te  Te85  1  0.39227374  0.41772511  0.39114131  1
  Te  Te86  1  0.42294158  0.39999642  0.77358761  1
  Te  Te87  1  0.42801207  0.74165638  0.10345264  1
  Te  Te88  1  0.42250966  0.74776453  0.43384053  1
  Te  Te89  1  0.40506647  0.74148090  0.76795644  1
  Te  Te90  1  0.76609874  0.07800678  0.11256214  1
  Te  Te91  1  0.75678829  0.05649324  0.38297969  1
  Te  Te92  1  0.75630918  0.07943705  0.75098667  1
  Te  Te93  1  0.75519245  0.42132550  0.07387430  1
  Te  Te94  1  0.78220513  0.42281972  0.39408866  1
  Te  Te95  1  0.75622934  0.41998428  0.72937206  1
  Te  Te96  1  0.72845716  0.79290742  0.10858003  1
  Te  Te97  1  0.78841665  0.79091325  0.37778038  1
  Te  Te98  1  0.75302148  0.74039182  0.73670950  1
  Te  Te99  1  0.09471317  0.25275758  0.23641501  1
  Te  Te100  1  0.05534074  0.24519261  0.59279065  1
  Te  Te101  1  0.09016783  0.23920338  0.97466997  1
  Te  Te102  1  0.04177409  0.52208555  0.17910249  1
  Te  Te103  1  0.10605413  0.59859351  0.58049832  1
  Te  Te104  1  0.08631700  0.57683454  0.94636605  1
  Te  Te105  1  0.05800656  0.95033154  0.23454283  1
  Te  Te106  1  0.07816763  0.92630619  0.53814451  1
  Te  Te107  1  0.06267702  0.90470855  0.92387711  1
  Te  Te108  1  0.38316309  0.26018283  0.22929800  1
  Te  Te109  1  0.41631721  0.25103900  0.59616486  1
  Te  Te110  1  0.39503220  0.22425290  0.97196034  1
  Te  Te111  1  0.41830954  0.58683647  0.24497271  1
  Te  Te112  1  0.40015095  0.57574055  0.60337196  1
  Te  Te113  1  0.41453681  0.58888624  0.91304545  1
  Te  Te114  1  0.40566341  0.90782585  0.26572352  1
  Te  Te115  1  0.41681831  0.93836773  0.56959325  1
  Te  Te116  1  0.42208039  0.90817046  0.94920657  1
  Te  Te117  1  0.72952706  0.24042081  0.23811279  1
  Te  Te118  1  0.74205603  0.25266336  0.58442786  1
  Te  Te119  1  0.74845087  0.23952246  0.92051695  1
  Te  Te120  1  0.79392110  0.60858800  0.25138909  1
  Te  Te121  1  0.78022543  0.57857785  0.56611623  1
  Te  Te122  1  0.76063970  0.57827625  0.92955651  1
  Te  Te123  1  0.79243749  0.92052911  0.19045941  1
  Te  Te124  1  0.74976806  0.92556921  0.56324431  1
  Te  Te125  1  0.75184314  0.91775281  0.91341464  1
  Te  Te126  1  0.25477614  0.25170696  0.03615170  1
  Te  Te127  1  0.24382084  0.24976615  0.40389536  1
  Te  Te128  1  0.24586884  0.24718758  0.77876034  1
  Te  Te129  1  0.22853821  0.58537456  0.08568432  1
  Te  Te130  1  0.22616264  0.58958484  0.38069354  1
  Te  Te131  1  0.25168305  0.53129136  0.79417683  1
  Te  Te132  1  0.23333489  0.94251968  0.11024629  1
  Te  Te133  1  0.23510941  0.94682599  0.37199895  1
  Te  Te134  1  0.24855377  0.91575237  0.72448234  1
  Te  Te135  1  0.57730515  0.22837878  0.10495116  1
  Te  Te136  1  0.56695081  0.25628540  0.42717795  1
  Te  Te137  1  0.58348466  0.27065558  0.75288648  1
  Te  Te138  1  0.59756413  0.58624657  0.10277940  1
  Te  Te139  1  0.61992315  0.61998125  0.39023061  1
  Te  Te140  1  0.57975467  0.59500160  0.76782737  1
  Te  Te141  1  0.58014870  0.90185581  0.10068566  1
  Te  Te142  1  0.58891083  0.90546176  0.41741769  1
  Te  Te143  1  0.57432107  0.90530498  0.75582309  1
  Te  Te144  1  0.92057495  0.26973966  0.09416487  1
  Te  Te145  1  0.93292863  0.24296746  0.41087176  1
  Te  Te146  1  0.93299386  0.23382784  0.78292088  1
  Te  Te147  1  0.92828500  0.64108293  0.10715823  1
  Te  Te148  1  0.95769278  0.59878061  0.40604592  1
  Te  Te149  1  0.91513216  0.56931766  0.75469031  1
  Te  Te150  1  0.90518662  0.93130354  0.07870374  1
  Te  Te151  1  0.94722693  0.87252481  0.37839408  1
  Te  Te152  1  0.93164153  0.91460324  0.75635500  1
  Te  Te153  1  0.23631590  0.06680857  0.26937974  1
  Te  Te154  1  0.22643492  0.07652710  0.56407722  1
  Te  Te155  1  0.21773258  0.08698327  0.92796272  1
  Te  Te156  1  0.23191271  0.40129824  0.24312355  1
  Te  Te157  1  0.24960462  0.41889642  0.57317811  1
  Te  Te158  1  0.26467707  0.44216765  0.91894031  1
  Te  Te159  1  0.22630797  0.73456733  0.22943401  1
  Te  Te160  1  0.27000847  0.75445349  0.58263950  1
  Te  Te161  1  0.24263798  0.76573414  0.92686165  1
  Te  Te162  1  0.58028299  0.07215655  0.26273423  1
  Te  Te163  1  0.58028959  0.09693172  0.58963737  1
  Te  Te164  1  0.58247540  0.08430636  0.94168383  1
  Te  Te165  1  0.58528617  0.41887824  0.25217760  1
  Te  Te166  1  0.59406299  0.43016762  0.57610906  1
  Te  Te167  1  0.58280256  0.41087944  0.92359322  1
  Te  Te168  1  0.61254087  0.71157348  0.26487437  1
  Te  Te169  1  0.57954160  0.74704444  0.59027227  1
  Te  Te170  1  0.56604302  0.73802486  0.93780263  1
  Te  Te171  1  0.94366726  0.07002652  0.26124303  1
  Te  Te172  1  0.89392058  0.07811370  0.57086857  1
  Te  Te173  1  0.95201823  0.10018794  0.92553681  1
  Te  Te174  1  0.92010007  0.45228495  0.24916028  1
  Te  Te175  1  0.93322811  0.39814267  0.59762677  1
  Te  Te176  1  0.91671988  0.41059405  0.92970854  1
  Te  Te177  1  0.90283674  0.72016145  0.23626742  1
  Te  Te178  1  0.92070890  0.76179531  0.57024804  1
  Te  Te179  1  0.94726669  0.75801180  0.91607935  1
