# generated using pymatgen
data_In2Te3
_symmetry_space_group_name_H-M   'P 1'
_cell_length_a   18.97956401
_cell_length_b   19.00859390
_cell_length_c   18.97186414
_cell_angle_alpha   90.13705673
_cell_angle_beta   90.11582134
_cell_angle_gamma   89.91162269
_symmetry_Int_Tables_number   1
_chemical_formula_structural   In2Te3
_chemical_formula_sum   'In72 Te108'
_cell_volume   6844.52929710
_cell_formula_units_Z   36
loop_
 _symmetry_equiv_pos_site_id
 _symmetry_equiv_pos_as_xyz
  1  'x, y, z'
loop_
 _atom_site_type_symbol
 _atom_site_label
 _atom_site_symmetry_multiplicity
 _atom_site_fract_x
 _atom_site_fract_y
 _atom_site_fract_z
 _atom_site_occupancy
  In  In0  1  0.36001445  0.64645028  0.67909935  1
  In  In1  1  0.83870513  0.66117980  0.84151117  1
  In  In2  1  0.17450709  0.13775832  0.32642963  1
  In  In3  1  0.33767056  0.69233832  0.31084646  1
  In  In4  1  0.81599472  0.32694069  0.52907446  1
  In  In5  1  0.49362153  0.32255155  0.50000104  1
  In  In6  1  -0.01158956  -0.00931919  -0.00560163  1
  In  In7  1  0.18227941  0.69357242  0.84862221  1
  In  In8  1  0.65893075  0.48101252  0.51796692  1
  In  In9  1  0.32116806  0.35823429  -0.00249537  1
  In  In10  1  0.48944738  0.32327817  0.83093318  1
  In  In11  1  0.34636938  0.13525986  0.50100011  1
  In  In12  1  0.48647367  0.52088272  0.01800780  1
  In  In13  1  0.48794585  0.86850220  -0.02192139  1
  In  In14  1  0.50382316  0.00503783  0.18295774  1
  In  In15  1  0.83157957  0.49434855  0.71627553  1
  In  In16  1  0.64400694  0.85969923  0.47785010  1
  In  In17  1  0.34377337  0.85427219  0.50863291  1
  In  In18  1  0.01302400  0.48232088  0.47196277  1
  In  In19  1  0.16679655  0.00795582  0.15506501  1
  In  In20  1  0.01010917  0.01800457  0.68629484  1
  In  In21  1  0.80082001  -0.01432564  0.47813636  1
  In  In22  1  0.14993365  0.01810506  0.48917169  1
  In  In23  1  0.50166216  0.68623256  0.85083748  1
  In  In24  1  0.15637207  0.83918733  0.03810082  1
  In  In25  1  0.66302811  0.49576764  0.16996406  1
  In  In26  1  0.17063826  0.19859094  -0.02395264  1
  In  In27  1  0.01544735  0.82250484  0.84634174  1
  In  In28  1  0.50805250  0.50024334  0.34765253  1
  In  In29  1  -0.01133747  0.82475684  0.49094900  1
  In  In30  1  0.03309105  0.32252658  0.34692829  1
  In  In31  1  0.83709612  0.81205273  0.01011239  1
  In  In32  1  -0.01021726  0.32944446  0.65821095  1
  In  In33  1  0.64668055  0.67229224  0.67756292  1
  In  In34  1  -0.02336833  0.16929641  0.15841651  1
  In  In35  1  0.83157395  0.16211087  0.34284205  1
  In  In36  1  0.18966435  0.50274079  0.00496007  1
  In  In37  1  0.83942421  0.82004424  0.31150915  1
  In  In38  1  0.33248588  0.00218032  0.30599683  1
  In  In39  1  0.65508952  0.87140863  0.83655820  1
  In  In40  1  0.18077634  0.84147782  0.28776511  1
  In  In41  1  0.86138044  0.65352400  0.16525453  1
  In  In42  1  0.17993572  0.48540128  0.64320840  1
  In  In43  1  0.63420643  0.29822775  0.00079414  1
  In  In44  1  0.32565715  0.17126723  0.84724773  1
  In  In45  1  0.34667594  0.00905562  0.67551450  1
  In  In46  1  0.32297786  0.49311191  0.19252845  1
  In  In47  1  0.81233194  0.16716895  0.66006659  1
  In  In48  1  0.64496086  0.29880511  0.35069632  1
  In  In49  1  0.80035479  -0.01971406  0.15108693  1
  In  In50  1  0.86223557  0.49431258  0.35980045  1
  In  In51  1  0.83193390  0.63120526  0.47834786  1
  In  In52  1  0.34287368  0.50341616  0.51207890  1
  In  In53  1  0.82703494  0.17067952  0.00258533  1
  In  In54  1  0.43552065  0.25962943  0.15636842  1
  In  In55  1  0.66983429  0.68582620  0.31270330  1
  In  In56  1  0.62146728  0.03338454  0.67083277  1
  In  In57  1  0.48311411  0.68152819  0.48733595  1
  In  In58  1  0.50176446  0.71006529  0.15351127  1
  In  In59  1  0.83495685  0.33148385  0.15953725  1
  In  In60  1  0.34917827  0.48865169  0.83075525  1
  In  In61  1  0.85335324  0.49883101  -0.00892899  1
  In  In62  1  0.07292826  0.48079789  0.18261040  1
  In  In63  1  0.01831036  0.51192454  0.84760327  1
  In  In64  1  0.64023159  0.04034191  -0.02083752  1
  In  In65  1  0.17005939  0.67107550  0.48906098  1
  In  In66  1  0.67769251  0.48183490  0.83481219  1
  In  In67  1  0.19216979  0.85057907  0.67073651  1
  In  In68  1  0.84461210  -0.00909386  0.81355214  1
  In  In69  1  -0.00072588  0.16068890  0.52698792  1
  In  In70  1  0.82588929  0.81559785  0.63443884  1
  In  In71  1  0.15830919  0.19577103  0.70592958  1
  Te  Te72  1  0.07381939  0.09651658  0.06448705  1
  Te  Te73  1  0.04943053  0.08966368  0.40299840  1
  Te  Te74  1  0.10661007  0.07544444  0.77932592  1
  Te  Te75  1  0.09592929  0.40133746  0.06017107  1
  Te  Te76  1  0.12966541  0.41536552  0.41022173  1
  Te  Te77  1  0.07846042  0.42364145  0.73662733  1
  Te  Te78  1  0.05426744  0.78016358  0.12419847  1
  Te  Te79  1  0.10079599  0.77326827  0.40400972  1
  Te  Te80  1  0.09603040  0.75305420  0.73736334  1
  Te  Te81  1  0.44901781  0.11726470  0.10235638  1
  Te  Te82  1  0.42865575  0.04642910  0.41215976  1
  Te  Te83  1  0.43110002  0.09951012  0.76481703  1
  Te  Te84  1  0.42475916  0.41498159  0.10826603  1
  Te  Te85  1  0.40534981  0.41007835  0.40652187  1
  Te  Te86  1  0.42778397  0.41392039  0.73395165  1
  Te  Te87  1  0.41412432  0.75985836  0.04702394  1
  Te  Te88  1  0.42246336  0.78503154  0.39653876  1
  Te  Te89  1  0.40882986  0.76159917  0.76070190  1
  Te  Te90  1  0.72795365  0.09759918  0.08980214  1
  Te  Te91  1  0.72218104  0.09078548  0.41261462  1
  Te  Te92  1  0.73625417  0.08172551  0.75990044  1
  Te  Te93  1  0.74030676  0.41023558  0.07093936  1
  Te  Te94  1  0.74206512  0.40828463  0.41170918  1
  Te  Te95  1  0.73489098  0.38815247  0.73685583  1
  Te  Te96  1  0.75720558  0.73751288  0.10617507  1
  Te  Te97  1  0.75453695  0.75650712  0.42856187  1
  Te  Te98  1  0.74883285  0.75522405  0.75782994  1
  Te  Te99  1  0.08831790  0.23238424  0.23997521  1
  Te  Te100  1  0.09719657  0.26147215  0.57566766  1
  Te  Te101  1  0.10430838  0.23047670  0.84701780  1
  Te  Te102  1  0.08420318  0.57577581  0.29169234  1
  Te  Te103  1  0.08443491  0.57770437  0.56935363  1
  Te  Te104  1  0.09740103  0.60413192  0.93792182  1
  Te  Te105  1  0.08183943  0.94277379  0.25373327  1
  Te  Te106  1  0.07941248  0.91565147  0.58090463  1
  Te  Te107  1  0.09872103  0.92327546  0.91696878  1
  Te  Te108  1  0.35774299  0.22831526  0.27661473  1
  Te  Te109  1  0.43400809  0.21637136  0.59295727  1
  Te  Te110  1  0.41573257  0.25615839  0.94392313  1
  Te  Te111  1  0.44114433  0.59426729  0.24889586  1
  Te  Te112  1  0.45500988  0.57177029  0.58844190  1
  Te  Te113  1  0.39763144  0.59714956  0.92278219  1
  Te  Te114  1  0.39318512  0.90820147  0.20924859  1
  Te  Te115  1  0.43815298  0.92095713  0.59818794  1
  Te  Te116  1  0.42234671  0.89718349  0.84812506  1
  Te  Te117  1  0.74727807  0.24648151  0.24797811  1
  Te  Te118  1  0.71494275  0.22451020  0.56423093  1
  Te  Te119  1  0.73588180  0.24325268  0.91253659  1
  Te  Te120  1  0.76146278  0.56831129  0.26307397  1
  Te  Te121  1  0.74163059  0.57924862  0.60255301  1
  Te  Te122  1  0.74416262  0.58357799  0.92842564  1
  Te  Te123  1  0.73076305  0.91091788  0.26269954  1
  Te  Te124  1  0.72480934  0.92421765  0.59935955  1
  Te  Te125  1  0.76903418  0.92129170  0.92592078  1
  Te  Te126  1  0.22145710  0.28987621  0.08312902  1
  Te  Te127  1  0.26252717  0.22228988  0.41154725  1
  Te  Te128  1  0.27315820  0.27323628  0.75467504  1
  Te  Te129  1  0.26053644  0.59048572  0.10103247  1
  Te  Te130  1  0.27582253  0.59662927  0.41163344  1
  Te  Te131  1  0.24238393  0.58398587  0.75053200  1
  Te  Te132  1  0.26969970  0.92401456  0.09059763  1
  Te  Te133  1  0.24579308  0.92608730  0.41609033  1
  Te  Te134  1  0.26691122  0.92609164  0.77163451  1
  Te  Te135  1  0.57729703  0.22859005  0.11845355  1
  Te  Te136  1  0.53574891  0.21885218  0.40221995  1
  Te  Te137  1  0.57172682  0.20733033  0.79216019  1
  Te  Te138  1  0.59327398  0.60158976  0.08869953  1
  Te  Te139  1  0.60061063  0.59614987  0.42226342  1
  Te  Te140  1  0.57559635  0.57931991  0.77125700  1
  Te  Te141  1  0.58868493  0.93396405  0.07069810  1
  Te  Te142  1  0.55897955  0.95567938  0.40534675  1
  Te  Te143  1  0.55294242  0.91898591  0.73995150  1
  Te  Te144  1  0.92851669  0.27130672  0.05673004  1
  Te  Te145  1  0.91548187  0.25999509  0.43458873  1
  Te  Te146  1  0.91981311  0.22909412  0.73806731  1
  Te  Te147  1  0.94458837  0.55081572  0.09688298  1
  Te  Te148  1  0.96312315  0.60640927  0.38430701  1
  Te  Te149  1  0.93718415  0.59739058  0.74759339  1
  Te  Te150  1  0.92217715  0.90417346  0.09834827  1
  Te  Te151  1  0.91354225  0.92003422  0.40094030  1
  Te  Te152  1  0.92307122  0.88661734  0.73510477  1
  Te  Te153  1  0.27488897  0.11218999  0.21124779  1
  Te  Te154  1  0.23378304  0.08239953  0.59601074  1
  Te  Te155  1  0.26534284  0.08963137  0.95286994  1
  Te  Te156  1  0.20168380  0.43610257  0.25556107  1
  Te  Te157  1  0.27111681  0.39424403  0.57621386  1
  Te  Te158  1  0.23290635  0.41336710  0.88782259  1
  Te  Te159  1  0.23753913  0.72977448  0.20891032  1
  Te  Te160  1  0.26893024  0.73902460  0.58628511  1
  Te  Te161  1  0.25457153  0.76605219  0.95283952  1
  Te  Te162  1  0.61509712  0.03031041  0.27999163  1
  Te  Te163  1  0.56315730  0.13044065  0.57860868  1
  Te  Te164  1  0.53992104  0.08618368  0.88074906  1
  Te  Te165  1  0.58088523  0.40400222  0.25642414  1
  Te  Te166  1  0.58976248  0.38161048  0.59782448  1
  Te  Te167  1  0.56933866  0.42575368  0.93261143  1
  Te  Te168  1  0.57968157  0.78328244  0.25456762  1
  Te  Te169  1  0.57687987  0.76106716  0.57703940  1
  Te  Te170  1  0.60127743  0.76733921  0.92940146  1
  Te  Te171  1  0.89184119  0.07279626  0.23638234  1
  Te  Te172  1  0.90068911  0.05770154  0.58072316  1
  Te  Te173  1  0.91491188  0.08827955  0.90572380  1
  Te  Te174  1  0.92677192  0.39696115  0.26145659  1
  Te  Te175  1  0.90771533  0.43776956  0.58024400  1
  Te  Te176  1  0.91153042  0.41732066  0.88432776  1
  Te  Te177  1  0.95108858  0.75074040  0.23788234  1
  Te  Te178  1  0.92181954  0.71750123  0.57317862  1
  Te  Te179  1  0.93802384  0.72787583  0.93516999  1
