# generated using pymatgen
data_In2Te3
_symmetry_space_group_name_H-M   'P 1'
_cell_length_a   18.80615593
_cell_length_b   18.81133284
_cell_length_c   18.79370857
_cell_angle_alpha   89.94288153
_cell_angle_beta   89.97990863
_cell_angle_gamma   90.04846088
_symmetry_Int_Tables_number   1
_chemical_formula_structural   In2Te3
_chemical_formula_sum   'In72 Te108'
_cell_volume   6648.62273889
_cell_formula_units_Z   36
loop_
 _symmetry_equiv_pos_site_id
 _symmetry_equiv_pos_as_xyz
  1  'x, y, z'
loop_
 _atom_site_type_symbol
 _atom_site_label
 _atom_site_symmetry_multiplicity
 _atom_site_fract_x
 _atom_site_fract_y
 _atom_site_fract_z
 _atom_site_occupancy
  In  In0  1  0.49790756  0.33291333  0.16149518  1
  In  In1  1  0.66958484  0.18174795  0.82678890  1
  In  In2  1  0.00280694  0.82309152  0.13884891  1
  In  In3  1  0.82951152  0.34177519  0.16671105  1
  In  In4  1  0.35100219  0.48649256  0.51343168  1
  In  In5  1  0.12948397  0.01368691  0.13268222  1
  In  In6  1  0.66640524  0.66002736  0.33132903  1
  In  In7  1  -0.00703694  0.82970895  0.51035023  1
  In  In8  1  0.66993044  0.15261723  0.49142014  1
  In  In9  1  0.14361769  0.82606436  0.68482938  1
  In  In10  1  0.87079399  0.66818613  0.86693453  1
  In  In11  1  0.68824525  0.84606866  0.84679910  1
  In  In12  1  -0.00200340  0.68251381  0.34417682  1
  In  In13  1  0.67272004  0.67263442  0.67533872  1
  In  In14  1  0.31652863  0.87497577  0.15187714  1
  In  In15  1  0.31408303  0.32136192  0.66501405  1
  In  In16  1  0.32454404  0.68967220  -0.00997424  1
  In  In17  1  0.32835599  0.51451245  0.82447921  1
  In  In18  1  -0.00427479  0.32944641  0.66471082  1
  In  In19  1  0.86879914  -0.03766595  0.82704413  1
  In  In20  1  0.66376577  0.18541833  0.16043870  1
  In  In21  1  0.31970260  0.66880665  0.33137132  1
  In  In22  1  0.51406936  0.65625627  0.16729364  1
  In  In23  1  0.67781414  0.34096822  0.01563573  1
  In  In24  1  0.84803346  0.67407692  0.52204164  1
  In  In25  1  0.18241691  0.68399659  0.15186928  1
  In  In26  1  0.32617681  0.13857632  0.15718571  1
  In  In27  1  0.00806119  0.31694544  0.31503224  1
  In  In28  1  0.68616572  0.50724573  0.14861879  1
  In  In29  1  0.15080733  0.52517922  0.69614732  1
  In  In30  1  0.14612817  0.66537844  0.50639093  1
  In  In31  1  0.50684568  0.83677102  0.31305966  1
  In  In32  1  -0.02021181  0.34120140  -0.02449965  1
  In  In33  1  -0.00225708  -0.00144518  0.33036631  1
  In  In34  1  0.85710433  0.15700075  -0.00172068  1
  In  In35  1  -0.00002565  0.49119146  0.52886269  1
  In  In36  1  0.85698764  -0.00297763  0.16569928  1
  In  In37  1  0.31589364  0.12648872  0.86223252  1
  In  In38  1  0.48364026  -0.00495421  0.15431652  1
  In  In39  1  0.17459638  0.29465542  0.50637804  1
  In  In40  1  0.50836754  0.49013321  0.36070422  1
  In  In41  1  0.67381200  -0.01173214  -0.03125599  1
  In  In42  1  0.12261469  -0.00166153  0.82250162  1
  In  In43  1  0.50684705  0.83197315  -0.00243741  1
  In  In44  1  0.84737221  0.34503174  0.50169648  1
  In  In45  1  0.33268392  0.34057888  0.00217425  1
  In  In46  1  0.66311841  -0.00216978  0.67537772  1
  In  In47  1  0.71927102  0.50194893  0.82570973  1
  In  In48  1  0.84517169  0.17690247  0.67290583  1
  In  In49  1  0.46449450  0.01277916  0.49155126  1
  In  In50  1  0.49080695  -0.00995699  0.83881714  1
  In  In51  1  0.68643930  0.33897219  0.35016409  1
  In  In52  1  -0.01920917  0.50665390  0.15054463  1
  In  In53  1  0.83125229  0.67805974  0.12730469  1
  In  In54  1  -0.00939105  0.14801159  0.51117174  1
  In  In55  1  0.31136592  0.49941155  0.15641067  1
  In  In56  1  0.83178661  -0.00362127  0.50991236  1
  In  In57  1  0.32216608  0.85135021  0.51482498  1
  In  In58  1  0.49222872  0.69211170  0.84099283  1
  In  In59  1  0.51264906  0.50269474  0.65914854  1
  In  In60  1  0.48953655  0.17781698  0.70139940  1
  In  In61  1  0.66491621  0.81972479  0.49780362  1
  In  In62  1  0.48099631  0.14680095  0.34464523  1
  In  In63  1  0.14565309  0.32482414  0.15396910  1
  In  In64  1  0.68678668  -0.01886002  0.31726339  1
  In  In65  1  0.30996185  0.83894413  0.83068784  1
  In  In66  1  0.49056203  0.65270985  0.51626212  1
  In  In67  1  0.16686799  0.30707408  0.84318899  1
  In  In68  1  0.49601879  0.35288016  0.52151764  1
  In  In69  1  0.51518478  0.33188119  0.84437226  1
  In  In70  1  0.18130553  0.01218873  0.51413924  1
  In  In71  1  0.15103795  0.48552990  0.32192018  1
  Te  Te72  1  0.06819669  0.10631189  0.03394427  1
  Te  Te73  1  0.09033743  0.08817797  0.41399324  1
  Te  Te74  1  0.09749397  0.11410137  0.73339318  1
  Te  Te75  1  0.07572398  0.42553236  0.06267544  1
  Te  Te76  1  0.08022004  0.40240223  0.43207198  1
  Te  Te77  1  0.08141474  0.40899891  0.76697260  1
  Te  Te78  1  0.09287515  0.74386120  0.04977519  1
  Te  Te79  1  0.09837731  0.77438853  0.41108898  1
  Te  Te80  1  0.07628699  0.74085519  0.78904223  1
  Te  Te81  1  0.41731097  0.08086270  0.05567370  1
  Te  Te82  1  0.35844993  0.07996808  0.40559456  1
  Te  Te83  1  0.39722351  0.06546924  0.74545994  1
  Te  Te84  1  0.42615569  0.43659933  0.07534601  1
  Te  Te85  1  0.40126093  0.39175440  0.40522161  1
  Te  Te86  1  0.41524511  0.40778335  0.74558635  1
  Te  Te87  1  0.41295357  0.75564831  0.10519457  1
  Te  Te88  1  0.42717462  0.74681721  0.41107182  1
  Te  Te89  1  0.40690046  0.76411072  0.74679076  1
  Te  Te90  1  0.74268623  0.08495593  0.07584981  1
  Te  Te91  1  0.76822174  0.08152064  0.39945121  1
  Te  Te92  1  0.75787499  0.06966089  0.77057676  1
  Te  Te93  1  0.78832943  0.43927497  0.05751239  1
  Te  Te94  1  0.76756098  0.43869399  0.41902103  1
  Te  Te95  1  0.79826508  0.38545556  0.77590487  1
  Te  Te96  1  0.75129975  0.76881364  0.04458150  1
  Te  Te97  1  0.76482413  0.74658393  0.41196309  1
  Te  Te98  1  0.76732648  0.74388737  0.76884146  1
  Te  Te99  1  0.10212580  0.22266116  0.25280123  1
  Te  Te100  1  0.09247879  0.21481203  0.61176696  1
  Te  Te101  1  0.07783809  0.23096778  0.93859677  1
  Te  Te102  1  0.08331295  0.59539270  0.24047252  1
  Te  Te103  1  0.05273540  0.60729421  0.61214279  1
  Te  Te104  1  0.02073504  0.61167227  0.86786441  1
  Te  Te105  1  0.08144639  0.91044993  0.23862397  1
  Te  Te106  1  0.07778996  0.92778727  0.59045953  1
  Te  Te107  1  0.03241013  0.92550640  0.92145012  1
  Te  Te108  1  0.41179440  0.24033596  0.24349552  1
  Te  Te109  1  0.41431650  0.23891233  0.58201451  1
  Te  Te110  1  0.40534501  0.24674740  0.90581956  1
  Te  Te111  1  0.41624380  0.57109711  0.25995784  1
  Te  Te112  1  0.39343950  0.59059587  0.61600697  1
  Te  Te113  1  0.41845389  0.58711250  0.92452859  1
  Te  Te114  1  0.40106815  0.93491573  0.26744988  1
  Te  Te115  1  0.42572795  0.91696888  0.59590054  1
  Te  Te116  1  0.39824590  0.91583789  0.93376267  1
  Te  Te117  1  0.76334701  0.24145683  0.26134870  1
  Te  Te118  1  0.75096378  0.24899697  0.57760961  1
  Te  Te119  1  0.76286547  0.25395796  0.92261520  1
  Te  Te120  1  0.76941421  0.58846311  0.24475526  1
  Te  Te121  1  0.75781268  0.58309430  0.59554061  1
  Te  Te122  1  0.75727812  0.59336214  0.93434659  1
  Te  Te123  1  0.76569625  0.89747887  0.22700127  1
  Te  Te124  1  0.75032432  0.90028632  0.59650371  1
  Te  Te125  1  0.79390538  0.89003851  0.95614973  1
  Te  Te126  1  0.24438792  0.24093492  0.07306908  1
  Te  Te127  1  0.26941773  0.21388564  0.42867081  1
  Te  Te128  1  0.24692119  0.21405801  0.75220774  1
  Te  Te129  1  0.23376216  0.57736150  0.05397576  1
  Te  Te130  1  0.24163460  0.57191251  0.42137093  1
  Te  Te131  1  0.23774195  0.61830563  0.77127468  1
  Te  Te132  1  0.21980241  0.92219310  0.05159641  1
  Te  Te133  1  0.23615197  0.91463435  0.41483751  1
  Te  Te134  1  0.23701344  0.93477402  0.73705046  1
  Te  Te135  1  0.56591158  0.24344662  0.05889972  1
  Te  Te136  1  0.57595580  0.24887274  0.41381576  1
  Te  Te137  1  0.60243175  0.27865431  0.73044559  1
  Te  Te138  1  0.58900860  0.58132440  0.06627872  1
  Te  Te139  1  0.60148926  0.57717990  0.44295082  1
  Te  Te140  1  0.58402069  0.58254961  0.76798301  1
  Te  Te141  1  0.59605849  0.92036055  0.08404423  1
  Te  Te142  1  0.58322775  0.92746584  0.42092991  1
  Te  Te143  1  0.57770464  0.89872742  0.75451543  1
  Te  Te144  1  0.92860630  0.25312173  0.09397512  1
  Te  Te145  1  0.91800866  0.24234885  0.41562429  1
  Te  Te146  1  0.93494620  0.24199673  0.76989479  1
  Te  Te147  1  0.93496164  0.60436924  0.04981511  1
  Te  Te148  1  0.92505119  0.57871891  0.42630378  1
  Te  Te149  1  0.91978849  0.55789209  0.77115950  1
  Te  Te150  1  0.95223512  0.94364124  0.06046280  1
  Te  Te151  1  0.90517099  0.90599674  0.41109317  1
  Te  Te152  1  0.92607723  0.88438954  0.71702370  1
  Te  Te153  1  0.22259307  0.06928335  0.23537227  1
  Te  Te154  1  0.28101140  0.11631493  0.55283647  1
  Te  Te155  1  0.21158149  0.05033908  0.93740047  1
  Te  Te156  1  0.24991155  0.39616495  0.25019954  1
  Te  Te157  1  0.22826661  0.42524040  0.59229083  1
  Te  Te158  1  0.24142539  0.42235646  0.91161065  1
  Te  Te159  1  0.24782202  0.77583110  0.25347270  1
  Te  Te160  1  0.24059020  0.74711332  0.59312309  1
  Te  Te161  1  0.21516039  0.76023771  0.91693882  1
  Te  Te162  1  0.58477738  0.08391948  0.24806051  1
  Te  Te163  1  0.57307425  0.09008136  0.59316552  1
  Te  Te164  1  0.57764015  0.09273721  0.91108173  1
  Te  Te165  1  0.59288075  0.41973863  0.24666269  1
  Te  Te166  1  0.60994383  0.42185551  0.58309477  1
  Te  Te167  1  0.60567870  0.42906721  0.91346113  1
  Te  Te168  1  0.60874563  0.75970279  0.23038563  1
  Te  Te169  1  0.56899526  0.75530529  0.59722409  1
  Te  Te170  1  0.60812350  0.74174844  0.92950191  1
  Te  Te171  1  0.93055186  0.09777391  0.24304961  1
  Te  Te172  1  0.92232244  0.05824564  0.61549893  1
  Te  Te173  1  0.93390996  0.07915942  0.89461893  1
  Te  Te174  1  0.91500305  0.42602383  0.26222929  1
  Te  Te175  1  0.89009786  0.43387493  0.61773013  1
  Te  Te176  1  0.90011692  0.43170757  0.87792373  1
  Te  Te177  1  0.91286471  0.75256218  0.24094467  1
  Te  Te178  1  0.92456328  0.75726407  0.62477992  1
  Te  Te179  1  0.96836014  0.78561215  0.89676075  1
