# generated using pymatgen
data_In2Te3
_symmetry_space_group_name_H-M   'P 1'
_cell_length_a   18.81558850
_cell_length_b   18.81098801
_cell_length_c   18.80577438
_cell_angle_alpha   89.98865530
_cell_angle_beta   90.01593761
_cell_angle_gamma   90.14721156
_symmetry_Int_Tables_number   1
_chemical_formula_structural   In2Te3
_chemical_formula_sum   'In72 Te108'
_cell_volume   6656.08985116
_cell_formula_units_Z   36
loop_
 _symmetry_equiv_pos_site_id
 _symmetry_equiv_pos_as_xyz
  1  'x, y, z'
loop_
 _atom_site_type_symbol
 _atom_site_label
 _atom_site_symmetry_multiplicity
 _atom_site_fract_x
 _atom_site_fract_y
 _atom_site_fract_z
 _atom_site_occupancy
  In  In0  1  0.34699509  0.65967025  0.32544037  1
  In  In1  1  0.52054192  0.16939620  0.33727913  1
  In  In2  1  0.83630785  0.18913358  0.32781013  1
  In  In3  1  0.50988932  0.64994339  0.82759945  1
  In  In4  1  0.33875338  0.83414627  0.15681846  1
  In  In5  1  -0.02826229  0.52826933  0.15194489  1
  In  In6  1  0.68167521  0.50545206  0.50483209  1
  In  In7  1  0.01546747  0.15500752  0.14078892  1
  In  In8  1  0.53095648  0.52987870  0.02105109  1
  In  In9  1  0.50004756  -0.01278666  0.83522067  1
  In  In10  1  0.71243123  -0.01545871  0.63886977  1
  In  In11  1  0.15561556  0.50933629  0.66004601  1
  In  In12  1  0.33058772  0.17083570  0.49922520  1
  In  In13  1  0.65839112  -0.00447316  0.31895635  1
  In  In14  1  0.85292802  0.16339750  -0.01117061  1
  In  In15  1  0.18418373  0.14869868  0.01069056  1
  In  In16  1  0.15353565  -0.01111244  0.51766002  1
  In  In17  1  0.69595101  0.83985451  0.84445655  1
  In  In18  1  0.50599216  0.34644359  0.17860284  1
  In  In19  1  0.35222103  0.33555697  0.33583970  1
  In  In20  1  0.84703445  0.50106041  0.65654297  1
  In  In21  1  -0.00464109  0.35776809  -0.02935327  1
  In  In22  1  0.66743364  0.14380112  0.82652786  1
  In  In23  1  0.34016298  -0.00411936  0.67325301  1
  In  In24  1  0.35955955  0.50498512  0.17542736  1
  In  In25  1  -0.00566817  0.17175835  0.82130375  1
  In  In26  1  0.34376675  0.49048009  0.84590238  1
  In  In27  1  0.00748453  -0.01000105  0.32739736  1
  In  In28  1  0.02591052  0.15631727  0.50067455  1
  In  In29  1  0.32471882  0.66647941  0.66095681  1
  In  In30  1  0.16020694  0.83415795  0.33737800  1
  In  In31  1  0.85068594  0.83237948  0.32490405  1
  In  In32  1  0.66601115  0.35459969  0.01415952  1
  In  In33  1  -0.01086390  -0.02693660  0.67383986  1
  In  In34  1  0.81257886  -0.01806720  0.50044367  1
  In  In35  1  -0.02988067  0.69801743  0.66216962  1
  In  In36  1  0.15716462  0.69750879  0.83948318  1
  In  In37  1  0.51594708  -0.00781296  0.49735328  1
  In  In38  1  0.51188906  0.33432880  0.86365711  1
  In  In39  1  0.67665741  0.35701510  0.66284091  1
  In  In40  1  0.16932802  0.35161727  0.81752056  1
  In  In41  1  0.17242569  0.32362857  0.50402918  1
  In  In42  1  0.66517017  0.67303948  0.68994872  1
  In  In43  1  0.49821428  0.81188618  -0.00037986  1
  In  In44  1  0.44992823  0.14644694  0.03015782  1
  In  In45  1  0.65112216  -0.04253319  -0.00524579  1
  In  In46  1  0.16995206  0.67068263  0.49939090  1
  In  In47  1  0.66728486  0.16426587  0.17774103  1
  In  In48  1  0.70123200  0.84607879  0.48701511  1
  In  In49  1  0.48062227  0.17148435  0.66163174  1
  In  In50  1  -0.00796956  0.48255968  0.84361626  1
  In  In51  1  0.16439175  0.30121947  0.15960090  1
  In  In52  1  -0.00091678  0.34490643  0.32996605  1
  In  In53  1  0.14994203  -0.00256988  0.84491949  1
  In  In54  1  0.48935564  0.66309207  0.49800922  1
  In  In55  1  0.16934280  0.49506311  0.00310488  1
  In  In56  1  0.13895300  0.66231775  0.14624543  1
  In  In57  1  -0.00037950  -0.02403169  0.01073497  1
  In  In58  1  0.83289954  -0.01500032  0.14880600  1
  In  In59  1  -0.02314803  0.70450170  -0.01548364  1
  In  In60  1  0.66745887  0.69413280  0.28345765  1
  In  In61  1  0.80823008  0.15710062  0.66728457  1
  In  In62  1  0.65303757  0.19471877  0.49614299  1
  In  In63  1  -0.04461049  0.64754626  0.35162721  1
  In  In64  1  0.17470287  0.49613878  0.34480716  1
  In  In65  1  0.83845492  0.34406760  0.82593415  1
  In  In66  1  0.82015068  0.34299160  0.18071871  1
  In  In67  1  0.33026499  0.32151981  0.67082528  1
  In  In68  1  0.50424223  0.50708170  0.32876978  1
  In  In69  1  0.31028275  -0.00936360  0.29694874  1
  In  In70  1  0.49710250  0.82894891  0.66464732  1
  In  In71  1  0.31447995  0.84979531  0.85736252  1
  Te  Te72  1  0.10809838  0.04510291  0.09802385  1
  Te  Te73  1  0.10860944  0.07745307  0.39997523  1
  Te  Te74  1  0.07907761  0.07919763  0.73530706  1
  Te  Te75  1  0.07194590  0.41713907  0.09886579  1
  Te  Te76  1  0.07741558  0.42429527  0.43659866  1
  Te  Te77  1  0.06122872  0.40955724  0.72785801  1
  Te  Te78  1  0.09191937  0.77152792  0.05629204  1
  Te  Te79  1  0.06728895  0.73811638  0.41028458  1
  Te  Te80  1  0.07267872  0.77109246  0.74378255  1
  Te  Te81  1  0.36179844  0.04979756  0.11528390  1
  Te  Te82  1  0.42050837  0.07952958  0.41508614  1
  Te  Te83  1  0.40896826  0.09207087  0.77002594  1
  Te  Te84  1  0.43099792  0.42171621  0.06919835  1
  Te  Te85  1  0.40868127  0.44091988  0.42043423  1
  Te  Te86  1  0.42890386  0.40518105  0.75467578  1
  Te  Te87  1  0.41336696  0.72644818  0.08617206  1
  Te  Te88  1  0.41039030  0.75718899  0.41696081  1
  Te  Te89  1  0.41298401  0.75929514  0.76975097  1
  Te  Te90  1  0.74574312  0.08675438  0.07125832  1
  Te  Te91  1  0.73989719  0.09067967  0.40946616  1
  Te  Te92  1  0.77054293  0.04904619  0.76940120  1
  Te  Te93  1  0.74461364  0.44581502  0.10158288  1
  Te  Te94  1  0.78391914  0.43087257  0.42703390  1
  Te  Te95  1  0.74718592  0.44837657  0.76251588  1
  Te  Te96  1  0.74167656  0.73291477  0.07781010  1
  Te  Te97  1  0.75957342  0.73466339  0.40212796  1
  Te  Te98  1  0.77277879  0.72791465  0.77931691  1
  Te  Te99  1  0.07574912  0.23031497  0.26070304  1
  Te  Te100  1  0.09059035  0.24513816  0.59831845  1
  Te  Te101  1  0.08283166  0.24326881  0.92428026  1
  Te  Te102  1  0.07700676  0.57888930  0.26177233  1
  Te  Te103  1  0.06329326  0.59842570  0.58236290  1
  Te  Te104  1  0.07476641  0.58447959  0.92437951  1
  Te  Te105  1  0.07643687  0.89954154  0.23490614  1
  Te  Te106  1  0.06539500  0.88807881  0.57916199  1
  Te  Te107  1  0.09234005  0.88935791  0.93030367  1
  Te  Te108  1  0.42018422  0.23774840  0.24239024  1
  Te  Te109  1  0.42807511  0.27084760  0.56093995  1
  Te  Te110  1  0.41551715  0.23697626  0.91821836  1
  Te  Te111  1  0.45495734  0.61215309  0.22774521  1
  Te  Te112  1  0.42748252  0.57944891  0.60429664  1
  Te  Te113  1  0.41764262  0.59029001  0.93340368  1
  Te  Te114  1  0.41794682  0.89460135  0.26786351  1
  Te  Te115  1  0.40934761  0.90822274  0.56931401  1
  Te  Te116  1  0.41245157  0.92886479  0.94394137  1
  Te  Te117  1  0.72064395  0.27105959  0.27320219  1
  Te  Te118  1  0.76184337  0.26819924  0.57208815  1
  Te  Te119  1  0.74644391  0.25141315  0.91240617  1
  Te  Te120  1  0.73275463  0.58153900  0.21402445  1
  Te  Te121  1  0.75969925  0.60770453  0.58851607  1
  Te  Te122  1  0.73847327  0.63962938  0.96651440  1
  Te  Te123  1  0.74315440  0.89955302  0.23750393  1
  Te  Te124  1  0.80221314  0.85821799  0.61314729  1
  Te  Te125  1  0.78072319  0.89673459  0.95487710  1
  Te  Te126  1  0.27441999  0.24770099  0.07816015  1
  Te  Te127  1  0.24514323  0.24432646  0.39604795  1
  Te  Te128  1  0.23994786  0.24064492  0.75377141  1
  Te  Te129  1  0.25683457  0.58361880  0.08916077  1
  Te  Te130  1  0.26960300  0.57694692  0.43107307  1
  Te  Te131  1  0.24029144  0.57658849  0.77050630  1
  Te  Te132  1  0.26296010  0.93911993  0.08474441  1
  Te  Te133  1  0.25195952  0.92042312  0.42198723  1
  Te  Te134  1  0.23615936  0.91083424  0.74300089  1
  Te  Te135  1  0.57969118  0.24550645  0.07871576  1
  Te  Te136  1  0.57658150  0.28565712  0.40994964  1
  Te  Te137  1  0.59029682  0.24911008  0.74708581  1
  Te  Te138  1  0.63336407  0.61841807  0.09384473  1
  Te  Te139  1  0.59642904  0.60325028  0.40711326  1
  Te  Te140  1  0.57055375  0.56354374  0.72485325  1
  Te  Te141  1  0.56916739  0.89850437  0.10531650  1
  Te  Te142  1  0.58140168  0.89371135  0.40278517  1
  Te  Te143  1  0.59812085  0.91706148  0.74185049  1
  Te  Te144  1  0.91569931  0.26377582  0.08768563  1
  Te  Te145  1  0.92629244  0.25280421  0.42993751  1
  Te  Te146  1  0.91153843  0.25699520  0.72578513  1
  Te  Te147  1  0.88587302  0.61566569  0.06529979  1
  Te  Te148  1  0.88587268  0.55155749  0.44096759  1
  Te  Te149  1  0.91947084  0.58755408  0.76117261  1
  Te  Te150  1  0.91956890  0.88056592  0.09286878  1
  Te  Te151  1  0.93055983  0.90966800  0.43061899  1
  Te  Te152  1  0.91381011  0.88176648  0.76123450  1
  Te  Te153  1  0.26303725  0.10485997  0.21948595  1
  Te  Te154  1  0.24686719  0.08722845  0.59358362  1
  Te  Te155  1  0.25853098  0.07548209  0.90726391  1
  Te  Te156  1  0.24768807  0.41549659  0.23730499  1
  Te  Te157  1  0.25610202  0.42440213  0.58389814  1
  Te  Te158  1  0.25992698  0.39587321  0.93251390  1
  Te  Te159  1  0.23759371  0.73382040  0.24745305  1
  Te  Te160  1  0.24346757  0.76315506  0.58902886  1
  Te  Te161  1  0.25477616  0.74283711  0.93982260  1
  Te  Te162  1  0.56069511  0.06673627  0.22663259  1
  Te  Te163  1  0.59164216  0.08455609  0.59502687  1
  Te  Te164  1  0.57518774  0.08369383  0.93238632  1
  Te  Te165  1  0.60393251  0.43333135  0.24676218  1
  Te  Te166  1  0.58026471  0.42150911  0.57270818  1
  Te  Te167  1  0.60313459  0.44908882  0.91186148  1
  Te  Te168  1  0.57754028  0.79155254  0.22029393  1
  Te  Te169  1  0.59911332  0.76169176  0.57500807  1
  Te  Te170  1  0.60088685  0.73765501  0.91365349  1
  Te  Te171  1  0.90853616  0.08424956  0.24343012  1
  Te  Te172  1  0.90965837  0.08126965  0.57686032  1
  Te  Te173  1  0.92661401  0.06257377  0.90486836  1
  Te  Te174  1  0.90341704  0.44228254  0.26032170  1
  Te  Te175  1  0.90724439  0.42977731  0.54195093  1
  Te  Te176  1  0.87435406  0.44224983  0.93839706  1
  Te  Te177  1  0.92070698  0.73475007  0.23865494  1
  Te  Te178  1  0.89371108  0.75488606  0.54896307  1
  Te  Te179  1  0.90308828  0.78139679  0.88131252  1
