# generated using pymatgen
data_In2Te3
_symmetry_space_group_name_H-M   'P 1'
_cell_length_a   18.75566651
_cell_length_b   18.75848583
_cell_length_c   18.75607790
_cell_angle_alpha   90.08843954
_cell_angle_beta   89.96608724
_cell_angle_gamma   89.94344488
_symmetry_Int_Tables_number   1
_chemical_formula_structural   In2Te3
_chemical_formula_sum   'In72 Te108'
_cell_volume   6598.89934614
_cell_formula_units_Z   36
loop_
 _symmetry_equiv_pos_site_id
 _symmetry_equiv_pos_as_xyz
  1  'x, y, z'
loop_
 _atom_site_type_symbol
 _atom_site_label
 _atom_site_symmetry_multiplicity
 _atom_site_fract_x
 _atom_site_fract_y
 _atom_site_fract_z
 _atom_site_occupancy
  In  In0  1  0.15420360  0.34628816  0.48326586  1
  In  In1  1  0.17044425  -0.01049204  0.51235073  1
  In  In2  1  -0.01612056  0.16992627  0.48373544  1
  In  In3  1  0.33292220  0.82227604  0.83190752  1
  In  In4  1  0.14003577  0.49176843  0.30688253  1
  In  In5  1  0.83152298  -0.01191644  0.48181389  1
  In  In6  1  0.48095804  0.33968755  0.82902854  1
  In  In7  1  0.66298270  0.65720070  0.67659678  1
  In  In8  1  0.32740965  0.01179713  0.00760310  1
  In  In9  1  0.14793244  0.01100576  0.13468372  1
  In  In10  1  0.34907918  0.00211714  0.66015255  1
  In  In11  1  0.31712258  0.19036404  0.81485825  1
  In  In12  1  0.36457344  0.18137129  0.49209112  1
  In  In13  1  0.80679724  0.18463009  0.66265881  1
  In  In14  1  0.51477106  0.19092547  -0.00983036  1
  In  In15  1  0.51469665  -0.02338785  0.81338552  1
  In  In16  1  0.68234842  0.83010433  0.49737151  1
  In  In17  1  0.49818704  0.65278814  0.48870970  1
  In  In18  1  0.84665766  0.48066080  0.31649486  1
  In  In19  1  0.69107185  0.51838528  0.83859577  1
  In  In20  1  0.84858485  0.80598032  -0.00691168  1
  In  In21  1  0.82656409  -0.00257983  0.17754764  1
  In  In22  1  0.49781443  0.34313188  0.17310186  1
  In  In23  1  -0.00835504  0.35178960  0.01367522  1
  In  In24  1  0.14018034  0.81919727  0.66794200  1
  In  In25  1  0.00846882  0.35497264  0.67507741  1
  In  In26  1  0.82487946  0.34446011  0.85067331  1
  In  In27  1  0.30831424  0.50763298  0.16454409  1
  In  In28  1  0.51883804  0.17371148  0.63168841  1
  In  In29  1  0.13156383  0.81869124  0.00224838  1
  In  In30  1  -0.01919539  -0.01508024  0.33242746  1
  In  In31  1  0.13932953  0.67096656  0.49351207  1
  In  In32  1  0.65211839  0.34966504  0.66224997  1
  In  In33  1  0.32073719  0.67337511  0.31439961  1
  In  In34  1  0.67041426  0.50307506  0.49955171  1
  In  In35  1  0.34748513  0.85829352  0.53045117  1
  In  In36  1  0.14117097  0.19030497  0.02489338  1
  In  In37  1  0.84056657  0.00461075  0.82847262  1
  In  In38  1  0.33958220  0.49209127  0.48739223  1
  In  In39  1  0.68978926  0.17108693  0.85322728  1
  In  In40  1  0.33221699  0.65711003  0.68213495  1
  In  In41  1  0.83854925  0.65403535  0.47849130  1
  In  In42  1  -0.01613506  0.64982593  0.69978551  1
  In  In43  1  0.53825438  0.80747306  -0.02501990  1
  In  In44  1  0.69663675  0.35109027  0.01722020  1
  In  In45  1  0.15325212  -0.02027572  0.85896588  1
  In  In46  1  -0.00323220  -0.02222240  0.66495394  1
  In  In47  1  0.00172645  0.16398737  0.85177147  1
  In  In48  1  0.32742042  0.49147356  0.85161889  1
  In  In49  1  0.48549241  0.84873374  0.67632820  1
  In  In50  1  0.68665213  0.01243181  0.32205397  1
  In  In51  1  0.52269128  0.66558485  0.15389843  1
  In  In52  1  -0.00667120  0.81680271  0.16654848  1
  In  In53  1  0.68630707  -0.00861796  0.02044594  1
  In  In54  1  0.82477379  0.80190738  0.68367604  1
  In  In55  1  0.32288620  0.65293100  0.01547060  1
  In  In56  1  0.50878190  0.50641432  0.00990950  1
  In  In57  1  0.16158350  0.35540158  0.16706919  1
  In  In58  1  0.84686650  0.65635025  0.14243104  1
  In  In59  1  0.18155095  0.19145789  0.69349422  1
  In  In60  1  0.35620971  0.03629840  0.35612252  1
  In  In61  1  0.81614202  0.18674981  0.31776175  1
  In  In62  1  0.32638866  0.81302187  0.19977267  1
  In  In63  1  0.83376690  0.33329746  0.51572557  1
  In  In64  1  0.51133045  0.82609804  0.32050376  1
  In  In65  1  0.16525750  0.80681683  0.33824098  1
  In  In66  1  0.15184023  0.18642047  0.30727783  1
  In  In67  1  0.53749905  0.01366056  0.18675829  1
  In  In68  1  0.16621453  0.50343245  0.67321525  1
  In  In69  1  0.50900962  0.48951337  0.34735674  1
  In  In70  1  0.67205698  0.49585995  0.15226009  1
  In  In71  1  0.34206556  0.18407350  0.18284155  1
  Te  Te72  1  0.04227758  0.09009743  0.06915054  1
  Te  Te73  1  0.08859156  0.07844934  0.41347069  1
  Te  Te74  1  0.08489480  0.07520259  0.74482518  1
  Te  Te75  1  0.08552443  0.45189020  0.07952818  1
  Te  Te76  1  0.05360221  0.42794420  0.41065167  1
  Te  Te77  1  0.06547511  0.45211353  0.77249872  1
  Te  Te78  1  0.05472333  0.70846931  0.07291709  1
  Te  Te79  1  0.04940100  0.73011468  0.39077704  1
  Te  Te80  1  0.08037626  0.73761798  0.77321066  1
  Te  Te81  1  0.43039403  0.09180968  0.08967715  1
  Te  Te82  1  0.47872244  0.10135484  0.42523753  1
  Te  Te83  1  0.42465813  0.09201289  0.76090163  1
  Te  Te84  1  0.40502129  0.41900945  0.07845222  1
  Te  Te85  1  0.43299574  0.39163854  0.42938742  1
  Te  Te86  1  0.41366756  0.43673999  0.74222995  1
  Te  Te87  1  0.41781126  0.75505590  0.08345673  1
  Te  Te88  1  0.40887140  0.75698029  0.41890705  1
  Te  Te89  1  0.43682844  0.73294725  0.76431165  1
  Te  Te90  1  0.75018527  0.09825513  0.09829025  1
  Te  Te91  1  0.74844633  0.10300453  0.43058183  1
  Te  Te92  1  0.73477831  0.07571188  0.74193651  1
  Te  Te93  1  0.79754076  0.43464917  0.09123701  1
  Te  Te94  1  0.74831066  0.40613475  0.41082047  1
  Te  Te95  1  0.76259039  0.42225821  0.73485231  1
  Te  Te96  1  0.74587169  0.74870389  0.08268085  1
  Te  Te97  1  0.75725766  0.74957955  0.39883965  1
  Te  Te98  1  0.72807189  0.74237501  0.78543501  1
  Te  Te99  1  0.05721068  0.26578732  0.22668800  1
  Te  Te100  1  0.07952999  0.24292491  0.58124627  1
  Te  Te101  1  0.08870738  0.27398169  0.90947026  1
  Te  Te102  1  0.08876274  0.61206557  0.24157895  1
  Te  Te103  1  0.06496259  0.57732303  0.58553112  1
  Te  Te104  1  0.02964197  0.61963213  0.94508641  1
  Te  Te105  1  0.09334805  0.91616187  0.24598461  1
  Te  Te106  1  0.06286859  0.89074271  0.55653835  1
  Te  Te107  1  0.04314058  0.91154004  0.92786710  1
  Te  Te108  1  0.43120553  0.25608208  0.27974044  1
  Te  Te109  1  0.40474683  0.26282034  0.60953369  1
  Te  Te110  1  0.39611947  0.26175915  0.92997706  1
  Te  Te111  1  0.42881170  0.57913414  0.24218166  1
  Te  Te112  1  0.42146366  0.57132903  0.59155499  1
  Te  Te113  1  0.42503782  0.59382856  0.91814100  1
  Te  Te114  1  0.41460254  0.93136998  0.24661627  1
  Te  Te115  1  0.46303345  0.95863556  0.56090340  1
  Te  Te116  1  0.41553390  0.91399853  0.92371992  1
  Te  Te117  1  0.71549725  0.25294648  0.23346291  1
  Te  Te118  1  0.71293658  0.24706099  0.56202035  1
  Te  Te119  1  0.78203864  0.23794045  0.95276721  1
  Te  Te120  1  0.75607174  0.58151413  0.24745651  1
  Te  Te121  1  0.76390500  0.57966608  0.59186667  1
  Te  Te122  1  0.79344423  0.59390627  0.91583645  1
  Te  Te123  1  0.75736010  0.89736537  0.26110569  1
  Te  Te124  1  0.76246754  0.91481755  0.59672859  1
  Te  Te125  1  0.75637552  0.90900579  0.91474373  1
  Te  Te126  1  0.25809619  0.26591031  0.08508722  1
  Te  Te127  1  0.24568245  0.24662310  0.41175231  1
  Te  Te128  1  0.23809270  0.31272054  0.76752909  1
  Te  Te129  1  0.22309799  0.54524284  0.04617832  1
  Te  Te130  1  0.24175788  0.58419619  0.41448583  1
  Te  Te131  1  0.23414488  0.59362147  0.77777904  1
  Te  Te132  1  0.24626754  0.90328083  0.08002578  1
  Te  Te133  1  0.25947838  0.91625639  0.41017596  1
  Te  Te134  1  0.24536475  0.91850540  0.74188455  1
  Te  Te135  1  0.60147148  0.25579650  0.09619207  1
  Te  Te136  1  0.55480566  0.22555063  0.38095038  1
  Te  Te137  1  0.58911488  0.24448519  0.76372569  1
  Te  Te138  1  0.61945372  0.60225453  0.05283982  1
  Te  Te139  1  0.60501437  0.59888637  0.39668724  1
  Te  Te140  1  0.58128853  0.55584766  0.74739596  1
  Te  Te141  1  0.58386940  0.90034481  0.08922738  1
  Te  Te142  1  0.59508918  0.91945370  0.40646533  1
  Te  Te143  1  0.61170906  0.89120925  0.74359988  1
  Te  Te144  1  0.90987853  0.28055254  0.11614239  1
  Te  Te145  1  0.91732904  0.27363122  0.39822484  1
  Te  Te146  1  0.91462046  0.24707474  0.75235932  1
  Te  Te147  1  0.94924434  0.57260586  0.06770066  1
  Te  Te148  1  0.93298638  0.55874381  0.41062751  1
  Te  Te149  1  0.87879887  0.58375695  0.78590919  1
  Te  Te150  1  0.91497117  0.91572320  0.08176564  1
  Te  Te151  1  0.91413873  0.88518578  0.41662929  1
  Te  Te152  1  0.92278354  0.89046213  0.76405512  1
  Te  Te153  1  0.24710890  0.07634032  0.23994237  1
  Te  Te154  1  0.25444941  0.09738093  0.58111669  1
  Te  Te155  1  0.23630375  0.09600266  0.91633023  1
  Te  Te156  1  0.26387721  0.40974754  0.27236631  1
  Te  Te157  1  0.24966024  0.41146547  0.58281562  1
  Te  Te158  1  0.22958827  0.39184780  0.90096012  1
  Te  Te159  1  0.20691389  0.70978558  0.21255991  1
  Te  Te160  1  0.25304619  0.74395339  0.58217278  1
  Te  Te161  1  0.23894112  0.74282031  0.92128467  1
  Te  Te162  1  0.60239543  0.13053610  0.26179694  1
  Te  Te163  1  0.58677260  0.05299482  0.58922658  1
  Te  Te164  1  0.58458008  0.07199993  0.92297662  1
  Te  Te165  1  0.60665287  0.40849585  0.26057971  1
  Te  Te166  1  0.56725795  0.41251178  0.55808572  1
  Te  Te167  1  0.59268314  0.40854974  0.91913225  1
  Te  Te168  1  0.60834644  0.74919396  0.24106621  1
  Te  Te169  1  0.57356992  0.75096436  0.57942223  1
  Te  Te170  1  0.61267252  0.71595434  0.89021385  1
  Te  Te171  1  0.92225915  0.09561570  0.24910049  1
  Te  Te172  1  0.91271680  0.08559480  0.59132505  1
  Te  Te173  1  0.90769844  0.08590993  0.93403259  1
  Te  Te174  1  0.91741562  0.40286298  0.20494120  1
  Te  Te175  1  0.91560700  0.43160210  0.58944055  1
  Te  Te176  1  0.93079228  0.43310528  0.90305512  1
  Te  Te177  1  0.91103975  0.73254236  0.25552635  1
  Te  Te178  1  0.91872497  0.73396224  0.58669328  1
  Te  Te179  1  0.91083011  0.70886307  0.89488999  1
