# generated using pymatgen
data_In2Te3
_symmetry_space_group_name_H-M   'P 1'
_cell_length_a   18.87905068
_cell_length_b   18.86408481
_cell_length_c   18.87210899
_cell_angle_alpha   90.13261537
_cell_angle_beta   90.14933448
_cell_angle_gamma   90.01381864
_symmetry_Int_Tables_number   1
_chemical_formula_structural   In2Te3
_chemical_formula_sum   'In72 Te108'
_cell_volume   6720.99662089
_cell_formula_units_Z   36
loop_
 _symmetry_equiv_pos_site_id
 _symmetry_equiv_pos_as_xyz
  1  'x, y, z'
loop_
 _atom_site_type_symbol
 _atom_site_label
 _atom_site_symmetry_multiplicity
 _atom_site_fract_x
 _atom_site_fract_y
 _atom_site_fract_z
 _atom_site_occupancy
  In  In0  1  0.14413231  -0.01728093  0.52050053  1
  In  In1  1  0.83491680  0.16687191  -0.01345418  1
  In  In2  1  0.85297615  0.52133445  0.66275786  1
  In  In3  1  0.49223528  0.01060340  0.82378611  1
  In  In4  1  0.17213229  0.82180797  0.00522657  1
  In  In5  1  0.84590400  0.16669127  0.64820744  1
  In  In6  1  0.49856195  0.00977293  0.52312647  1
  In  In7  1  0.51051064  0.83142311  0.33969913  1
  In  In8  1  0.49116976  0.17309266  -0.01489848  1
  In  In9  1  0.67285550  0.86691486  0.16783011  1
  In  In10  1  -0.01568611  0.82869905  0.13385399  1
  In  In11  1  0.16644374  0.81328440  0.33603214  1
  In  In12  1  0.16226494  0.18226372  0.34994363  1
  In  In13  1  0.68707519  0.01410922  0.32850926  1
  In  In14  1  0.84317704  0.47600017  -0.00038021  1
  In  In15  1  0.31292412  0.84689175  0.81639172  1
  In  In16  1  0.85810234  0.00305920  0.49611284  1
  In  In17  1  0.64985866  0.67487136  0.67482287  1
  In  In18  1  0.00779366  0.00335448  0.33191154  1
  In  In19  1  0.50036513  0.65570678  0.14852567  1
  In  In20  1  0.16731637  0.01734884  0.17348240  1
  In  In21  1  0.52076662  -0.01894439  0.17815386  1
  In  In22  1  0.31819280  0.66379613  0.34866943  1
  In  In23  1  0.84111289  0.32983674  0.15395409  1
  In  In24  1  0.01620483  0.65841371  0.32083194  1
  In  In25  1  0.02307277  0.47966549  0.13740596  1
  In  In26  1  0.13639021  0.15663651  0.66146916  1
  In  In27  1  0.31827733  0.66329228  0.66613652  1
  In  In28  1  0.66572518  0.02984875  0.67998056  1
  In  In29  1  0.85719566  0.68342052  0.80786114  1
  In  In30  1  0.65649075  0.15406666  0.50634543  1
  In  In31  1  0.67634429  0.82887291  0.51751898  1
  In  In32  1  0.67662394  0.01383053  -0.01593165  1
  In  In33  1  0.50425490  0.48195260  0.35127166  1
  In  In34  1  0.32830831  0.00620517  -0.01970911  1
  In  In35  1  -0.00124036  0.70226696  0.67629438  1
  In  In36  1  0.69168034  0.31943998  0.32537584  1
  In  In37  1  0.66643561  0.65245025  -0.00132253  1
  In  In38  1  0.14987072  0.26678318  -0.03844885  1
  In  In39  1  0.16748841  0.63668886  0.81882686  1
  In  In40  1  0.50551650  0.14073274  0.34446015  1
  In  In41  1  0.33944345  0.17733417  0.83487692  1
  In  In42  1  0.32014020  0.49366988  0.17647134  1
  In  In43  1  0.01113619  0.65439005  -0.02889014  1
  In  In44  1  0.48155021  0.33083104  0.52252848  1
  In  In45  1  -0.01027170  0.33126174  0.33440757  1
  In  In46  1  0.83145315  0.65271027  0.19126784  1
  In  In47  1  0.66738978  0.84021800  0.84209444  1
  In  In48  1  0.50168695  0.50523809  -0.01882818  1
  In  In49  1  0.65470314  0.30046617  0.71173033  1
  In  In50  1  0.47177835  0.65364168  0.83850726  1
  In  In51  1  0.84866466  0.32886161  0.83849231  1
  In  In52  1  0.33930964  0.64346639  0.01267947  1
  In  In53  1  0.50502085  0.32520908  0.14654739  1
  In  In54  1  0.81661149  0.84707832  -0.00734714  1
  In  In55  1  0.84309232  0.68142780  0.49760594  1
  In  In56  1  0.35443989  0.82432737  0.18671060  1
  In  In57  1  0.85403944  0.33164568  0.50246753  1
  In  In58  1  0.15835864  0.01182542  0.82008065  1
  In  In59  1  0.32072379  0.85367877  0.50834335  1
  In  In60  1  0.32724806  0.34099860  0.67456959  1
  In  In61  1  0.16980720  0.66098712  0.50052282  1
  In  In62  1  0.65787152  0.47817374  0.49688071  1
  In  In63  1  0.17110730  0.33659808  0.52586713  1
  In  In64  1  0.67400126  0.64682921  0.33934563  1
  In  In65  1  0.67803920  0.47506935  0.85380012  1
  In  In66  1  0.46436294  0.50104948  0.67818186  1
  In  In67  1  -0.00413519  0.17459543  0.16535498  1
  In  In68  1  0.00207398  0.51293242  0.49435531  1
  In  In69  1  0.33315956  0.33419948  0.33589047  1
  In  In70  1  -0.00335170  0.01841168  -0.01334914  1
  In  In71  1  0.32049678  0.17193374  0.14662871  1
  Te  Te72  1  0.09430031  0.10077618  0.07212437  1
  Te  Te73  1  0.07606081  0.09180505  0.43484491  1
  Te  Te74  1  0.04293474  0.07710863  0.75107324  1
  Te  Te75  1  0.10000046  0.37904014  0.05785597  1
  Te  Te76  1  0.08699465  0.41293797  0.41961440  1
  Te  Te77  1  0.13008142  0.36865172  0.78218137  1
  Te  Te78  1  0.08564764  0.72660616  0.08543149  1
  Te  Te79  1  0.06751137  0.75219295  0.43201834  1
  Te  Te80  1  0.09729165  0.76179188  0.77735513  1
  Te  Te81  1  0.42145737  0.06765625  0.08974630  1
  Te  Te82  1  0.40718183  0.08851006  0.43774317  1
  Te  Te83  1  0.37988007  0.06581437  0.74531719  1
  Te  Te84  1  0.41226581  0.42356795  0.07825462  1
  Te  Te85  1  0.39619256  0.42772136  0.44150675  1
  Te  Te86  1  0.42538575  0.39608065  0.77251200  1
  Te  Te87  1  0.42470899  0.75952952  0.06830873  1
  Te  Te88  1  0.41001328  0.75705122  0.42529624  1
  Te  Te89  1  0.41392618  0.75574679  0.74399934  1
  Te  Te90  1  0.75729670  0.08498190  0.08315729  1
  Te  Te91  1  0.76930457  0.10448681  0.41984812  1
  Te  Te92  1  0.76416913  0.10911836  0.75592510  1
  Te  Te93  1  0.73970807  0.39340919  0.06333755  1
  Te  Te94  1  0.76915376  0.42069247  0.41155910  1
  Te  Te95  1  0.75759874  0.42287220  0.73346843  1
  Te  Te96  1  0.75003352  0.74652370  0.08752652  1
  Te  Te97  1  0.75175253  0.76092485  0.40372470  1
  Te  Te98  1  0.75295976  0.76856280  0.73659578  1
  Te  Te99  1  0.09238321  0.26331850  0.24347711  1
  Te  Te100  1  0.06082973  0.25214119  0.57618869  1
  Te  Te101  1  0.04295006  0.26509419  0.84974014  1
  Te  Te102  1  0.09118289  0.55989392  0.24191360  1
  Te  Te103  1  0.07822861  0.59115750  0.59870621  1
  Te  Te104  1  0.11884078  0.55842328  0.93519409  1
  Te  Te105  1  0.08779992  0.90042481  0.22890820  1
  Te  Te106  1  0.04625435  0.92475274  0.61593628  1
  Te  Te107  1  0.08898645  0.91542997  0.92041383  1
  Te  Te108  1  0.42335332  0.24277936  0.25074274  1
  Te  Te109  1  0.40222375  0.23649094  0.60034549  1
  Te  Te110  1  0.38694371  0.26680780  0.94221439  1
  Te  Te111  1  0.42651505  0.58580399  0.26106327  1
  Te  Te112  1  0.41306522  0.59240912  0.57708790  1
  Te  Te113  1  0.37984420  0.54984897  0.89910016  1
  Te  Te114  1  0.41358050  0.93197852  0.27600982  1
  Te  Te115  1  0.42655177  0.90573846  0.59711004  1
  Te  Te116  1  0.41863913  0.90745307  0.91036174  1
  Te  Te117  1  0.77952864  0.23299007  0.24718693  1
  Te  Te118  1  0.73658523  0.26456141  0.57946539  1
  Te  Te119  1  0.74732632  0.27642594  0.93269027  1
  Te  Te120  1  0.73711209  0.55475758  0.24502035  1
  Te  Te121  1  0.74469238  0.58844977  0.57624657  1
  Te  Te122  1  0.76909021  0.59507706  0.90270996  1
  Te  Te123  1  0.77431463  0.91841175  0.25861881  1
  Te  Te124  1  0.74988994  0.94150263  0.58731752  1
  Te  Te125  1  0.77141118  0.94328024  0.88428571  1
  Te  Te126  1  0.23746230  0.27896586  0.09018428  1
  Te  Te127  1  0.26434007  0.24769679  0.44146551  1
  Te  Te128  1  0.22741829  0.24548321  0.75128667  1
  Te  Te129  1  0.23373237  0.56923288  0.08193002  1
  Te  Te130  1  0.23171512  0.56362044  0.40988889  1
  Te  Te131  1  0.25019309  0.54738086  0.73340402  1
  Te  Te132  1  0.25986261  0.91666185  0.09218939  1
  Te  Te133  1  0.23443699  0.92799359  0.40625129  1
  Te  Te134  1  0.24740746  0.94184239  0.72197365  1
  Te  Te135  1  0.59230012  0.23255622  0.07412103  1
  Te  Te136  1  0.57826539  0.26049347  0.41889282  1
  Te  Te137  1  0.55781096  0.22938251  0.79314452  1
  Te  Te138  1  0.59763491  0.55455409  0.09127577  1
  Te  Te139  1  0.57233190  0.58992391  0.43632926  1
  Te  Te140  1  0.58544194  0.57446149  0.76886593  1
  Te  Te141  1  0.58363706  0.91470817  0.05501682  1
  Te  Te142  1  0.59416557  0.93196835  0.41911887  1
  Te  Te143  1  0.58218008  0.91704428  0.74257470  1
  Te  Te144  1  0.93494681  0.26078343  0.05692518  1
  Te  Te145  1  0.93292106  0.23202457  0.42834004  1
  Te  Te146  1  0.92953586  0.26362002  0.72966196  1
  Te  Te147  1  0.91548611  0.59072283  0.07976884  1
  Te  Te148  1  0.90654573  0.58396599  0.40049783  1
  Te  Te149  1  0.95234026  0.57400417  0.76372818  1
  Te  Te150  1  0.90071522  0.94223495  0.07835298  1
  Te  Te151  1  0.93069419  0.90698101  0.41245206  1
  Te  Te152  1  0.97062911  0.84806173  0.72823538  1
  Te  Te153  1  0.25787802  0.09661375  0.26443032  1
  Te  Te154  1  0.23886276  0.06873219  0.59662444  1
  Te  Te155  1  0.22937026  0.10225610  0.92204103  1
  Te  Te156  1  0.23298244  0.41202249  0.26155029  1
  Te  Te157  1  0.24252812  0.44255690  0.60379905  1
  Te  Te158  1  0.20934997  0.39453387  0.90909922  1
  Te  Te159  1  0.24445737  0.73129575  0.23338381  1
  Te  Te160  1  0.23007806  0.76516548  0.59332662  1
  Te  Te161  1  0.25940468  0.73811098  0.91195360  1
  Te  Te162  1  0.60159014  0.09799631  0.23422753  1
  Te  Te163  1  0.55898952  0.11765391  0.61568953  1
  Te  Te164  1  0.59598729  0.10732168  0.88399313  1
  Te  Te165  1  0.58711316  0.40464496  0.25178557  1
  Te  Te166  1  0.57989791  0.41224875  0.60938442  1
  Te  Te167  1  0.56673480  0.39525554  0.90582227  1
  Te  Te168  1  0.58802045  0.74784852  0.23834157  1
  Te  Te169  1  0.56881365  0.75332172  0.58107074  1
  Te  Te170  1  0.57715885  0.73990844  0.91319035  1
  Te  Te171  1  0.91704260  0.08088724  0.24572344  1
  Te  Te172  1  0.94157078  0.05272142  0.61315952  1
  Te  Te173  1  0.92179171  0.09702804  0.88670365  1
  Te  Te174  1  0.92116095  0.42818354  0.23875453  1
  Te  Te175  1  0.94073449  0.41629713  0.59574092  1
  Te  Te176  1  0.93841534  0.43003843  0.89910219  1
  Te  Te177  1  0.92042848  0.75882035  0.25285336  1
  Te  Te178  1  0.90364214  0.78209708  0.58785535  1
  Te  Te179  1  0.92288439  0.76870377  0.91721097  1
