# generated using pymatgen
data_In2Te3
_symmetry_space_group_name_H-M   'P 1'
_cell_length_a   18.76673106
_cell_length_b   18.76957741
_cell_length_c   18.77177735
_cell_angle_alpha   90.02281258
_cell_angle_beta   89.99784177
_cell_angle_gamma   90.02035165
_symmetry_Int_Tables_number   1
_chemical_formula_structural   In2Te3
_chemical_formula_sum   'In72 Te108'
_cell_volume   6612.23769907
_cell_formula_units_Z   36
loop_
 _symmetry_equiv_pos_site_id
 _symmetry_equiv_pos_as_xyz
  1  'x, y, z'
loop_
 _atom_site_type_symbol
 _atom_site_label
 _atom_site_symmetry_multiplicity
 _atom_site_fract_x
 _atom_site_fract_y
 _atom_site_fract_z
 _atom_site_occupancy
  In  In0  1  0.49144030  0.16779923  0.65176618  1
  In  In1  1  0.01663335  0.50272291  0.15972554  1
  In  In2  1  0.32273144  0.68801701  0.33819506  1
  In  In3  1  0.50631455  0.68080593  0.17252268  1
  In  In4  1  0.18683186  0.16797939  0.34417651  1
  In  In5  1  0.83913512  0.01012030  0.80086778  1
  In  In6  1  0.31645106  0.66509445  0.65057291  1
  In  In7  1  0.00704503  0.17085723  0.48503674  1
  In  In8  1  0.81861956  0.83928436  0.02617688  1
  In  In9  1  0.65662616  0.00861643  0.00426719  1
  In  In10  1  0.66442368  0.67870027  0.33914306  1
  In  In11  1  0.49816583  0.32153861  0.18568900  1
  In  In12  1  0.81697387  -0.03012884  0.21473001  1
  In  In13  1  0.18558125  0.34178562  0.82685153  1
  In  In14  1  0.33310822  0.18240843  0.82433908  1
  In  In15  1  0.81486940  0.15767850  0.64197356  1
  In  In16  1  0.35060510  0.65962264  0.02388337  1
  In  In17  1  0.00888026  0.15047501  0.81984128  1
  In  In18  1  0.82888407  0.13192618  0.36653976  1
  In  In19  1  0.67162134  0.82894415  0.49153615  1
  In  In20  1  0.33374951  0.14542314  0.17217829  1
  In  In21  1  0.49945632  0.65867416  0.82800998  1
  In  In22  1  0.81932449  0.50153150  -0.00630508  1
  In  In23  1  0.30844141  0.00660700  0.61739925  1
  In  In24  1  -0.02387959  0.68452033  0.64691499  1
  In  In25  1  0.32734350  0.00197729  0.01729981  1
  In  In26  1  -0.01212144  -0.02998382  0.34449361  1
  In  In27  1  0.16143550  0.15859260  0.01238362  1
  In  In28  1  0.47590745  -0.01718860  0.19529646  1
  In  In29  1  0.17851236  0.84650717  0.33675476  1
  In  In30  1  0.50953074  0.00886227  0.83349690  1
  In  In31  1  0.03921082  0.00083469  0.65087204  1
  In  In32  1  0.48332915  0.67256892  0.48886666  1
  In  In33  1  0.32908119  0.33159937  -0.01427786  1
  In  In34  1  0.01723469  0.31386889  0.34042112  1
  In  In35  1  0.50640132  0.50641962  0.35058336  1
  In  In36  1  -0.00032449  0.34268738  0.01766434  1
  In  In37  1  0.01611489  0.32655243  0.64807987  1
  In  In38  1  0.83260497  0.33868563  0.83121282  1
  In  In39  1  0.83566202  0.19941440  0.01409007  1
  In  In40  1  0.00764876  0.00392904  0.01982965  1
  In  In41  1  0.15812357  0.49767226  0.33857782  1
  In  In42  1  0.16239358  0.84332107  0.01856304  1
  In  In43  1  0.00757724  0.83434355  0.84727072  1
  In  In44  1  0.46100331  0.35414860  0.81090260  1
  In  In45  1  0.66501940  0.34634555  0.33991852  1
  In  In46  1  0.49766442  -0.02483067  0.49655087  1
  In  In47  1  0.82390977  0.64620929  0.82628418  1
  In  In48  1  0.65793290  0.65237810  0.65793430  1
  In  In49  1  0.33358699  0.49418829  0.50827636  1
  In  In50  1  0.16463626  0.49875777  0.65698054  1
  In  In51  1  0.49918302  0.83442589  0.01477697  1
  In  In52  1  0.02380926  0.67205530  -0.00673426  1
  In  In53  1  0.67773080  0.16048307  0.16644519  1
  In  In54  1  0.01136896  0.68587901  0.34254564  1
  In  In55  1  0.66356808  -0.01161852  0.65212713  1
  In  In56  1  0.83440526  0.68495841  0.18434626  1
  In  In57  1  0.31864696  0.82700690  0.81499789  1
  In  In58  1  0.17431110  0.64754124  0.82557961  1
  In  In59  1  0.17982065  0.83094836  0.63682960  1
  In  In60  1  0.83479207  0.51198469  0.65975015  1
  In  In61  1  0.66787104  0.34059971  -0.00393740  1
  In  In62  1  0.51134975  0.50625479  0.00864781  1
  In  In63  1  0.66351613  0.33257795  0.65699094  1
  In  In64  1  0.48289684  0.14680308  0.33713746  1
  In  In65  1  0.49724341  0.33616622  0.50178517  1
  In  In66  1  0.82035490  0.83182749  0.63212035  1
  In  In67  1  0.30297490  0.50022464  0.17336458  1
  In  In68  1  0.00814601  0.50059313  0.50391954  1
  In  In69  1  0.64508656  0.83835880  0.83607109  1
  In  In70  1  0.81930527  0.49341996  0.34907091  1
  In  In71  1  0.85257949  0.32566819  0.15679246  1
  Te  Te72  1  0.10867489  0.06145752  0.11140610  1
  Te  Te73  1  0.08682099  0.06645851  0.40949231  1
  Te  Te74  1  0.11682640  0.08736374  0.74283256  1
  Te  Te75  1  0.10828586  0.41049858  0.09045328  1
  Te  Te76  1  0.09963142  0.39632213  0.43978356  1
  Te  Te77  1  0.07414688  0.41990208  0.75229467  1
  Te  Te78  1  0.06597652  0.76460660  0.09850367  1
  Te  Te79  1  0.10022894  0.76238552  0.43455292  1
  Te  Te80  1  0.08971285  0.75090806  0.74697740  1
  Te  Te81  1  0.43961831  0.08246723  0.08222664  1
  Te  Te82  1  0.39460074  0.06394635  0.42607372  1
  Te  Te83  1  0.40487516  0.07008616  0.73548751  1
  Te  Te84  1  0.41691257  0.41532407  0.09206961  1
  Te  Te85  1  0.40294005  0.40856712  0.40186725  1
  Te  Te86  1  0.37602125  0.43390182  0.72159944  1
  Te  Te87  1  0.39873839  0.77432121  0.11236971  1
  Te  Te88  1  0.43810938  0.77398734  0.38690496  1
  Te  Te89  1  0.41864277  0.74816902  0.73402300  1
  Te  Te90  1  0.77357998  0.07106347  0.08685782  1
  Te  Te91  1  0.72430117  0.06644837  0.44405549  1
  Te  Te92  1  0.72278616  0.09301513  0.74783576  1
  Te  Te93  1  0.74573875  0.41990502  0.10064060  1
  Te  Te94  1  0.73550003  0.42104345  0.44668629  1
  Te  Te95  1  0.74297279  0.42925525  0.74956543  1
  Te  Te96  1  0.73178478  0.74139896  0.09176693  1
  Te  Te97  1  0.77607175  0.76091954  0.40396357  1
  Te  Te98  1  0.74921446  0.76124697  0.75129816  1
  Te  Te99  1  0.10278160  0.24186445  0.24539199  1
  Te  Te100  1  0.10346523  0.22078690  0.59015840  1
  Te  Te101  1  0.07987319  0.25146648  0.91252836  1
  Te  Te102  1  0.09591845  0.60149965  0.24512479  1
  Te  Te103  1  0.09054509  0.60624811  0.57794471  1
  Te  Te104  1  0.08922718  0.56611543  0.91549578  1
  Te  Te105  1  0.07977709  0.91149013  0.24447521  1
  Te  Te106  1  0.09777165  0.91443617  0.54495174  1
  Te  Te107  1  0.09710077  0.93687535  0.91339651  1
  Te  Te108  1  0.39304468  0.24985521  0.26855820  1
  Te  Te109  1  0.39582428  0.24516117  0.56699852  1
  Te  Te110  1  0.43285659  0.24272021  0.92099205  1
  Te  Te111  1  0.41381098  0.58397600  0.25434222  1
  Te  Te112  1  0.42979233  0.57544999  0.59408683  1
  Te  Te113  1  0.40845426  0.57094303  0.91484154  1
  Te  Te114  1  0.40004941  0.90199990  0.29560340  1
  Te  Te115  1  0.39881597  0.89480577  0.57625012  1
  Te  Te116  1  0.41298838  0.91086486  0.91279669  1
  Te  Te117  1  0.76137888  0.25096543  0.25697098  1
  Te  Te118  1  0.74041829  0.25199663  0.55804260  1
  Te  Te119  1  0.73973600  0.24109248  0.90295681  1
  Te  Te120  1  0.74232789  0.57973296  0.25046387  1
  Te  Te121  1  0.77314651  0.61485630  0.57371935  1
  Te  Te122  1  0.72485172  0.57920246  0.91153194  1
  Te  Te123  1  0.71638796  0.89130120  0.28992417  1
  Te  Te124  1  0.76789705  0.95382591  0.54461074  1
  Te  Te125  1  0.75158418  0.92368141  0.90558317  1
  Te  Te126  1  0.25458783  0.25018924  0.09114459  1
  Te  Te127  1  0.27298496  0.22136129  0.45399669  1
  Te  Te128  1  0.26369393  0.26718680  0.72524631  1
  Te  Te129  1  0.23311716  0.59066128  0.08059862  1
  Te  Te130  1  0.24533720  0.58857199  0.42615331  1
  Te  Te131  1  0.27862215  0.55544741  0.75562509  1
  Te  Te132  1  0.25032589  0.91978907  0.11156131  1
  Te  Te133  1  0.28194627  0.94813254  0.39080427  1
  Te  Te134  1  0.24022073  0.92961971  0.73805003  1
  Te  Te135  1  0.58308968  0.24604536  0.08305094  1
  Te  Te136  1  0.57897727  0.24264109  0.41079753  1
  Te  Te137  1  0.56534768  0.25763087  0.74920023  1
  Te  Te138  1  0.59574565  0.59713476  0.08862382  1
  Te  Te139  1  0.60013536  0.58416232  0.44085466  1
  Te  Te140  1  0.58240417  0.56516700  0.74871988  1
  Te  Te141  1  0.59012663  0.91712739  0.10409563  1
  Te  Te142  1  0.60049823  0.92345998  0.39573803  1
  Te  Te143  1  0.56042286  0.90746151  0.72995676  1
  Te  Te144  1  0.95491361  0.22417256  0.10539396  1
  Te  Te145  1  0.89935321  0.25842950  0.42092410  1
  Te  Te146  1  0.91233966  0.24300210  0.74007333  1
  Te  Te147  1  0.91281071  0.58764627  0.08323531  1
  Te  Te148  1  0.91751895  0.58799253  0.41847896  1
  Te  Te149  1  0.93836908  0.57930642  0.75169533  1
  Te  Te150  1  0.92016523  0.91437845  0.10800555  1
  Te  Te151  1  0.89302784  0.88135215  0.41733911  1
  Te  Te152  1  0.92996774  0.90705418  0.73533462  1
  Te  Te153  1  0.26061185  0.05682256  0.26866204  1
  Te  Te154  1  0.22305730  0.10865087  0.55201514  1
  Te  Te155  1  0.25325265  0.08576449  0.91345182  1
  Te  Te156  1  0.24301890  0.40133781  0.26447214  1
  Te  Te157  1  0.24926710  0.39883508  0.58727209  1
  Te  Te158  1  0.24292620  0.43492618  0.92650635  1
  Te  Te159  1  0.23887634  0.75230741  0.23617501  1
  Te  Te160  1  0.28216359  0.76761734  0.54755422  1
  Te  Te161  1  0.24840132  0.74465164  0.92305667  1
  Te  Te162  1  0.58910458  0.07345866  0.25391811  1
  Te  Te163  1  0.58521854  0.08766417  0.56292973  1
  Te  Te164  1  0.58714412  0.10284874  0.91556863  1
  Te  Te165  1  0.58631612  0.43296466  0.24183951  1
  Te  Te166  1  0.57799991  0.42950925  0.58311657  1
  Te  Te167  1  0.57392985  0.41510272  0.90315687  1
  Te  Te168  1  0.59409156  0.77640457  0.24949183  1
  Te  Te169  1  0.57437644  0.75628126  0.58277410  1
  Te  Te170  1  0.58352994  0.73782156  0.93161370  1
  Te  Te171  1  0.91541112  0.08063151  0.25550481  1
  Te  Te172  1  0.92685182  0.07662836  0.57717000  1
  Te  Te173  1  0.91099150  0.08250640  0.91757284  1
  Te  Te174  1  0.92863422  0.42081651  0.25800200  1
  Te  Te175  1  0.90950382  0.40753035  0.57509998  1
  Te  Te176  1  0.92549814  0.42693065  0.91320277  1
  Te  Te177  1  0.91341760  0.77631058  0.27199705  1
  Te  Te178  1  0.93516373  0.78650160  0.54342813  1
  Te  Te179  1  0.90224025  0.75084520  0.92010254  1
