# generated using pymatgen
data_In2Te3
_symmetry_space_group_name_H-M   'P 1'
_cell_length_a   19.02006353
_cell_length_b   19.01352670
_cell_length_c   19.02408058
_cell_angle_alpha   90.26400429
_cell_angle_beta   90.02825310
_cell_angle_gamma   90.05286626
_symmetry_Int_Tables_number   1
_chemical_formula_structural   In2Te3
_chemical_formula_sum   'In72 Te108'
_cell_volume   6879.76288199
_cell_formula_units_Z   36
loop_
 _symmetry_equiv_pos_site_id
 _symmetry_equiv_pos_as_xyz
  1  'x, y, z'
loop_
 _atom_site_type_symbol
 _atom_site_label
 _atom_site_symmetry_multiplicity
 _atom_site_fract_x
 _atom_site_fract_y
 _atom_site_fract_z
 _atom_site_occupancy
  In  In0  1  -0.02923712  0.84086111  0.14829107  1
  In  In1  1  0.31949284  0.18314203  0.48140011  1
  In  In2  1  0.83622023  0.01050090  0.51011516  1
  In  In3  1  0.34512080  0.83820203  0.15901241  1
  In  In4  1  0.78670969  0.33870885  0.84391747  1
  In  In5  1  0.62985169  0.33175747  0.64729450  1
  In  In6  1  0.66298031  0.14955618  0.86995761  1
  In  In7  1  0.30476808  0.67670740  0.67679744  1
  In  In8  1  0.33922996  0.01001319  0.67607255  1
  In  In9  1  -0.04927740  0.62693952  0.35982493  1
  In  In10  1  -0.02599068  0.68808797  0.00541100  1
  In  In11  1  0.34856364  0.15744640  0.16432339  1
  In  In12  1  0.49645726  0.17342832  0.65765557  1
  In  In13  1  0.01037629  0.47896739  0.16132234  1
  In  In14  1  0.48947822  0.82621677  0.67003203  1
  In  In15  1  0.51273247  0.35432219  0.86377579  1
  In  In16  1  0.85913443  0.66728610  0.82900986  1
  In  In17  1  0.17213977  0.49012685  0.34978942  1
  In  In18  1  0.15203513  0.69561456  0.80691704  1
  In  In19  1  0.85013256  0.85222981  0.32900000  1
  In  In20  1  0.15994935  0.82827940  0.35676890  1
  In  In21  1  -0.01347039  0.81485155  0.52003759  1
  In  In22  1  -0.00582180  0.33297616  0.32638765  1
  In  In23  1  0.00104080  0.31114418  0.68641709  1
  In  In24  1  0.67330227  0.32542418  0.03528635  1
  In  In25  1  0.84535944  -0.01049566  0.83712523  1
  In  In26  1  0.67256158  -0.01454237  0.29997023  1
  In  In27  1  0.14231994  0.15852161  -0.00891029  1
  In  In28  1  0.65465051  0.81139760  0.82193717  1
  In  In29  1  0.50186877  0.84032382  0.01952172  1
  In  In30  1  0.71383565  0.83434059  0.50576347  1
  In  In31  1  0.53373162  -0.01375273  0.49549969  1
  In  In32  1  0.14567894  0.30201164  0.83446507  1
  In  In33  1  0.68623090  0.64643584  0.65508391  1
  In  In34  1  0.18155441  0.00114706  0.17293552  1
  In  In35  1  0.32898857  0.51780951  0.51133881  1
  In  In36  1  0.17534289  0.34482426  0.51364386  1
  In  In37  1  0.32937187  0.18115364  0.84674788  1
  In  In38  1  0.33648203  0.01168560  0.00822959  1
  In  In39  1  0.36400508  0.00226625  0.32165351  1
  In  In40  1  0.16411051  0.65196683  0.16460658  1
  In  In41  1  0.16066661  0.00302008  0.49140857  1
  In  In42  1  0.16509376  0.49805309  -0.00477278  1
  In  In43  1  -0.00876414  0.18297767  0.49595367  1
  In  In44  1  0.70861822  -0.00278968  0.02479056  1
  In  In45  1  0.81723424  0.51844468  0.00873333  1
  In  In46  1  0.67270515  0.30738119  0.29433954  1
  In  In47  1  0.53423146  0.65992354  0.13085445  1
  In  In48  1  -0.00010413  0.11962169  0.83751730  1
  In  In49  1  0.00018604  0.02619498  0.31400005  1
  In  In50  1  0.66589903  0.16554034  0.46238782  1
  In  In51  1  0.35918421  0.67379696  0.33312205  1
  In  In52  1  0.52679077  0.52495315  0.32848148  1
  In  In53  1  -0.02696657  0.50655447  0.82252296  1
  In  In54  1  0.33195348  0.33884971  0.01016359  1
  In  In55  1  0.09366360  -0.07723749  0.78682949  1
  In  In56  1  0.47836135  0.63110296  0.87784045  1
  In  In57  1  0.68079008  -0.02897078  0.67215584  1
  In  In58  1  0.16549576  0.33619891  0.18529571  1
  In  In59  1  -0.03315336  0.17678030  0.14277589  1
  In  In60  1  0.15350198  0.67574666  0.53847438  1
  In  In61  1  0.32217793  0.82197893  0.85560541  1
  In  In62  1  0.83243767  0.16835701  0.64787581  1
  In  In63  1  0.85113602  0.50498091  0.67284611  1
  In  In64  1  0.84015256  0.37529803  0.46118999  1
  In  In65  1  0.47624966  0.36595726  0.50203205  1
  In  In66  1  0.49055662  0.33629394  0.14920515  1
  In  In67  1  0.51207308  0.67025880  0.48498420  1
  In  In68  1  0.70106883  0.52708146  0.85563035  1
  In  In69  1  0.50223527  0.49651816  0.68317607  1
  In  In70  1  0.78601206  0.68951342  0.17352311  1
  In  In71  1  0.50153708  0.17212791  0.31237190  1
  Te  Te72  1  0.07518580  0.07355642  0.09483391  1
  Te  Te73  1  0.08826329  0.10635540  0.40745556  1
  Te  Te74  1  0.09478529  0.06452476  0.74481997  1
  Te  Te75  1  0.08558380  0.38821579  0.06865143  1
  Te  Te76  1  0.06871871  0.41588765  0.42858770  1
  Te  Te77  1  0.07787719  0.41972280  0.75708949  1
  Te  Te78  1  0.08288218  0.75530850  0.08987994  1
  Te  Te79  1  0.05939597  0.73082641  0.41266683  1
  Te  Te80  1  0.09856608  0.79227532  0.70965192  1
  Te  Te81  1  0.43305939  0.05059325  0.11202960  1
  Te  Te82  1  0.43726773  0.08899161  0.43119396  1
  Te  Te83  1  0.43058603  0.09245562  0.76454185  1
  Te  Te84  1  0.42680565  0.44202530  0.06371050  1
  Te  Te85  1  0.40962750  0.45324853  0.40099700  1
  Te  Te86  1  0.42052087  0.40943792  0.76502847  1
  Te  Te87  1  0.40746715  0.73490395  0.07016273  1
  Te  Te88  1  0.43428040  0.76946503  0.41297086  1
  Te  Te89  1  0.42222742  0.73357847  0.76918456  1
  Te  Te90  1  0.76785799  0.09632051  0.11926590  1
  Te  Te91  1  0.76132994  0.07192703  0.39516013  1
  Te  Te92  1  0.74774290  0.08393650  0.75124643  1
  Te  Te93  1  0.76571590  0.41838892  0.10636718  1
  Te  Te94  1  0.71860646  0.41149353  0.38774069  1
  Te  Te95  1  0.73007649  0.42559170  0.73375827  1
  Te  Te96  1  0.79916616  0.75426924  0.04500609  1
  Te  Te97  1  0.79331720  0.74988449  0.41732446  1
  Te  Te98  1  0.76361709  0.74526619  0.73921301  1
  Te  Te99  1  0.07110178  0.23451292  0.24143741  1
  Te  Te100  1  0.09385415  0.24129669  0.59045539  1
  Te  Te101  1  0.03780094  0.24220645  0.92176859  1
  Te  Te102  1  0.07486035  0.57607928  0.26211511  1
  Te  Te103  1  0.04516566  0.58778133  0.57709836  1
  Te  Te104  1  0.05500136  0.57810497  0.92963351  1
  Te  Te105  1  0.08198142  0.90962929  0.25297519  1
  Te  Te106  1  0.09209940  0.90250137  0.57766830  1
  Te  Te107  1  0.03578310  0.90467879  0.92776862  1
  Te  Te108  1  0.40198078  0.26785874  0.25303374  1
  Te  Te109  1  0.40201583  0.26502966  0.58581501  1
  Te  Te110  1  0.43116594  0.24849951  0.93712506  1
  Te  Te111  1  0.43463737  0.59473421  0.23145136  1
  Te  Te112  1  0.43106675  0.59968950  0.59277014  1
  Te  Te113  1  0.39099412  0.54172024  0.95015468  1
  Te  Te114  1  0.44383767  0.89774235  0.25293713  1
  Te  Te115  1  0.42311492  0.92554970  0.57830834  1
  Te  Te116  1  0.41907068  0.91884318  0.92049319  1
  Te  Te117  1  0.76302826  0.21988048  0.21636052  1
  Te  Te118  1  0.73585520  0.25399768  0.56873194  1
  Te  Te119  1  0.76141929  0.23320922  0.94841695  1
  Te  Te120  1  0.69263968  0.60913524  0.24858989  1
  Te  Te121  1  0.77378806  0.57122393  0.56379894  1
  Te  Te122  1  0.75556335  0.64831097  0.94236394  1
  Te  Te123  1  0.75559455  0.88988968  0.22311050  1
  Te  Te124  1  0.80030107  0.90263718  0.61047271  1
  Te  Te125  1  0.74236839  0.90147757  0.90594875  1
  Te  Te126  1  0.24600063  0.23092213  0.07835475  1
  Te  Te127  1  0.24380036  0.27766823  0.40259230  1
  Te  Te128  1  0.24628416  0.24464152  0.74673906  1
  Te  Te129  1  0.25660923  0.57641370  0.07989879  1
  Te  Te130  1  0.24297024  0.60622191  0.42114503  1
  Te  Te131  1  0.23384952  0.58354151  0.76055237  1
  Te  Te132  1  0.24309662  0.90942348  0.07087444  1
  Te  Te133  1  0.26218436  0.92583023  0.40883342  1
  Te  Te134  1  0.25867189  0.91404564  0.75613412  1
  Te  Te135  1  0.57318659  0.23326405  0.08694601  1
  Te  Te136  1  0.56328253  0.26818344  0.41955339  1
  Te  Te137  1  0.58982635  0.24934330  0.76754671  1
  Te  Te138  1  0.61016637  0.56824336  0.04597141  1
  Te  Te139  1  0.61599239  0.63357362  0.38327756  1
  Te  Te140  1  0.59160975  0.59037069  0.76648262  1
  Te  Te141  1  0.61744507  0.89382191  0.10058878  1
  Te  Te142  1  0.61318791  0.89344124  0.40939070  1
  Te  Te143  1  0.56902544  0.92127787  0.75914539  1
  Te  Te144  1  0.87735349  0.29753713  0.14216257  1
  Te  Te145  1  0.89356363  0.24404198  0.39962177  1
  Te  Te146  1  0.88613359  0.25022368  0.76365624  1
  Te  Te147  1  0.91765569  0.58517464  0.10244245  1
  Te  Te148  1  0.87332493  0.52310055  0.43030095  1
  Te  Te149  1  0.95979907  0.62169908  0.72104914  1
  Te  Te150  1  0.92938687  0.92598459  0.03531626  1
  Te  Te151  1  0.94307279  0.93406836  0.42369982  1
  Te  Te152  1  0.94095482  0.90093275  0.76713015  1
  Te  Te153  1  0.25585770  0.09313233  0.26632109  1
  Te  Te154  1  0.25260029  0.08850727  0.57809535  1
  Te  Te155  1  0.23984183  0.07641118  0.91079611  1
  Te  Te156  1  0.25275926  0.43896796  0.23926265  1
  Te  Te157  1  0.25018562  0.43571008  0.60087506  1
  Te  Te158  1  0.24009988  0.39862822  0.90785029  1
  Te  Te159  1  0.24816636  0.75457015  0.25193138  1
  Te  Te160  1  0.26463036  0.76445075  0.56867322  1
  Te  Te161  1  0.21918226  0.74731173  0.92541084  1
  Te  Te162  1  0.58334488  0.08145772  0.23322702  1
  Te  Te163  1  0.60646988  0.08415288  0.58828731  1
  Te  Te164  1  0.59289509  0.06190605  0.96086072  1
  Te  Te165  1  0.58393211  0.41781390  0.23639842  1
  Te  Te166  1  0.58588019  0.45051974  0.56395809  1
  Te  Te167  1  0.60653965  0.44696526  0.94805753  1
  Te  Te168  1  0.56918797  0.78870593  0.19802547  1
  Te  Te169  1  0.60142878  0.76047902  0.58989822  1
  Te  Te170  1  0.57139991  0.74132149  0.92613999  1
  Te  Te171  1  0.89676458  0.06354073  0.21440252  1
  Te  Te172  1  0.94120566  0.07800887  0.59657215  1
  Te  Te173  1  0.91281651  0.06815785  0.94488813  1
  Te  Te174  1  0.90420686  0.42309529  0.24973999  1
  Te  Te175  1  0.92003109  0.39706860  0.59310044  1
  Te  Te176  1  0.89141581  0.42131973  0.91729758  1
  Te  Te177  1  0.91938287  0.73564555  0.24847877  1
  Te  Te178  1  0.93031483  0.69179953  0.57888947  1
  Te  Te179  1  0.95136942  0.77696512  0.88473716  1
