# generated using pymatgen
data_In2Te3
_symmetry_space_group_name_H-M   'P 1'
_cell_length_a   18.86835819
_cell_length_b   18.86118599
_cell_length_c   18.87690093
_cell_angle_alpha   90.11475973
_cell_angle_beta   90.08872890
_cell_angle_gamma   89.93665890
_symmetry_Int_Tables_number   1
_chemical_formula_structural   In2Te3
_chemical_formula_sum   'In72 Te108'
_cell_volume   6717.87858767
_cell_formula_units_Z   36
loop_
 _symmetry_equiv_pos_site_id
 _symmetry_equiv_pos_as_xyz
  1  'x, y, z'
loop_
 _atom_site_type_symbol
 _atom_site_label
 _atom_site_symmetry_multiplicity
 _atom_site_fract_x
 _atom_site_fract_y
 _atom_site_fract_z
 _atom_site_occupancy
  In  In0  1  0.00614206  0.82034249  0.50287311  1
  In  In1  1  0.66586398  0.65613331  0.66096890  1
  In  In2  1  0.34030812  0.84423145  0.51682952  1
  In  In3  1  0.66517814  0.84317195  0.84821486  1
  In  In4  1  0.81926872  0.52025426  0.01716813  1
  In  In5  1  0.63819870  0.15380932  0.15574886  1
  In  In6  1  -0.04388576  0.69977689  0.30305521  1
  In  In7  1  0.18933828  0.32537820  0.49931031  1
  In  In8  1  0.35886075  0.00393915  0.66832341  1
  In  In9  1  -0.00200290  0.34874586  0.67835771  1
  In  In10  1  0.50122506  0.00540794  0.83706511  1
  In  In11  1  0.13394974  0.63935312  0.50577132  1
  In  In12  1  0.85313510  0.84015588  0.66643956  1
  In  In13  1  0.66425205  0.68057164  0.00277809  1
  In  In14  1  0.16331911  0.50150791  0.34713822  1
  In  In15  1  0.35405578  0.67957936  0.02734819  1
  In  In16  1  0.00586872  -0.00640589  -0.00294953  1
  In  In17  1  0.50660175  0.31112473  0.82745874  1
  In  In18  1  0.79321371  0.54649318  0.32204057  1
  In  In19  1  0.81470458  0.00836212  0.49952218  1
  In  In20  1  0.33181329  0.31510300  0.65972083  1
  In  In21  1  0.35493640  0.86612161  0.17789702  1
  In  In22  1  -0.01945918  0.30522637  0.33221599  1
  In  In23  1  0.17624479  -0.02342955  0.51645893  1
  In  In24  1  0.34298868  0.13889787  0.14649048  1
  In  In25  1  0.81560530  0.18355103  0.64119021  1
  In  In26  1  0.35916380  0.30556003  0.36646964  1
  In  In27  1  0.50556194  0.66763000  0.16478619  1
  In  In28  1  0.65606501  0.48398584  0.81455046  1
  In  In29  1  0.15579259  0.66793725  0.83898626  1
  In  In30  1  0.81008559  0.13807245  0.34506322  1
  In  In31  1  0.15276252  0.67021833  0.14167767  1
  In  In32  1  -0.02553060  0.49023140  0.51392818  1
  In  In33  1  0.34709230  0.00027940  -0.01674052  1
  In  In34  1  0.80534171  0.84812538  0.01004373  1
  In  In35  1  0.52138991  0.48968180  0.65215246  1
  In  In36  1  0.84167118  0.18175933  0.00640157  1
  In  In37  1  0.16490073  0.00910259  0.18068427  1
  In  In38  1  0.15206179  0.82193015  0.00232696  1
  In  In39  1  0.19107888  0.15890936  -0.00111712  1
  In  In40  1  0.49726979  0.13709088  0.32134931  1
  In  In41  1  0.53481352  0.83893025  0.31682011  1
  In  In42  1  -0.01275777  0.32026653  -0.01879021  1
  In  In43  1  0.67560485  0.34872725  0.32058149  1
  In  In44  1  0.85852367  0.66453273  0.82470350  1
  In  In45  1  0.17258114  0.84086813  0.68345015  1
  In  In46  1  0.00698872  0.50666548  0.82689171  1
  In  In47  1  0.51570813  0.32084083  0.50319904  1
  In  In48  1  -0.00550584  0.15909482  0.48437347  1
  In  In49  1  0.13926654  0.32221011  0.18430609  1
  In  In50  1  0.35238967  0.46694160  0.18144724  1
  In  In51  1  0.17630144  0.85366869  0.33273325  1
  In  In52  1  0.82542552  0.34544724  0.15456257  1
  In  In53  1  0.81403611  0.69421307  0.47731318  1
  In  In54  1  0.81219480  0.33325876  0.81713776  1
  In  In55  1  0.33254822  0.67530777  0.67037402  1
  In  In56  1  0.17302846  0.17020059  0.67891650  1
  In  In57  1  0.66164721  0.16067584  0.82940685  1
  In  In58  1  0.36283141  0.31101004  -0.01442704  1
  In  In59  1  0.51543593  0.33160320  0.14529175  1
  In  In60  1  0.51763445  0.49747840  0.35003186  1
  In  In61  1  -0.01313925  0.50376781  0.15406854  1
  In  In62  1  -0.00906533  -0.01739598  0.32751906  1
  In  In63  1  0.80646373  -0.00955432  0.19040910  1
  In  In64  1  -0.00252578  0.84340573  0.83502085  1
  In  In65  1  0.65114632  0.03571677  0.63759624  1
  In  In66  1  0.34674622  0.52253733  0.84043446  1
  In  In67  1  0.30917557  0.66991270  0.34851961  1
  In  In68  1  0.02773156  0.15698083  0.83627109  1
  In  In69  1  0.49298558  0.82524661  0.66932480  1
  In  In70  1  0.51521843  0.65959403  0.48391937  1
  In  In71  1  0.17706366  0.50768598  -0.02287011  1
  Te  Te72  1  0.08311280  0.09373288  0.08369603  1
  Te  Te73  1  0.08757098  0.05710415  0.41949036  1
  Te  Te74  1  0.09409510  0.06429188  0.74431361  1
  Te  Te75  1  0.08730580  0.41876839  0.07431348  1
  Te  Te76  1  0.06936142  0.40462297  0.41724092  1
  Te  Te77  1  0.09725300  0.40614023  0.76999918  1
  Te  Te78  1  0.04957036  0.75719315  0.08508624  1
  Te  Te79  1  0.08902807  0.74561775  0.39717938  1
  Te  Te80  1  0.06898239  0.74459486  0.74160737  1
  Te  Te81  1  0.44875397  0.05024655  0.08545108  1
  Te  Te82  1  0.44462169  0.09107000  0.45018275  1
  Te  Te83  1  0.43107391  0.10423576  0.75208866  1
  Te  Te84  1  0.43136519  0.42726635  0.05889718  1
  Te  Te85  1  0.41834161  0.42443578  0.43868581  1
  Te  Te86  1  0.42363922  0.41814035  0.74597719  1
  Te  Te87  1  0.44844760  0.78730500  0.08846748  1
  Te  Te88  1  0.41794271  0.75786676  0.40995050  1
  Te  Te89  1  0.40439162  0.75982692  0.76731712  1
  Te  Te90  1  0.75398896  0.08363678  0.08169108  1
  Te  Te91  1  0.70251466  0.07049368  0.42275882  1
  Te  Te92  1  0.75530933  0.08152806  0.73878562  1
  Te  Te93  1  0.72815647  0.42134058  0.07633748  1
  Te  Te94  1  0.76579414  0.42813370  0.40494102  1
  Te  Te95  1  0.76257136  0.43554210  0.72348536  1
  Te  Te96  1  0.72195618  0.77191925  0.10680655  1
  Te  Te97  1  0.72156037  0.79064402  0.41106655  1
  Te  Te98  1  0.75066749  0.75205295  0.75187687  1
  Te  Te99  1  0.08825103  0.22134274  0.27693036  1
  Te  Te100  1  0.07452618  0.24787275  0.58016215  1
  Te  Te101  1  0.10747968  0.26020845  0.91458437  1
  Te  Te102  1  0.08237311  0.58643763  0.25053038  1
  Te  Te103  1  0.07087594  0.55462415  0.60611050  1
  Te  Te104  1  0.06214233  0.59835449  0.93690655  1
  Te  Te105  1  0.07219818  0.89791642  0.23047058  1
  Te  Te106  1  0.06679114  0.91762947  0.60277431  1
  Te  Te107  1  0.10610563  0.92718214  0.90323416  1
  Te  Te108  1  0.42090164  0.25082538  0.23627521  1
  Te  Te109  1  0.42361847  0.22780044  0.57674109  1
  Te  Te110  1  0.42723063  0.20772367  0.90181416  1
  Te  Te111  1  0.40819499  0.58336732  0.26550986  1
  Te  Te112  1  0.42417306  0.58926915  0.58391789  1
  Te  Te113  1  0.43265499  0.59721165  0.93401384  1
  Te  Te114  1  0.43146193  0.94004369  0.27916232  1
  Te  Te115  1  0.45313789  0.93045891  0.56463247  1
  Te  Te116  1  0.42600764  0.89972155  0.90876871  1
  Te  Te117  1  0.74914012  0.23886657  0.23772552  1
  Te  Te118  1  0.69131200  0.24690456  0.59177957  1
  Te  Te119  1  0.73820346  0.25752951  0.92508780  1
  Te  Te120  1  0.72187915  0.62596780  0.22260120  1
  Te  Te121  1  0.74588442  0.58757862  0.55593452  1
  Te  Te122  1  0.74601369  0.59073650  0.89704147  1
  Te  Te123  1  0.75074956  0.88948834  0.28688366  1
  Te  Te124  1  0.74223914  0.91484620  0.59517318  1
  Te  Te125  1  0.74121327  0.94919346  0.92088035  1
  Te  Te126  1  0.25701302  0.26632583  0.09242369  1
  Te  Te127  1  0.25128575  0.22079307  0.41703139  1
  Te  Te128  1  0.26599430  0.24104280  0.76843315  1
  Te  Te129  1  0.25900623  0.56557887  0.09826707  1
  Te  Te130  1  0.25697676  0.56704201  0.44756502  1
  Te  Te131  1  0.24044763  0.58088921  0.74698013  1
  Te  Te132  1  0.24569919  0.91979095  0.08195799  1
  Te  Te133  1  0.27748158  0.93522133  0.40908577  1
  Te  Te134  1  0.28490375  0.90482755  0.75322456  1
  Te  Te135  1  0.56966989  0.23221698  0.05214472  1
  Te  Te136  1  0.58272003  0.24978425  0.38618583  1
  Te  Te137  1  0.60998435  0.25810167  0.72633734  1
  Te  Te138  1  0.58089574  0.58036884  0.07391678  1
  Te  Te139  1  0.61993363  0.56437651  0.43625689  1
  Te  Te140  1  0.56557656  0.59488371  0.75562695  1
  Te  Te141  1  0.58684528  0.98016930  0.10891153  1
  Te  Te142  1  0.62154332  0.91202231  0.41492284  1
  Te  Te143  1  0.59442610  0.92457675  0.73466950  1
  Te  Te144  1  0.93582486  0.25111660  0.10536556  1
  Te  Te145  1  0.88052049  0.24529294  0.42999161  1
  Te  Te146  1  0.91526410  0.23735262  0.75751039  1
  Te  Te147  1  0.89985673  0.60954951  0.10181685  1
  Te  Te148  1  0.92034416  0.59461738  0.40686190  1
  Te  Te149  1  0.90936512  0.56318938  0.73123953  1
  Te  Te150  1  0.90882730  0.92712864  0.09173575  1
  Te  Te151  1  0.90735846  0.90647989  0.42712407  1
  Te  Te152  1  0.91078026  0.93586400  0.76111037  1
  Te  Te153  1  0.26396094  0.08616436  0.25753889  1
  Te  Te154  1  0.25877340  0.08344996  0.58425354  1
  Te  Te155  1  0.26115842  0.08247403  0.89579268  1
  Te  Te156  1  0.25005517  0.39882896  0.27301006  1
  Te  Te157  1  0.24955019  0.41837577  0.59402042  1
  Te  Te158  1  0.26904241  0.41037330  0.90869718  1
  Te  Te159  1  0.25374642  0.75470761  0.23336142  1
  Te  Te160  1  0.23169115  0.74946107  0.56818509  1
  Te  Te161  1  0.25645289  0.74220546  0.92578528  1
  Te  Te162  1  0.59501797  0.04054986  0.24606496  1
  Te  Te163  1  0.54154419  0.11271246  0.56871914  1
  Te  Te164  1  0.61272574  0.05487911  0.92485170  1
  Te  Te165  1  0.58925969  0.43625791  0.23098633  1
  Te  Te166  1  0.61561476  0.40718044  0.57225523  1
  Te  Te167  1  0.58421800  0.40316602  0.91302513  1
  Te  Te168  1  0.59881742  0.70544901  0.27819421  1
  Te  Te169  1  0.58989062  0.75625036  0.57449495  1
  Te  Te170  1  0.56934903  0.76485500  0.92536649  1
  Te  Te171  1  0.91503201  0.08632698  0.24765077  1
  Te  Te172  1  0.91708133  0.07969579  0.58728903  1
  Te  Te173  1  0.91701682  0.08624409  0.91466283  1
  Te  Te174  1  0.90939539  0.42285890  0.25687873  1
  Te  Te175  1  0.89071594  0.39289372  0.58675060  1
  Te  Te176  1  0.89993300  0.42531103  0.91779876  1
  Te  Te177  1  0.85248515  0.78063719  0.23880294  1
  Te  Te178  1  0.91796550  0.72817641  0.58447576  1
  Te  Te179  1  0.90723061  0.76397037  0.92784964  1
