# generated using pymatgen
data_In2Te3
_symmetry_space_group_name_H-M   'P 1'
_cell_length_a   18.80063295
_cell_length_b   18.80311228
_cell_length_c   18.79915640
_cell_angle_alpha   90.00582052
_cell_angle_beta   90.02536308
_cell_angle_gamma   90.02429140
_symmetry_Int_Tables_number   1
_chemical_formula_structural   In2Te3
_chemical_formula_sum   'In72 Te108'
_cell_volume   6645.69624799
_cell_formula_units_Z   36
loop_
 _symmetry_equiv_pos_site_id
 _symmetry_equiv_pos_as_xyz
  1  'x, y, z'
loop_
 _atom_site_type_symbol
 _atom_site_label
 _atom_site_symmetry_multiplicity
 _atom_site_fract_x
 _atom_site_fract_y
 _atom_site_fract_z
 _atom_site_occupancy
  In  In0  1  0.49510966  0.32702341  0.14086498  1
  In  In1  1  -0.02137015  -0.03089608  0.66392332  1
  In  In2  1  0.82747841  0.15336664  0.00175301  1
  In  In3  1  0.68844744  0.14457686  0.79867276  1
  In  In4  1  0.18191283  0.18131055  0.32703670  1
  In  In5  1  0.70740777  0.67371352  0.32964259  1
  In  In6  1  0.83211118  0.48629113  -0.01390899  1
  In  In7  1  0.32688558  0.83025618  0.82585914  1
  In  In8  1  0.50229906  0.67178416  0.86544200  1
  In  In9  1  0.48266406  0.67321092  0.51752432  1
  In  In10  1  0.33689162  0.15198952  0.84289664  1
  In  In11  1  0.83433667  0.83931061  -0.02071880  1
  In  In12  1  0.30924689  0.65644678  0.34212031  1
  In  In13  1  0.50808451  0.00221557  0.82901394  1
  In  In14  1  0.81977363  0.64374771  0.18122340  1
  In  In15  1  0.31981416  0.67604939  -0.01962033  1
  In  In16  1  -0.00827795  0.64532527  -0.01288966  1
  In  In17  1  0.28954841  0.66627400  0.67085843  1
  In  In18  1  0.32852939  0.82785051  0.50686397  1
  In  In19  1  0.50407955  0.14358495  0.32969695  1
  In  In20  1  0.33951263  0.17218937  0.49720484  1
  In  In21  1  0.32975352  0.33909312  -0.00347627  1
  In  In22  1  0.15108336  0.83075353  0.33141498  1
  In  In23  1  0.30821825  0.50744445  0.48727329  1
  In  In24  1  0.67948567  0.32790591  0.34663125  1
  In  In25  1  0.49479885  0.83257062  -0.02682028  1
  In  In26  1  0.50353649  0.84245946  0.68028850  1
  In  In27  1  0.48311004  0.32711203  0.50612179  1
  In  In28  1  0.69891472  0.17956842  0.53784335  1
  In  In29  1  0.81696894  -0.03305948  0.51614075  1
  In  In30  1  0.34318785  0.15187745  0.16083826  1
  In  In31  1  0.66872500  0.83926880  0.17412632  1
  In  In32  1  0.00551740  0.33714452  -0.02170830  1
  In  In33  1  0.86701411  0.66600156  0.80238549  1
  In  In34  1  0.68450473  0.50053935  0.50143202  1
  In  In35  1  0.50719549  0.51431946  0.32024682  1
  In  In36  1  0.50042826  0.30839322  0.82538117  1
  In  In37  1  0.15763777  0.50016912  -0.00820173  1
  In  In38  1  0.16798521  0.67449624  0.17387342  1
  In  In39  1  0.65995960  0.00444833  0.32445420  1
  In  In40  1  0.84737602  0.34367043  0.82631853  1
  In  In41  1  0.63873632  0.67638323  -0.00898220  1
  In  In42  1  0.01012964  0.65872531  0.35260080  1
  In  In43  1  0.85534047  0.34773602  0.20149663  1
  In  In44  1  0.00564517  0.18408361  0.83921793  1
  In  In45  1  0.01296274  0.15999050  0.14863990  1
  In  In46  1  0.67799224  0.69013035  0.68148250  1
  In  In47  1  0.29915523  0.32425382  0.32978261  1
  In  In48  1  0.66789928  0.00401038  -0.00650594  1
  In  In49  1  -0.00794358  0.36316401  0.66691204  1
  In  In50  1  0.16601825  0.16731300  0.66690619  1
  In  In51  1  0.83742680  0.83835842  0.35615110  1
  In  In52  1  0.50389192  0.67607651  0.15197143  1
  In  In53  1  -0.01688021  0.16438601  0.50949187  1
  In  In54  1  0.16748318  0.34515452  0.17136017  1
  In  In55  1  0.84073737  0.17728982  0.33717401  1
  In  In56  1  0.16053731  -0.00738364  0.51016730  1
  In  In57  1  0.67244236  0.52863656  0.16805163  1
  In  In58  1  0.01096116  0.00071650  -0.00914064  1
  In  In59  1  0.50992078  0.47712916  0.67694145  1
  In  In60  1  -0.00327023  0.84071980  0.15893249  1
  In  In61  1  0.51953512  0.01104346  0.50132337  1
  In  In62  1  0.64834343  0.32241836  0.00448151  1
  In  In63  1  0.48148276  0.88526371  0.31230952  1
  In  In64  1  0.68239278  0.48718772  0.84196177  1
  In  In65  1  -0.00910354  -0.01012864  0.32968634  1
  In  In66  1  0.18949888  0.86065294  0.00349284  1
  In  In67  1  0.32445917  0.33440280  0.65620956  1
  In  In68  1  0.14799851  0.48263973  0.34705231  1
  In  In69  1  0.14523798  0.51000071  0.68379864  1
  In  In70  1  0.18564636  -0.00315417  0.82522840  1
  In  In71  1  0.87082322  0.67126643  0.53185537  1
  Te  Te72  1  0.10838719  0.07690727  0.07287084  1
  Te  Te73  1  0.08099599  0.08689440  0.41125459  1
  Te  Te74  1  0.07106469  0.07605607  0.74405856  1
  Te  Te75  1  0.06638039  0.42343973  0.08894088  1
  Te  Te76  1  0.03897078  0.40979712  0.41297864  1
  Te  Te77  1  0.09728810  0.39607645  0.76611819  1
  Te  Te78  1  0.08277716  0.75102643  0.07081074  1
  Te  Te79  1  0.06585269  0.76834541  0.43490053  1
  Te  Te80  1  0.03772752  0.69407250  0.70896986  1
  Te  Te81  1  0.40845992  0.04485737  0.08064131  1
  Te  Te82  1  0.40385221  0.06459426  0.41077738  1
  Te  Te83  1  0.41423042  0.07637649  0.74241981  1
  Te  Te84  1  0.40243407  0.42795791  0.09129927  1
  Te  Te85  1  0.41501460  0.42540652  0.41019460  1
  Te  Te86  1  0.40382640  0.41156272  0.76262924  1
  Te  Te87  1  0.40497586  0.76176169  0.07553818  1
  Te  Te88  1  0.41876546  0.75311021  0.40378977  1
  Te  Te89  1  0.41830220  0.73036448  0.74210238  1
  Te  Te90  1  0.74916080  0.07382533  0.09677296  1
  Te  Te91  1  0.75456623  0.08032298  0.42200996  1
  Te  Te92  1  0.77684383  0.04437812  0.72663197  1
  Te  Te93  1  0.74584424  0.41282771  0.08917631  1
  Te  Te94  1  0.77498743  0.39925092  0.43710925  1
  Te  Te95  1  0.76112329  0.42399846  0.73577762  1
  Te  Te96  1  0.75021149  0.74554595  0.08230115  1
  Te  Te97  1  0.75858082  0.75044772  0.44995280  1
  Te  Te98  1  0.79155431  0.77631638  0.73016988  1
  Te  Te99  1  0.07265679  0.25603436  0.25162722  1
  Te  Te100  1  0.07574245  0.25774858  0.58596683  1
  Te  Te101  1  0.10425163  0.23645415  0.93511322  1
  Te  Te102  1  0.07656215  0.57655641  0.24291055  1
  Te  Te103  1  0.04378030  0.58011801  0.59498459  1
  Te  Te104  1  0.09238328  0.59257979  0.89380037  1
  Te  Te105  1  0.09356149  0.93321466  0.23078986  1
  Te  Te106  1  0.10356279  0.90197334  0.61507502  1
  Te  Te107  1  0.08501057  0.90566409  0.89783823  1
  Te  Te108  1  0.41890956  0.25767842  0.26497182  1
  Te  Te109  1  0.42721937  0.23046544  0.60920259  1
  Te  Te110  1  0.42554935  0.23565300  0.93643010  1
  Te  Te111  1  0.40720585  0.59407046  0.23953992  1
  Te  Te112  1  0.40644807  0.56387604  0.59161715  1
  Te  Te113  1  0.40661571  0.57409797  0.91753226  1
  Te  Te114  1  0.40003938  0.94769259  0.20653784  1
  Te  Te115  1  0.41961453  0.92384256  0.58309755  1
  Te  Te116  1  0.39880163  0.93319460  0.91063984  1
  Te  Te117  1  0.74722575  0.24541741  0.23596372  1
  Te  Te118  1  0.79825314  0.27359192  0.59174380  1
  Te  Te119  1  0.75171551  0.25550124  0.91136839  1
  Te  Te120  1  0.77035028  0.54331173  0.28543944  1
  Te  Te121  1  0.75876383  0.58711804  0.60239959  1
  Te  Te122  1  0.75946200  0.60641666  0.91348288  1
  Te  Te123  1  0.76893518  0.92375860  0.25089938  1
  Te  Te124  1  0.72272774  0.92992501  0.62494833  1
  Te  Te125  1  0.74947604  0.92659367  0.89529551  1
  Te  Te126  1  0.24678956  0.24626314  0.08811950  1
  Te  Te127  1  0.22768772  0.26512306  0.44868498  1
  Te  Te128  1  0.25024401  0.25103344  0.76082374  1
  Te  Te129  1  0.24952320  0.58549021  0.08201181  1
  Te  Te130  1  0.20213919  0.60231436  0.43475899  1
  Te  Te131  1  0.24549633  0.57342955  0.77456314  1
  Te  Te132  1  0.28975787  0.93141846  0.08727414  1
  Te  Te133  1  0.24985920  0.91842569  0.41047187  1
  Te  Te134  1  0.24580318  0.90386578  0.72562842  1
  Te  Te135  1  0.58117677  0.22023636  0.08801814  1
  Te  Te136  1  0.58521022  0.23603849  0.42588537  1
  Te  Te137  1  0.60725715  0.25368348  0.73885436  1
  Te  Te138  1  0.56507130  0.56503601  0.06583518  1
  Te  Te139  1  0.58560158  0.59324650  0.42528158  1
  Te  Te140  1  0.58618985  0.58475067  0.75506414  1
  Te  Te141  1  0.57747496  0.91081491  0.07843254  1
  Te  Te142  1  0.59179507  0.90532378  0.41730329  1
  Te  Te143  1  0.60680446  0.93771128  0.73445132  1
  Te  Te144  1  0.91066249  0.26200093  0.07768772  1
  Te  Te145  1  0.93233831  0.26719282  0.41320217  1
  Te  Te146  1  0.91159188  0.24056674  0.73497699  1
  Te  Te147  1  0.91427757  0.56406127  0.09107228  1
  Te  Te148  1  0.91820756  0.57410610  0.43039186  1
  Te  Te149  1  0.94193339  0.56976027  0.71483215  1
  Te  Te150  1  0.90493738  0.93160529  0.07911666  1
  Te  Te151  1  0.94082119  0.90517655  0.44727441  1
  Te  Te152  1  0.87500595  0.92846259  0.76434936  1
  Te  Te153  1  0.25527817  0.07714040  0.25495816  1
  Te  Te154  1  0.26072965  0.07747043  0.58960294  1
  Te  Te155  1  0.23925381  0.08279170  0.93211827  1
  Te  Te156  1  0.25839402  0.44318514  0.24674740  1
  Te  Te157  1  0.22597431  0.42040865  0.57881830  1
  Te  Te158  1  0.22918629  0.40138482  0.90653715  1
  Te  Te159  1  0.26301340  0.76772446  0.24667447  1
  Te  Te160  1  0.22071365  0.75076107  0.57397184  1
  Te  Te161  1  0.21717844  0.75183365  0.89707789  1
  Te  Te162  1  0.58542741  0.08211071  0.22343121  1
  Te  Te163  1  0.59320310  0.09527323  0.59781133  1
  Te  Te164  1  0.58874655  0.10414154  0.90877989  1
  Te  Te165  1  0.59084641  0.41023167  0.24619698  1
  Te  Te166  1  0.59651583  0.39912771  0.58010801  1
  Te  Te167  1  0.56942692  0.41694641  0.91455691  1
  Te  Te168  1  0.58662050  0.74485758  0.26175376  1
  Te  Te169  1  0.58892382  0.76255131  0.57951098  1
  Te  Te170  1  0.60923343  0.78055076  0.88326353  1
  Te  Te171  1  0.91367514  0.08429536  0.23838312  1
  Te  Te172  1  0.89297124  0.07924975  0.59474345  1
  Te  Te173  1  0.91366748  0.07866893  0.90218772  1
  Te  Te174  1  0.95183464  0.42174436  0.28451810  1
  Te  Te175  1  0.87986556  0.40498259  0.57837642  1
  Te  Te176  1  0.94219160  0.44518592  0.89001420  1
  Te  Te177  1  0.91443004  0.75043349  0.25070025  1
  Te  Te178  1  0.93464081  0.76957256  0.62643769  1
  Te  Te179  1  0.93867717  0.76057089  0.90086726  1
