# generated using pymatgen
data_In2Te3
_symmetry_space_group_name_H-M   'P 1'
_cell_length_a   18.97441050
_cell_length_b   18.95239691
_cell_length_c   18.95120817
_cell_angle_alpha   89.99958032
_cell_angle_beta   89.78421005
_cell_angle_gamma   89.90705151
_symmetry_Int_Tables_number   1
_chemical_formula_structural   In2Te3
_chemical_formula_sum   'In72 Te108'
_cell_volume   6814.99726035
_cell_formula_units_Z   36
loop_
 _symmetry_equiv_pos_site_id
 _symmetry_equiv_pos_as_xyz
  1  'x, y, z'
loop_
 _atom_site_type_symbol
 _atom_site_label
 _atom_site_symmetry_multiplicity
 _atom_site_fract_x
 _atom_site_fract_y
 _atom_site_fract_z
 _atom_site_occupancy
  In  In0  1  0.80728796  -0.12172139  0.50123793  1
  In  In1  1  0.64850331  0.16969437  0.50324486  1
  In  In2  1  0.00802752  0.50415860  0.52400375  1
  In  In3  1  0.85076381  0.32029332  0.14045909  1
  In  In4  1  0.67128762  0.49930157  0.82938890  1
  In  In5  1  0.80686713  0.85009853  0.00174437  1
  In  In6  1  0.65881602  0.49757873  0.17786378  1
  In  In7  1  0.47191859  0.47780505  0.02820701  1
  In  In8  1  0.48771170  0.50027238  0.66251171  1
  In  In9  1  0.82834691  0.18411511  0.33023284  1
  In  In10  1  0.49232047  0.17279051  0.65245660  1
  In  In11  1  0.18023211  -0.01059674  0.17815788  1
  In  In12  1  0.37199420  -0.00903203  0.67871734  1
  In  In13  1  0.00490134  0.82044331  0.18352080  1
  In  In14  1  0.15458175  0.64736145  0.82697262  1
  In  In15  1  -0.01969189  0.67553863  0.34694802  1
  In  In16  1  0.68126950  0.35334907  0.67285608  1
  In  In17  1  0.84016556  0.36124950  0.49575251  1
  In  In18  1  0.82886330  0.03068024  0.17356210  1
  In  In19  1  0.17114470  0.35554772  0.83935673  1
  In  In20  1  -0.02214430  0.66725538  -0.03798185  1
  In  In21  1  0.34657413  -0.00184220  0.31128461  1
  In  In22  1  0.13994644  0.20548719  0.32113860  1
  In  In23  1  0.66451386  0.16221313  0.16453861  1
  In  In24  1  0.15252594  0.81417843  0.33597813  1
  In  In25  1  0.17514580  -0.00468685  0.48981658  1
  In  In26  1  0.84204942  0.17365888  0.68703479  1
  In  In27  1  -0.01518114  0.49973153  0.14267580  1
  In  In28  1  0.16794825  0.64331789  0.15198456  1
  In  In29  1  0.64773141  0.52092626  0.48597860  1
  In  In30  1  0.81851080  0.49775357  0.31821651  1
  In  In31  1  0.65204720  0.00271045  0.01075510  1
  In  In32  1  0.18331396  0.49212164  0.31001175  1
  In  In33  1  0.81941611  0.67754955  0.51533005  1
  In  In34  1  0.50039778  0.51188451  0.32357539  1
  In  In35  1  0.16472322  0.17639867  0.67006059  1
  In  In36  1  -0.02007630  -0.02182441  0.66943056  1
  In  In37  1  0.18215277  0.80387746  0.67995780  1
  In  In38  1  0.66263991  0.16842665  0.84881240  1
  In  In39  1  0.66965039  -0.01478958  0.35513574  1
  In  In40  1  0.48295505  0.16874994  0.32130442  1
  In  In41  1  0.49268855  0.81839907  0.64440370  1
  In  In42  1  0.58107290  0.73444987  0.80427051  1
  In  In43  1  0.64754191  0.33183761  0.01947399  1
  In  In44  1  -0.00762862  0.17638456  0.51805901  1
  In  In45  1  0.69599105  0.72731575  0.65321247  1
  In  In46  1  0.52216658  0.67283250  0.15646697  1
  In  In47  1  0.34556957  0.65700192  0.64593405  1
  In  In48  1  0.35282847  0.67458130  0.35502285  1
  In  In49  1  0.15921878  0.01245122  0.83838052  1
  In  In50  1  0.33576167  0.49351986  0.85444543  1
  In  In51  1  0.36152483  0.17853376  0.11522622  1
  In  In52  1  0.47808963  0.33749373  0.46739445  1
  In  In53  1  -0.00775863  0.52080943  0.81311802  1
  In  In54  1  0.34275784  0.66030060  0.02950968  1
  In  In55  1  0.01670622  -0.01524850  0.00055391  1
  In  In56  1  0.37366054  -0.00627386  -0.00200934  1
  In  In57  1  0.81928726  -0.01398596  0.82144687  1
  In  In58  1  0.29664117  0.17726659  0.48362967  1
  In  In59  1  0.84257340  0.52399441  -0.01581397  1
  In  In60  1  0.36859032  0.82976210  0.18594102  1
  In  In61  1  0.17760627  0.16615162  0.00654877  1
  In  In62  1  0.29218239  0.35251087  0.66542242  1
  In  In63  1  0.15546975  0.34830320  0.49977365  1
  In  In64  1  0.87613882  0.20491215  -0.09816360  1
  In  In65  1  0.47640534  0.29834423  0.86306936  1
  In  In66  1  0.35504301  0.83712721  0.85540007  1
  In  In67  1  0.65830321  0.83972810  0.16854382  1
  In  In68  1  -0.01533495  0.82030309  0.51784665  1
  In  In69  1  0.50411949  -0.02165563  0.49875185  1
  In  In70  1  0.16575740  0.84167173  -0.01440221  1
  In  In71  1  0.02149967  0.33606281  -0.00500010  1
  Te  Te72  1  0.08867234  0.07751045  0.09480657  1
  Te  Te73  1  0.08856423  0.10214132  0.42642000  1
  Te  Te74  1  0.06818478  0.08325644  0.74084726  1
  Te  Te75  1  0.09589718  0.40496448  0.10563177  1
  Te  Te76  1  0.07376275  0.43401065  0.40631621  1
  Te  Te77  1  0.09392709  0.43684036  0.73853069  1
  Te  Te78  1  0.08059031  0.74856974  0.07042551  1
  Te  Te79  1  0.08408425  0.72992953  0.44191007  1
  Te  Te80  1  0.07032218  0.73867160  0.74896534  1
  Te  Te81  1  0.42899465  0.04487745  0.12521432  1
  Te  Te82  1  0.41183451  0.08889209  0.43591151  1
  Te  Te83  1  0.43333724  0.09338063  0.76157611  1
  Te  Te84  1  0.41855639  0.40282632  0.14451092  1
  Te  Te85  1  0.39798902  0.43940963  0.40306590  1
  Te  Te86  1  0.41453756  0.40069866  0.75219876  1
  Te  Te87  1  0.43939125  0.76967183  0.06724007  1
  Te  Te88  1  0.45297995  0.70328165  0.46080623  1
  Te  Te89  1  0.41724981  0.73929272  0.75761643  1
  Te  Te90  1  0.75748585  0.10047436  0.06093742  1
  Te  Te91  1  0.75271396  0.09107465  0.42482145  1
  Te  Te92  1  0.73323990  0.08444224  0.74366875  1
  Te  Te93  1  0.76156433  0.42640622  0.07224108  1
  Te  Te94  1  0.72848405  0.41557980  0.40915304  1
  Te  Te95  1  0.77565363  0.43883338  0.74418048  1
  Te  Te96  1  0.71462343  0.74757476  0.06227545  1
  Te  Te97  1  0.74949813  0.76862014  0.42309616  1
  Te  Te98  1  0.77581349  0.69727467  0.77924175  1
  Te  Te99  1  0.09294507  0.28837393  0.21099853  1
  Te  Te100  1  0.07097441  0.27408108  0.60261108  1
  Te  Te101  1  0.09447225  0.23925952  0.90263549  1
  Te  Te102  1  0.06331090  0.58760584  0.24750782  1
  Te  Te103  1  0.11041231  0.54056162  0.62263857  1
  Te  Te104  1  0.08493009  0.56404407  0.93163813  1
  Te  Te105  1  0.07432441  0.92560611  0.26776536  1
  Te  Te106  1  0.09784753  0.91230055  0.59068848  1
  Te  Te107  1  0.06897514  0.89931091  0.88503409  1
  Te  Te108  1  0.39619319  0.25422116  0.24116465  1
  Te  Te109  1  0.39091167  0.26145557  0.57765696  1
  Te  Te110  1  0.42298524  0.23188236  0.98246019  1
  Te  Te111  1  0.41105082  0.60430909  0.23492587  1
  Te  Te112  1  0.42333436  0.57168965  0.54767112  1
  Te  Te113  1  0.42848305  0.58741595  0.92745377  1
  Te  Te114  1  0.43981944  0.88600841  0.30018149  1
  Te  Te115  1  0.39159715  0.89684136  0.56202899  1
  Te  Te116  1  0.46090082  0.92568911  0.90113899  1
  Te  Te117  1  0.74403737  0.26874433  0.23695655  1
  Te  Te118  1  0.75474201  0.25215656  0.57791675  1
  Te  Te119  1  0.74150203  0.28037407  0.91069544  1
  Te  Te120  1  0.74873857  0.59692945  0.23702349  1
  Te  Te121  1  0.72897171  0.58449078  0.59406378  1
  Te  Te122  1  0.74640576  0.60638457  0.90496281  1
  Te  Te123  1  0.75940801  0.92154212  0.25061741  1
  Te  Te124  1  0.73751323  0.87299246  0.63266378  1
  Te  Te125  1  0.71135909  0.91341151  0.90115135  1
  Te  Te126  1  0.23131172  0.25475827  0.11189190  1
  Te  Te127  1  0.24820695  0.28606655  0.39336026  1
  Te  Te128  1  0.25813585  0.24488332  0.76596007  1
  Te  Te129  1  0.25338220  0.54958588  0.07351979  1
  Te  Te130  1  0.23608454  0.59729136  0.39760825  1
  Te  Te131  1  0.26474518  0.57656151  0.75114907  1
  Te  Te132  1  0.26323806  0.90955550  0.07859517  1
  Te  Te133  1  0.25565924  0.90618071  0.39940666  1
  Te  Te134  1  0.25830491  0.91770220  0.76177943  1
  Te  Te135  1  0.55962567  0.23395294  0.08591476  1
  Te  Te136  1  0.58408928  0.25539588  0.39663637  1
  Te  Te137  1  0.58409306  0.25920821  0.74429767  1
  Te  Te138  1  0.58672156  0.56917722  0.06550024  1
  Te  Te139  1  0.60634450  0.60532609  0.37185719  1
  Te  Te140  1  0.56968325  0.58453945  0.75595992  1
  Te  Te141  1  0.56307205  0.93791297  0.11020594  1
  Te  Te142  1  0.60995053  0.88765497  0.44905743  1
  Te  Te143  1  0.59925540  0.86862270  0.73430760  1
  Te  Te144  1  0.92757954  0.22993001  0.04920962  1
  Te  Te145  1  0.92650338  0.26584717  0.41507427  1
  Te  Te146  1  0.92081464  0.25931797  0.77346717  1
  Te  Te147  1  0.90481205  0.61643573  0.08690005  1
  Te  Te148  1  0.89771173  0.57284594  0.42614399  1
  Te  Te149  1  0.90951391  0.62389961  0.74626141  1
  Te  Te150  1  0.91665798  0.91615382  0.09220008  1
  Te  Te151  1  0.92734344  0.92237919  0.43025996  1
  Te  Te152  1  0.88193611  0.88663804  0.73032637  1
  Te  Te153  1  0.23851091  0.09385633  0.27044695  1
  Te  Te154  1  0.25720494  0.07719136  0.59806122  1
  Te  Te155  1  0.26621144  0.07554624  0.92206948  1
  Te  Te156  1  0.28701155  0.45816090  0.20878823  1
  Te  Te157  1  0.24094942  0.45066053  0.56758259  1
  Te  Te158  1  0.27082237  0.39379845  0.93911756  1
  Te  Te159  1  0.24203076  0.75276267  0.22811450  1
  Te  Te160  1  0.24869202  0.73566461  0.57007230  1
  Te  Te161  1  0.25163415  0.73452458  0.91967186  1
  Te  Te162  1  0.58800992  0.07577690  0.26363151  1
  Te  Te163  1  0.58474262  0.06551015  0.59335418  1
  Te  Te164  1  0.56672049  0.09120985  0.92735718  1
  Te  Te165  1  0.55926565  0.40466715  0.23523660  1
  Te  Te166  1  0.57553986  0.40519196  0.57367690  1
  Te  Te167  1  0.56485141  0.41172167  0.91346323  1
  Te  Te168  1  0.59060060  0.74742333  0.26339214  1
  Te  Te169  1  0.56895613  0.71497162  0.56718775  1
  Te  Te170  1  0.61430600  0.75982429  0.94391296  1
  Te  Te171  1  0.92491345  0.10733512  0.25067563  1
  Te  Te172  1  0.90062635  0.07605397  0.58467366  1
  Te  Te173  1  0.91949428  0.05942259  0.90674980  1
  Te  Te174  1  0.91751135  0.40883982  0.24460007  1
  Te  Te175  1  0.90701900  0.43167361  0.60420899  1
  Te  Te176  1  0.92753352  0.42317820  0.91085197  1
  Te  Te177  1  0.89742199  0.75923219  0.26112114  1
  Te  Te178  1  0.93250759  0.71137531  0.60641932  1
  Te  Te179  1  0.89674486  0.77683738  0.90949434  1
