# generated using pymatgen
data_In2Te3
_symmetry_space_group_name_H-M   'P 1'
_cell_length_a   18.98806585
_cell_length_b   18.94414354
_cell_length_c   19.00637449
_cell_angle_alpha   89.96821840
_cell_angle_beta   89.81763438
_cell_angle_gamma   90.07191055
_symmetry_Int_Tables_number   1
_chemical_formula_structural   In2Te3
_chemical_formula_sum   'In72 Te108'
_cell_volume   6836.79215805
_cell_formula_units_Z   36
loop_
 _symmetry_equiv_pos_site_id
 _symmetry_equiv_pos_as_xyz
  1  'x, y, z'
loop_
 _atom_site_type_symbol
 _atom_site_label
 _atom_site_symmetry_multiplicity
 _atom_site_fract_x
 _atom_site_fract_y
 _atom_site_fract_z
 _atom_site_occupancy
  In  In0  1  0.30748924  0.16313722  0.15938804  1
  In  In1  1  0.15297380  0.01149360  0.47892603  1
  In  In2  1  0.50315637  0.66769565  0.17369155  1
  In  In3  1  0.82031735  0.34234396  0.18980474  1
  In  In4  1  0.19939942  0.02918123  0.85270608  1
  In  In5  1  0.18236206  0.64688495  0.14847853  1
  In  In6  1  0.37519379  0.27506644  0.65867241  1
  In  In7  1  0.82924349  0.17020008  -0.01991893  1
  In  In8  1  0.33706924  0.49371057  0.50722018  1
  In  In9  1  0.50636209  0.17161773  0.36143300  1
  In  In10  1  0.16571298  0.85452061  -0.00591447  1
  In  In11  1  0.13836502  0.48391703  0.33760142  1
  In  In12  1  0.89568882  0.05895452  0.14066649  1
  In  In13  1  0.31023848  -0.01106691  0.30560512  1
  In  In14  1  0.02439486  0.31905342  0.00304112  1
  In  In15  1  0.15564421  0.53541723  0.66947264  1
  In  In16  1  0.67803023  0.82784822  0.19011767  1
  In  In17  1  0.48612193  -0.00274901  0.16348279  1
  In  In18  1  0.35010996  0.30942691  0.01182788  1
  In  In19  1  0.68086093  0.47807729  0.48806405  1
  In  In20  1  0.82513074  0.82951663  0.33747773  1
  In  In21  1  0.84000815  0.53860425  0.63503732  1
  In  In22  1  0.31918210  0.86235648  0.54535413  1
  In  In23  1  0.50224394  0.81259317  0.40423583  1
  In  In24  1  0.68106287  0.64053736  0.34662384  1
  In  In25  1  0.01551465  0.36920414  0.66493287  1
  In  In26  1  0.01808914  0.17916943  0.82209939  1
  In  In27  1  0.49899439  0.87641735  -0.01727381  1
  In  In28  1  0.17179543  0.66621426  0.51468206  1
  In  In29  1  0.64892648  0.34266222  0.02447572  1
  In  In30  1  0.66260534  0.51216433  0.86056669  1
  In  In31  1  0.16666918  0.34470916  0.49147146  1
  In  In32  1  0.33736682  0.82796898  0.16618326  1
  In  In33  1  0.66911436  -0.00664362  0.31517144  1
  In  In34  1  0.53119611  0.31939437  0.18428391  1
  In  In35  1  -0.02643343  0.47116179  0.46401513  1
  In  In36  1  -0.04289710  0.18947972  0.47402590  1
  In  In37  1  0.68622071  0.17606235  0.47391643  1
  In  In38  1  0.83707921  0.33497983  0.81829004  1
  In  In39  1  0.16741118  0.68912726  0.85115810  1
  In  In40  1  0.14126759  0.01420828  0.15663894  1
  In  In41  1  0.84095966  -0.01926720  0.82374006  1
  In  In42  1  0.33432814  0.66653342  0.67938926  1
  In  In43  1  0.48207186  0.31095436  0.83854276  1
  In  In44  1  0.68276878  0.18852761  0.16173159  1
  In  In45  1  0.84430281  -0.02266726  0.49936998  1
  In  In46  1  0.50748209  0.48457383  0.33038626  1
  In  In47  1  0.21257391  0.31643676  0.86713021  1
  In  In48  1  0.31506062  0.48074268  0.15234551  1
  In  In49  1  -0.00665318  0.85120159  0.17657175  1
  In  In50  1  0.02462110  0.51756371  0.82352560  1
  In  In51  1  0.31603697  0.84300169  0.81145326  1
  In  In52  1  0.83459780  0.49695083  -0.00618073  1
  In  In53  1  0.00302094  0.83571474  0.50128561  1
  In  In54  1  -0.01744398  0.66009847  0.34335996  1
  In  In55  1  0.66003821  0.85459720  0.81740491  1
  In  In56  1  -0.01031374  0.68039906  -0.00784848  1
  In  In57  1  0.82929848  0.82818491  -0.00011041  1
  In  In58  1  0.47273194  0.65277361  0.86261331  1
  In  In59  1  0.65203448  0.65913512  0.01063172  1
  In  In60  1  0.51710642  0.47948628  0.69435077  1
  In  In61  1  -0.00188064  0.47218075  0.13815161  1
  In  In62  1  0.17061786  0.15345656  0.64455684  1
  In  In63  1  0.49308433  0.00457588  0.50742907  1
  In  In64  1  0.32732656  0.33493360  0.33583754  1
  In  In65  1  0.66959328  0.33957297  0.68925670  1
  In  In66  1  0.61545339  0.12358438  0.86073849  1
  In  In67  1  0.67464637  0.00770733  0.67393913  1
  In  In68  1  0.37075443  0.69887544  0.32215576  1
  In  In69  1  0.84340320  0.82408392  0.67896088  1
  In  In70  1  0.82472108  0.14051185  0.64857590  1
  In  In71  1  0.01793354  0.69044865  0.66658862  1
  Te  Te72  1  0.03498710  0.10445993  0.09527207  1
  Te  Te73  1  0.06407360  0.11296447  0.40576664  1
  Te  Te74  1  0.08981454  0.07380351  0.74433578  1
  Te  Te75  1  0.11159886  0.42118010  0.06170614  1
  Te  Te76  1  0.05656948  0.36673897  0.38904451  1
  Te  Te77  1  0.10775140  0.39737120  0.78038512  1
  Te  Te78  1  0.08799890  0.75460247  0.08930791  1
  Te  Te79  1  0.08777326  0.74233164  0.41420217  1
  Te  Te80  1  0.08333635  0.77359695  0.76664850  1
  Te  Te81  1  0.38917740  0.06904988  0.07709685  1
  Te  Te82  1  0.40645453  0.06599482  0.39976884  1
  Te  Te83  1  0.42011249  0.13604851  0.68527058  1
  Te  Te84  1  0.43463384  0.40191635  0.10227791  1
  Te  Te85  1  0.42729915  0.39970398  0.42957846  1
  Te  Te86  1  0.40078384  0.39906223  0.74678803  1
  Te  Te87  1  0.44032778  0.76492487  0.07717169  1
  Te  Te88  1  0.38413067  0.72806756  0.46939137  1
  Te  Te89  1  0.42839319  0.75401396  0.75732584  1
  Te  Te90  1  0.75360807  0.08361931  0.07789801  1
  Te  Te91  1  0.76727206  0.06784069  0.40532900  1
  Te  Te92  1  0.74760582  0.10186393  0.77493497  1
  Te  Te93  1  0.73821941  0.44065969  0.09511715  1
  Te  Te94  1  0.79150890  0.41741761  0.40880421  1
  Te  Te95  1  0.75933703  0.44885546  0.75360286  1
  Te  Te96  1  0.75169048  0.73647800  0.09524093  1
  Te  Te97  1  0.74523670  0.74540690  0.42559861  1
  Te  Te98  1  0.74242351  0.75134308  0.75555745  1
  Te  Te99  1  0.00578936  0.23246177  0.18152642  1
  Te  Te100  1  0.07187842  0.25656130  0.58109075  1
  Te  Te101  1  0.11320007  0.21938035  0.93220149  1
  Te  Te102  1  0.07689341  0.58328909  0.24101153  1
  Te  Te103  1  0.05925047  0.56560756  0.55834132  1
  Te  Te104  1  0.09590122  0.58536428  0.93723234  1
  Te  Te105  1  0.09885344  0.91347855  0.25451456  1
  Te  Te106  1  0.09223783  0.92083348  0.57754025  1
  Te  Te107  1  0.09138025  0.95406488  0.91931532  1
  Te  Te108  1  0.41555678  0.23744717  0.24891502  1
  Te  Te109  1  0.46905062  0.20410223  0.56342547  1
  Te  Te110  1  0.39936893  0.20726690  0.90925299  1
  Te  Te111  1  0.39635971  0.56261663  0.26003846  1
  Te  Te112  1  0.42211583  0.56574998  0.60836864  1
  Te  Te113  1  0.39511832  0.55234887  0.93370683  1
  Te  Te114  1  0.43134760  0.90119336  0.26775633  1
  Te  Te115  1  0.44138882  0.91158521  0.61012759  1
  Te  Te116  1  0.40020612  0.94174708  0.89067402  1
  Te  Te117  1  0.78219497  0.22046084  0.26727816  1
  Te  Te118  1  0.74916244  0.25583671  0.58840071  1
  Te  Te119  1  0.74028622  0.27692068  0.91804424  1
  Te  Te120  1  0.68455240  0.54755298  0.23379301  1
  Te  Te121  1  0.71411769  0.58643168  0.58212815  1
  Te  Te122  1  0.76498287  0.60751336  0.91770879  1
  Te  Te123  1  0.78009708  0.93354851  0.23092904  1
  Te  Te124  1  0.74722502  0.90565430  0.58977627  1
  Te  Te125  1  0.74115186  0.92627929  0.92346395  1
  Te  Te126  1  0.23076254  0.26467012  0.08755120  1
  Te  Te127  1  0.26387879  0.25076182  0.43698605  1
  Te  Te128  1  0.25161306  0.23531503  0.74518269  1
  Te  Te129  1  0.29402542  0.59845219  0.06327262  1
  Te  Te130  1  0.23638513  0.56577914  0.41920259  1
  Te  Te131  1  0.24970915  0.58432388  0.77528849  1
  Te  Te132  1  0.25495255  0.92872460  0.09154177  1
  Te  Te133  1  0.25172228  0.90368765  0.41702165  1
  Te  Te134  1  0.26392451  0.96043245  0.73931301  1
  Te  Te135  1  0.56787865  0.22289551  0.06752850  1
  Te  Te136  1  0.61045813  0.27072819  0.38980300  1
  Te  Te137  1  0.58429145  0.23488419  0.75730154  1
  Te  Te138  1  0.56853208  0.56650073  0.09037992  1
  Te  Te139  1  0.56876042  0.57821087  0.43127736  1
  Te  Te140  1  0.57943633  0.59639307  0.76670633  1
  Te  Te141  1  0.59688624  0.91574981  0.09900898  1
  Te  Te142  1  0.60126828  0.92606259  0.43189656  1
  Te  Te143  1  0.56392348  0.93626231  0.74045370  1
  Te  Te144  1  0.89156834  0.27955750  0.06602969  1
  Te  Te145  1  0.86137103  0.27776727  0.40308274  1
  Te  Te146  1  0.91955235  0.24719848  0.72742070  1
  Te  Te147  1  0.91335431  0.58825033  0.08532363  1
  Te  Te148  1  0.88004093  0.56866145  0.40134493  1
  Te  Te149  1  0.92584832  0.59953629  0.74734970  1
  Te  Te150  1  0.92737238  0.92553828  0.06484588  1
  Te  Te151  1  0.93515270  0.91809736  0.39369248  1
  Te  Te152  1  0.93242142  0.93247020  0.72171213  1
  Te  Te153  1  0.21680738  0.09993958  0.26222636  1
  Te  Te154  1  0.25902376  0.06700025  0.56584008  1
  Te  Te155  1  0.29063328  0.10129509  0.94483722  1
  Te  Te156  1  0.22498435  0.39908361  0.24567021  1
  Te  Te157  1  0.23534414  0.42741338  0.59975919  1
  Te  Te158  1  0.29657623  0.42451307  0.92828370  1
  Te  Te159  1  0.24503617  0.74256473  0.25131175  1
  Te  Te160  1  0.23128534  0.75960271  0.61757896  1
  Te  Te161  1  0.27012833  0.76344619  0.93334334  1
  Te  Te162  1  0.58149657  0.09380536  0.24313156  1
  Te  Te163  1  0.60152049  0.09708472  0.57481146  1
  Te  Te164  1  0.53578680  0.01984939  0.93031009  1
  Te  Te165  1  0.62199319  0.40734949  0.26794133  1
  Te  Te166  1  0.58229027  0.40108134  0.58317360  1
  Te  Te167  1  0.56577715  0.41330315  0.91904878  1
  Te  Te168  1  0.58063551  0.74916733  0.27533477  1
  Te  Te169  1  0.52887186  0.72813480  0.51929719  1
  Te  Te170  1  0.58090382  0.75748151  0.91988492  1
  Te  Te171  1  0.96649217  0.11384878  0.26308220  1
  Te  Te172  1  0.93548029  0.07391739  0.57298631  1
  Te  Te173  1  0.92388144  0.08641550  0.89897946  1
  Te  Te174  1  0.91154561  0.43987669  0.25139563  1
  Te  Te175  1  0.89736471  0.40937457  0.58193056  1
  Te  Te176  1  0.93097966  0.41984720  0.90310325  1
  Te  Te177  1  0.90681663  0.74326037  0.24222192  1
  Te  Te178  1  0.91168616  0.73748369  0.57107630  1
  Te  Te179  1  0.92689012  0.77617769  0.90265593  1
