# generated using pymatgen
data_In2Te3
_symmetry_space_group_name_H-M   'P 1'
_cell_length_a   18.76193803
_cell_length_b   18.76368427
_cell_length_c   18.75697692
_cell_angle_alpha   90.01373016
_cell_angle_beta   89.93666628
_cell_angle_gamma   90.06944194
_symmetry_Int_Tables_number   1
_chemical_formula_structural   In2Te3
_chemical_formula_sum   'In72 Te108'
_cell_volume   6603.25488517
_cell_formula_units_Z   36
loop_
 _symmetry_equiv_pos_site_id
 _symmetry_equiv_pos_as_xyz
  1  'x, y, z'
loop_
 _atom_site_type_symbol
 _atom_site_label
 _atom_site_symmetry_multiplicity
 _atom_site_fract_x
 _atom_site_fract_y
 _atom_site_fract_z
 _atom_site_occupancy
  In  In0  1  0.33902138  0.65762450  -0.00526287  1
  In  In1  1  0.19465073  0.00325356  0.17296924  1
  In  In2  1  0.80248566  0.83443047  0.32997563  1
  In  In3  1  0.01243843  -0.02044992  -0.00276262  1
  In  In4  1  0.33602720  0.66891580  0.35788679  1
  In  In5  1  0.00602462  0.67925864  -0.02368564  1
  In  In6  1  0.18436725  0.80481426  0.64715849  1
  In  In7  1  0.35827089  0.15312231  0.18076774  1
  In  In8  1  0.19024502  0.16457950  0.64194471  1
  In  In9  1  -0.02873050  0.33809326  0.00299277  1
  In  In10  1  0.01045661  0.82787323  0.15993862  1
  In  In11  1  0.21110900  0.84789321  0.37034234  1
  In  In12  1  0.65860528  0.00832536  -0.00118079  1
  In  In13  1  0.17341227  0.16683051  0.31150020  1
  In  In14  1  0.66026421  0.65650831  0.66040731  1
  In  In15  1  0.83316530  0.50520794  0.35215775  1
  In  In16  1  0.34524219  0.17651211  0.85148243  1
  In  In17  1  0.01247600  -0.02172318  0.67202146  1
  In  In18  1  0.65477595  0.83885414  0.49903014  1
  In  In19  1  -0.00212624  0.65358929  0.65230820  1
  In  In20  1  0.67730823  0.33990089  0.66486178  1
  In  In21  1  0.36726825  0.14209791  0.47350214  1
  In  In22  1  0.80450350  0.17576622  0.34295652  1
  In  In23  1  -0.02619070  0.18352951  0.81726319  1
  In  In24  1  0.14673175  0.65548129  0.17886748  1
  In  In25  1  0.35619086  0.81664419  0.81119053  1
  In  In26  1  0.37028306  -0.04401395  0.64527245  1
  In  In27  1  -0.00141920  0.50239248  0.17044236  1
  In  In28  1  0.16917172  0.00252210  0.84141806  1
  In  In29  1  0.64837282  0.67535810  -0.00878020  1
  In  In30  1  0.52271333  0.31721100  0.15076475  1
  In  In31  1  0.80425806  0.00093920  0.15697092  1
  In  In32  1  0.50303457  -0.00744792  0.83209905  1
  In  In33  1  0.14893296  0.36169855  0.48724125  1
  In  In34  1  0.50994041  0.00179798  0.18901022  1
  In  In35  1  0.79789016  0.15303790  -0.00703323  1
  In  In36  1  0.82309375  -0.00058652  0.49214366  1
  In  In37  1  0.80752379  0.33677846  0.16322519  1
  In  In38  1  0.17350841  0.66908392  0.82287666  1
  In  In39  1  0.00237362  0.17205627  0.49579332  1
  In  In40  1  0.65918767  0.51056015  0.49832207  1
  In  In41  1  0.50832905  0.50845073  0.66577925  1
  In  In42  1  0.00252802  0.01374846  0.32814138  1
  In  In43  1  0.82324569  0.49668450  -0.00702872  1
  In  In44  1  0.34067244  0.84690696  0.16100849  1
  In  In45  1  0.50747079  0.15732107  0.65482095  1
  In  In46  1  0.84735124  0.66512691  0.82473879  1
  In  In47  1  0.00780202  0.81585313  0.51040169  1
  In  In48  1  0.83614093  0.36098658  0.52140030  1
  In  In49  1  0.51548248  0.50099783  0.32655082  1
  In  In50  1  0.81110319  0.66782994  0.17696155  1
  In  In51  1  0.49028021  0.49950440  -0.00166629  1
  In  In52  1  0.18081672  0.34036766  0.18965289  1
  In  In53  1  0.17131159  0.15555827  -0.01429853  1
  In  In54  1  0.65125398  0.82666936  0.83190997  1
  In  In55  1  0.16732334  0.52521754  0.66501874  1
  In  In56  1  0.50973530  0.66901962  0.17611240  1
  In  In57  1  0.66356380  0.65771529  0.34338756  1
  In  In58  1  0.16363884  0.52583667  -0.00616582  1
  In  In59  1  0.66860582  0.00059434  0.67008921  1
  In  In60  1  0.02145760  0.19476311  0.19162835  1
  In  In61  1  0.32914854  0.33624456  0.34103703  1
  In  In62  1  0.49725597  0.33904413  0.84011345  1
  In  In63  1  -0.00756133  0.65059128  0.36216804  1
  In  In64  1  0.32768788  0.34049099  -0.00131601  1
  In  In65  1  0.83066469  -0.00957270  0.81202904  1
  In  In66  1  0.15021221  0.36965854  0.82364749  1
  In  In67  1  0.80862087  0.33611071  0.83374753  1
  In  In68  1  0.34828184  0.50741254  0.50056525  1
  In  In69  1  0.81148237  0.16756432  0.66544794  1
  In  In70  1  0.35109474  0.31332668  0.66537021  1
  In  In71  1  0.65889924  0.82331414  0.17251777  1
  Te  Te72  1  0.07992381  0.08456759  0.09536194  1
  Te  Te73  1  0.10058021  0.08159895  0.42141289  1
  Te  Te74  1  0.08819730  0.09612960  0.74768643  1
  Te  Te75  1  0.08910277  0.41109759  0.07765397  1
  Te  Te76  1  0.05594900  0.43164035  0.40027185  1
  Te  Te77  1  0.06221509  0.42666463  0.71636539  1
  Te  Te78  1  0.10532191  0.75247603  0.06693339  1
  Te  Te79  1  0.10495269  0.74780131  0.41391440  1
  Te  Te80  1  0.07661454  0.75384978  0.74189542  1
  Te  Te81  1  0.42823371  0.06843802  0.08376067  1
  Te  Te82  1  0.47658093  0.07114794  0.39500143  1
  Te  Te83  1  0.39878851  0.08686586  0.73863310  1
  Te  Te84  1  0.41097160  0.41474598  0.10171097  1
  Te  Te85  1  0.43608472  0.41048507  0.42265084  1
  Te  Te86  1  0.40798698  0.42422434  0.75151795  1
  Te  Te87  1  0.42837181  0.75121480  0.07812086  1
  Te  Te88  1  0.39441590  0.77514754  0.44542841  1
  Te  Te89  1  0.40386661  0.74511442  0.68974116  1
  Te  Te90  1  0.70448426  0.11253648  0.11477887  1
  Te  Te91  1  0.71993950  0.07453913  0.41661796  1
  Te  Te92  1  0.72967093  0.09857390  0.77337469  1
  Te  Te93  1  0.72565972  0.41538928  0.06839751  1
  Te  Te94  1  0.73419056  0.40631278  0.41504633  1
  Te  Te95  1  0.74632516  0.43998394  0.74843566  1
  Te  Te96  1  0.75272065  0.75868034  0.07082227  1
  Te  Te97  1  0.75804612  0.73529735  0.43405220  1
  Te  Te98  1  0.74955771  0.75280890  0.74313365  1
  Te  Te99  1  0.07939392  0.29304556  0.29677873  1
  Te  Te100  1  0.08513146  0.26049087  0.58864661  1
  Te  Te101  1  0.07929619  0.25712324  0.91576618  1
  Te  Te102  1  0.08910576  0.55385334  0.28271407  1
  Te  Te103  1  0.10180133  0.60116585  0.55651732  1
  Te  Te104  1  0.06826646  0.57373603  0.88589588  1
  Te  Te105  1  0.09435132  0.91243102  0.25831986  1
  Te  Te106  1  0.10498756  0.91772713  0.56904862  1
  Te  Te107  1  0.08180573  0.89716776  0.89741812  1
  Te  Te108  1  0.43361766  0.25444681  0.26577538  1
  Te  Te109  1  0.43657108  0.25212188  0.55588735  1
  Te  Te110  1  0.43749322  0.24624085  0.94917860  1
  Te  Te111  1  0.40954625  0.58359499  0.25366446  1
  Te  Te112  1  0.40992896  0.60308405  0.59950433  1
  Te  Te113  1  0.43366537  0.59534083  0.89791325  1
  Te  Te114  1  0.42851344  0.90258036  0.26658182  1
  Te  Te115  1  0.44605323  0.90723716  0.52248899  1
  Te  Te116  1  0.42099245  0.90140799  0.91351708  1
  Te  Te117  1  0.71853237  0.26835212  0.26289530  1
  Te  Te118  1  0.73530162  0.24338220  0.56087915  1
  Te  Te119  1  0.72058297  0.26762200  0.93522035  1
  Te  Te120  1  0.73212715  0.56071132  0.24738328  1
  Te  Te121  1  0.75965671  0.56959159  0.58888147  1
  Te  Te122  1  0.73885648  0.58733919  0.90470900  1
  Te  Te123  1  0.71408238  0.93722316  0.26340541  1
  Te  Te124  1  0.76118204  0.90580668  0.59391457  1
  Te  Te125  1  0.74638506  0.91478659  0.91542813  1
  Te  Te126  1  0.24818901  0.23787113  0.09393873  1
  Te  Te127  1  0.25031001  0.24051080  0.43033553  1
  Te  Te128  1  0.24273285  0.25284661  0.76676487  1
  Te  Te129  1  0.25680487  0.57958806  0.10028672  1
  Te  Te130  1  0.24015776  0.58071905  0.43069069  1
  Te  Te131  1  0.27158256  0.58847073  0.74823521  1
  Te  Te132  1  0.24394726  0.91248238  0.06903307  1
  Te  Te133  1  0.29176291  0.93517567  0.45689134  1
  Te  Te134  1  0.24859247  0.91704632  0.74010692  1
  Te  Te135  1  0.60952643  0.22884079  0.06896340  1
  Te  Te136  1  0.58163989  0.18179156  0.41315318  1
  Te  Te137  1  0.58393646  0.25071784  0.74913282  1
  Te  Te138  1  0.59138682  0.57445740  0.09158298  1
  Te  Te139  1  0.55496825  0.60286965  0.43527108  1
  Te  Te140  1  0.58041981  0.58854152  0.76728555  1
  Te  Te141  1  0.57498704  0.90795238  0.07817554  1
  Te  Te142  1  0.56278063  0.92174825  0.41700191  1
  Te  Te143  1  0.56662704  0.90190097  0.72710184  1
  Te  Te144  1  0.90213240  0.23133594  0.08642874  1
  Te  Te145  1  0.90593755  0.26003859  0.42115159  1
  Te  Te146  1  0.90540944  0.27675230  0.72041717  1
  Te  Te147  1  0.91615750  0.59545889  0.08100950  1
  Te  Te148  1  0.90932511  0.57459139  0.45856978  1
  Te  Te149  1  0.90244240  0.56458610  0.72777997  1
  Te  Te150  1  0.90468631  0.90979007  0.08499713  1
  Te  Te151  1  0.92055549  0.91146632  0.40886372  1
  Te  Te152  1  0.92089039  0.89270119  0.74875005  1
  Te  Te153  1  0.28280560  0.06307954  0.28070290  1
  Te  Te154  1  0.27258510  0.06252147  0.56758097  1
  Te  Te155  1  0.27917020  0.06315638  0.93165020  1
  Te  Te156  1  0.26160201  0.43989650  0.26090589  1
  Te  Te157  1  0.25718886  0.40810914  0.58924804  1
  Te  Te158  1  0.25854835  0.44094667  0.90684558  1
  Te  Te159  1  0.24551002  0.75111381  0.24868938  1
  Te  Te160  1  0.30051192  0.74576452  0.57268133  1
  Te  Te161  1  0.25670136  0.75839314  0.91417257  1
  Te  Te162  1  0.56386281  0.12337362  0.27129895  1
  Te  Te163  1  0.59125442  0.07335643  0.56529736  1
  Te  Te164  1  0.57824139  0.09391864  0.90848198  1
  Te  Te165  1  0.59654015  0.39532633  0.25729894  1
  Te  Te166  1  0.57434637  0.40678448  0.57412033  1
  Te  Te167  1  0.59010357  0.42021512  0.92165996  1
  Te  Te168  1  0.56987865  0.76178527  0.28118366  1
  Te  Te169  1  0.57135975  0.75365031  0.58891115  1
  Te  Te170  1  0.54916726  0.74475868  0.90426178  1
  Te  Te171  1  0.89882601  0.08883937  0.24687629  1
  Te  Te172  1  0.91861429  0.07951781  0.59079811  1
  Te  Te173  1  0.91861438  0.07948807  0.91778895  1
  Te  Te174  1  0.90677349  0.41307244  0.25194035  1
  Te  Te175  1  0.93824176  0.41783527  0.61271819  1
  Te  Te176  1  0.92035521  0.42886760  0.89521987  1
  Te  Te177  1  0.92281585  0.74414474  0.25628121  1
  Te  Te178  1  0.90268746  0.74772882  0.58507163  1
  Te  Te179  1  0.90573259  0.76750283  0.91650447  1
