# generated using pymatgen
data_In2Te3
_symmetry_space_group_name_H-M   'P 1'
_cell_length_a   18.85658064
_cell_length_b   18.86373321
_cell_length_c   18.87112740
_cell_angle_alpha   90.26762747
_cell_angle_beta   89.96295641
_cell_angle_gamma   89.96086349
_symmetry_Int_Tables_number   1
_chemical_formula_structural   In2Te3
_chemical_formula_sum   'In72 Te108'
_cell_volume   6712.48771910
_cell_formula_units_Z   36
loop_
 _symmetry_equiv_pos_site_id
 _symmetry_equiv_pos_as_xyz
  1  'x, y, z'
loop_
 _atom_site_type_symbol
 _atom_site_label
 _atom_site_symmetry_multiplicity
 _atom_site_fract_x
 _atom_site_fract_y
 _atom_site_fract_z
 _atom_site_occupancy
  In  In0  1  0.15576897  0.68912405  0.15891188  1
  In  In1  1  0.84573318  0.32078604  0.85315087  1
  In  In2  1  -0.00538714  -0.01039426  0.32859178  1
  In  In3  1  0.16924893  0.29697017  0.15951053  1
  In  In4  1  0.02656317  0.34080337  0.00877031  1
  In  In5  1  0.83197809  0.51242968  0.66852588  1
  In  In6  1  0.50668316  0.32469431  0.82619046  1
  In  In7  1  0.81591372  0.13982539  0.65446702  1
  In  In8  1  -0.02017245  0.68725289  0.66651911  1
  In  In9  1  0.83529459  0.68727399  0.83042301  1
  In  In10  1  0.84023375  0.12005558  0.40154418  1
  In  In11  1  0.49562290  -0.00396190  0.15200610  1
  In  In12  1  0.68701729  0.32709756  0.35085971  1
  In  In13  1  0.51114062  0.32626581  0.51468927  1
  In  In14  1  0.17335353  0.85342809  0.01604285  1
  In  In15  1  0.17953672  0.50802123  -0.01456196  1
  In  In16  1  0.49141251  0.85664432  0.63876485  1
  In  In17  1  -0.00075136  0.15896649  0.19703734  1
  In  In18  1  0.67616621  0.33721540  -0.02403660  1
  In  In19  1  0.17745119  0.35841406  0.83044593  1
  In  In20  1  0.00611870  0.81445735  0.84452673  1
  In  In21  1  0.50171351  0.48860340  0.33824623  1
  In  In22  1  0.82220745  0.00792628  0.82424819  1
  In  In23  1  0.80757924  0.17739234  0.00160703  1
  In  In24  1  0.34747332  -0.00277893  0.00426858  1
  In  In25  1  0.63781698  0.68760439  0.33388773  1
  In  In26  1  0.34440515  0.30837285  0.32833939  1
  In  In27  1  0.49229240  0.32559772  0.18111800  1
  In  In28  1  0.16384434  0.65626077  0.83113631  1
  In  In29  1  0.18326978  0.13324300  0.63438843  1
  In  In30  1  0.80877221  0.85659777  0.64987451  1
  In  In31  1  0.49319100  0.87360139  0.34416417  1
  In  In32  1  0.65086761  0.15793144  0.16991314  1
  In  In33  1  0.48502770  0.70261946  0.13400652  1
  In  In34  1  0.17152075  0.86251252  0.62719198  1
  In  In35  1  0.50066884  0.01347968  0.83089411  1
  In  In36  1  0.67151342  0.32735834  0.67134709  1
  In  In37  1  0.18307355  0.87740531  0.33742458  1
  In  In38  1  0.17675013  0.50878234  0.35595563  1
  In  In39  1  0.50146760  0.11622469  0.35767789  1
  In  In40  1  -0.02051354  0.00550036  0.63883909  1
  In  In41  1  0.82408238  0.45886038  0.33708454  1
  In  In42  1  0.65203244  0.54564492  0.16398119  1
  In  In43  1  0.17607752  0.31021641  0.51469347  1
  In  In44  1  0.19629286  0.10619996  0.33242462  1
  In  In45  1  0.34596943  0.82417073  0.81937663  1
  In  In46  1  0.34180007  0.49767715  0.16070742  1
  In  In47  1  -0.02748778  0.50648241  0.17641011  1
  In  In48  1  0.50370086  0.13308540  0.61803186  1
  In  In49  1  0.18143760  0.15558027  0.02326964  1
  In  In50  1  0.18372415  0.68072794  0.48857358  1
  In  In51  1  0.49971779  0.68074266  0.51617345  1
  In  In52  1  0.17521901  -0.03301170  0.82253836  1
  In  In53  1  0.32398574  0.66540141  0.32925395  1
  In  In54  1  0.33064230  0.66467155  0.66999806  1
  In  In55  1  0.01092511  0.50577809  0.51223821  1
  In  In56  1  0.34673204  0.33279933  0.67226662  1
  In  In57  1  0.65940672  0.82615271  0.83122379  1
  In  In58  1  0.82319400  0.68604734  0.17638252  1
  In  In59  1  0.64783894  -0.01522179  -0.01134520  1
  In  In60  1  0.34552183  0.17480649  0.82288511  1
  In  In61  1  0.83546307  0.31858786  0.50741158  1
  In  In62  1  -0.01067100  0.67654137  0.34913563  1
  In  In63  1  0.82052324  0.85062518  0.32729912  1
  In  In64  1  0.82158065  0.67510165  0.52015876  1
  In  In65  1  -0.00777336  0.16387469  0.82453717  1
  In  In66  1  0.84041475  0.33943290  0.17221255  1
  In  In67  1  0.18377666  0.50458900  0.69482169  1
  In  In68  1  0.65220193  0.67361546  0.01415885  1
  In  In69  1  -0.03042104  -0.01917940  0.04596018  1
  In  In70  1  0.83420254  0.51008311  0.00049508  1
  In  In71  1  0.63875611  0.52900567  0.79945136  1
  Te  Te72  1  0.08020371  0.07192775  0.10163789  1
  Te  Te73  1  0.08571751  0.06531947  0.42377784  1
  Te  Te74  1  0.08198893  0.06671669  0.74576498  1
  Te  Te75  1  0.09529210  0.42781152  0.11219642  1
  Te  Te76  1  0.08973785  0.40782145  0.42717676  1
  Te  Te77  1  0.07519630  0.42146620  0.74766028  1
  Te  Te78  1  0.06891876  0.76325519  0.06742471  1
  Te  Te79  1  0.09227079  0.77033271  0.41038133  1
  Te  Te80  1  0.10249888  0.76485051  0.73132343  1
  Te  Te81  1  0.44101830  0.09782466  0.05864357  1
  Te  Te82  1  0.38917884  0.05353058  0.43648568  1
  Te  Te83  1  0.40960867  0.07620690  0.72626628  1
  Te  Te84  1  0.42757402  0.40955289  0.07904484  1
  Te  Te85  1  0.41248516  0.40445574  0.42570672  1
  Te  Te86  1  0.41823649  0.42406419  0.76129093  1
  Te  Te87  1  0.37561582  0.76926285  0.06289229  1
  Te  Te88  1  0.42011066  0.75397535  0.40765190  1
  Te  Te89  1  0.44980763  0.74049248  0.74262986  1
  Te  Te90  1  0.74205823  0.07139207  0.08286551  1
  Te  Te91  1  0.72282341  0.02862401  0.42889966  1
  Te  Te92  1  0.71896430  0.06924578  0.74058160  1
  Te  Te93  1  0.74472118  0.42725433  0.09138221  1
  Te  Te94  1  0.73616686  0.42567091  0.45539649  1
  Te  Te95  1  0.75725747  0.41977587  0.76863944  1
  Te  Te96  1  0.73147249  0.76992737  0.09551110  1
  Te  Te97  1  0.73971050  0.75816738  0.42147244  1
  Te  Te98  1  0.73975342  0.74495479  0.72826804  1
  Te  Te99  1  0.10692443  0.22893563  0.27620507  1
  Te  Te100  1  0.08046018  0.22835289  0.59055330  1
  Te  Te101  1  0.09180767  0.23844749  0.91596097  1
  Te  Te102  1  0.08501103  0.58882612  0.26356881  1
  Te  Te103  1  0.09586180  0.60574787  0.59031748  1
  Te  Te104  1  0.07387934  0.58765143  0.92336577  1
  Te  Te105  1  0.08556122  0.91856491  0.23545381  1
  Te  Te106  1  0.08144400  0.94789998  0.54496563  1
  Te  Te107  1  0.06628387  0.93532997  0.92556745  1
  Te  Te108  1  0.42903275  0.20766705  0.25277582  1
  Te  Te109  1  0.40113552  0.23545839  0.56849236  1
  Te  Te110  1  0.42575971  0.24565898  0.92213101  1
  Te  Te111  1  0.43405497  0.59219277  0.24842331  1
  Te  Te112  1  0.42896220  0.57659048  0.59794072  1
  Te  Te113  1  0.43684729  0.66118252  0.98185735  1
  Te  Te114  1  0.39383253  0.94015000  0.24960527  1
  Te  Te115  1  0.41009240  0.93802742  0.54150243  1
  Te  Te116  1  0.43158988  0.90626568  0.91436852  1
  Te  Te117  1  0.75673157  0.23808466  0.24841351  1
  Te  Te118  1  0.72791185  0.22992323  0.56759585  1
  Te  Te119  1  0.72846997  0.22788579  0.88237542  1
  Te  Te120  1  0.75588870  0.58268147  0.26927620  1
  Te  Te121  1  0.73044975  0.59205752  0.59914315  1
  Te  Te122  1  0.73969806  0.58849621  0.91128597  1
  Te  Te123  1  0.74841076  0.90939803  0.21435533  1
  Te  Te124  1  0.74631363  0.96633809  0.57210636  1
  Te  Te125  1  0.75918787  0.90477624  0.91585544  1
  Te  Te126  1  0.28079268  0.24725652  0.08008587  1
  Te  Te127  1  0.25651719  0.22445248  0.41758545  1
  Te  Te128  1  0.23360504  0.24065848  0.73973213  1
  Te  Te129  1  0.25451654  0.59678771  0.08501485  1
  Te  Te130  1  0.28271104  0.57336502  0.44334246  1
  Te  Te131  1  0.28493222  0.57575996  0.78588319  1
  Te  Te132  1  0.24968567  0.94626820  0.10720159  1
  Te  Te133  1  0.28079234  0.92927340  0.44050417  1
  Te  Te134  1  0.27843754  0.92124045  0.72257249  1
  Te  Te135  1  0.59158937  0.26250710  0.07779804  1
  Te  Te136  1  0.58306828  0.23640964  0.41333032  1
  Te  Te137  1  0.56622893  0.22931067  0.72294506  1
  Te  Te138  1  0.54398097  0.56652743  0.06165789  1
  Te  Te139  1  0.58470310  0.58048359  0.42538190  1
  Te  Te140  1  0.53484248  0.60596837  0.73049750  1
  Te  Te141  1  0.56659793  0.89387732  0.07090212  1
  Te  Te142  1  0.60121551  0.92423952  0.43567980  1
  Te  Te143  1  0.58594581  0.92371040  0.74064575  1
  Te  Te144  1  0.92875636  0.24648420  0.08064829  1
  Te  Te145  1  0.91578097  0.24736833  0.40628809  1
  Te  Te146  1  0.90396188  0.24509492  0.73425135  1
  Te  Te147  1  0.91831614  0.60819324  0.08034064  1
  Te  Te148  1  0.90523565  0.57464677  0.42488395  1
  Te  Te149  1  0.92864389  0.58540785  0.76393060  1
  Te  Te150  1  0.87196838  0.90280161  0.12173962  1
  Te  Te151  1  0.91231034  0.91101339  0.42457728  1
  Te  Te152  1  0.92018641  0.90920400  0.74965396  1
  Te  Te153  1  0.28420724  0.05091709  0.22525177  1
  Te  Te154  1  0.27040612  0.04904285  0.54600177  1
  Te  Te155  1  0.24789334  0.07413199  0.90387909  1
  Te  Te156  1  0.25762306  0.41687951  0.26106927  1
  Te  Te157  1  0.25352887  0.42056475  0.58880599  1
  Te  Te158  1  0.27239559  0.41029518  0.92812169  1
  Te  Te159  1  0.25219022  0.76813799  0.24654160  1
  Te  Te160  1  0.27799738  0.76682141  0.57063008  1
  Te  Te161  1  0.24036983  0.76304331  0.91028578  1
  Te  Te162  1  0.59784300  0.04933295  0.25980390  1
  Te  Te163  1  0.59662229  0.04068163  0.54258957  1
  Te  Te164  1  0.57495215  0.09789311  0.92669246  1
  Te  Te165  1  0.60303035  0.41477919  0.25009753  1
  Te  Te166  1  0.57939699  0.42026121  0.60471582  1
  Te  Te167  1  0.58339491  0.43491060  0.90595063  1
  Te  Te168  1  0.56737342  0.78038487  0.24041808  1
  Te  Te169  1  0.59662988  0.77776756  0.57089067  1
  Te  Te170  1  0.56725003  0.73744240  0.90827380  1
  Te  Te171  1  0.88910150  0.07798912  0.25750706  1
  Te  Te172  1  0.90850200  0.09727608  0.54253375  1
  Te  Te173  1  0.91367283  0.08505984  0.92924671  1
  Te  Te174  1  0.94503151  0.39081655  0.27134684  1
  Te  Te175  1  0.92172682  0.41409016  0.59334251  1
  Te  Te176  1  0.93407638  0.42485693  0.92204807  1
  Te  Te177  1  0.93241758  0.76687003  0.24451083  1
  Te  Te178  1  0.92077471  0.78206306  0.56612960  1
  Te  Te179  1  0.90554384  0.76088239  0.93642185  1
