# generated using pymatgen
data_In2Te3
_symmetry_space_group_name_H-M   'P 1'
_cell_length_a   18.90078656
_cell_length_b   18.91666144
_cell_length_c   18.93889278
_cell_angle_alpha   90.14142808
_cell_angle_beta   89.95750494
_cell_angle_gamma   89.93160177
_symmetry_Int_Tables_number   1
_chemical_formula_structural   In2Te3
_chemical_formula_sum   'In72 Te108'
_cell_volume   6771.38023169
_cell_formula_units_Z   36
loop_
 _symmetry_equiv_pos_site_id
 _symmetry_equiv_pos_as_xyz
  1  'x, y, z'
loop_
 _atom_site_type_symbol
 _atom_site_label
 _atom_site_symmetry_multiplicity
 _atom_site_fract_x
 _atom_site_fract_y
 _atom_site_fract_z
 _atom_site_occupancy
  In  In0  1  0.67678159  0.68137668  0.00887053  1
  In  In1  1  0.84083610  0.00095905  0.48151878  1
  In  In2  1  -0.00735960  0.49705147  0.51710004  1
  In  In3  1  0.83104927  0.32001445  0.17749966  1
  In  In4  1  0.66512961  0.85974739  0.82279381  1
  In  In5  1  -0.00057061  0.84006418  0.16308300  1
  In  In6  1  0.15264560  0.33274542  0.80541065  1
  In  In7  1  0.81082180  0.00466687  0.20737914  1
  In  In8  1  0.29700010  0.88440426  0.48142150  1
  In  In9  1  0.52627861  0.84790966  0.01218565  1
  In  In10  1  0.17313844  0.00231520  0.84320909  1
  In  In11  1  0.36801183  -0.01868785  0.01935753  1
  In  In12  1  0.82628525  0.00762359  0.82451957  1
  In  In13  1  -0.01235880  0.14994535  0.80159710  1
  In  In14  1  0.14243151  0.67234039  0.86082106  1
  In  In15  1  0.67720094  0.84702860  0.50645591  1
  In  In16  1  0.49837876  0.49637424  0.32937230  1
  In  In17  1  0.51289302  0.68280274  0.20408090  1
  In  In18  1  0.01527689  0.33188666  -0.00228441  1
  In  In19  1  0.15750621  0.01895126  0.19246509  1
  In  In20  1  0.49411638  0.50349995  -0.01818106  1
  In  In21  1  0.13327616  0.15693877  0.35836327  1
  In  In22  1  0.32109255  0.50950125  0.85339691  1
  In  In23  1  0.13616473  0.85311114  0.03822523  1
  In  In24  1  -0.01717231  0.15752340  0.17902007  1
  In  In25  1  0.52281519  0.31296697  0.83800559  1
  In  In26  1  0.11046069  0.26535603  0.49769506  1
  In  In27  1  0.55000892  0.03175651  0.19938133  1
  In  In28  1  0.34330200  0.81873173  0.19611789  1
  In  In29  1  0.36123171  0.83665151  0.85364340  1
  In  In30  1  0.12069031  0.71959666  0.46377280  1
  In  In31  1  -0.01974547  0.00184549  -0.00448349  1
  In  In32  1  0.34803895  0.32812671  -0.00491328  1
  In  In33  1  0.85578508  0.68322974  0.86181681  1
  In  In34  1  0.34013142  0.33683560  0.32816470  1
  In  In35  1  0.67260862  0.16299022  0.50261079  1
  In  In36  1  0.68478450  0.50929305  0.15565156  1
  In  In37  1  0.32983777  0.69473503  0.67891080  1
  In  In38  1  -0.00843829  0.65474205  0.68129263  1
  In  In39  1  0.66137671  0.50669775  0.82864803  1
  In  In40  1  0.34524432  0.19386361  0.82520439  1
  In  In41  1  0.34116277  0.17794500  0.15323718  1
  In  In42  1  0.51790922  0.18180544  0.67376019  1
  In  In43  1  0.68562455  0.03954713  -0.01387932  1
  In  In44  1  0.34742209  -0.00506065  0.65271803  1
  In  In45  1  0.81914838  0.83251594  0.67341945  1
  In  In46  1  0.51975297  0.47244681  0.65910431  1
  In  In47  1  0.49483938  0.68050519  0.53030241  1
  In  In48  1  0.13310475  0.51689206  0.01232682  1
  In  In49  1  0.65896190  0.68490456  0.34002027  1
  In  In50  1  0.15301080  0.85000204  0.65204177  1
  In  In51  1  0.53401780  0.31009214  0.13841975  1
  In  In52  1  0.32778276  0.14000166  0.49035784  1
  In  In53  1  0.50082951  0.01689088  0.47479114  1
  In  In54  1  0.83682624  0.66606198  0.15334446  1
  In  In55  1  0.19403175  0.17481449  0.00148642  1
  In  In56  1  0.33078485  0.50000080  0.48193305  1
  In  In57  1  0.85370888  0.47424804  0.00811744  1
  In  In58  1  0.32650276  0.66311493  -0.00763302  1
  In  In59  1  0.67525551  0.31990796  0.35198866  1
  In  In60  1  0.34576328  0.32804676  0.66715068  1
  In  In61  1  0.30981400  0.68446397  0.32501965  1
  In  In62  1  0.81514691  0.49507288  0.66309637  1
  In  In63  1  0.84726232  0.64700026  0.49307259  1
  In  In64  1  0.14849829  0.48828226  0.66631677  1
  In  In65  1  0.14929407  0.66892377  0.17829063  1
  In  In66  1  -0.02980703  0.00253015  0.64494273  1
  In  In67  1  0.52091387  0.82075163  0.32858974  1
  In  In68  1  0.81601018  0.15231363  0.65879605  1
  In  In69  1  0.15570360  0.48716276  0.32336930  1
  In  In70  1  -0.02455248  0.32232460  0.33935645  1
  In  In71  1  0.68024099  0.48357637  0.49693069  1
  Te  Te72  1  0.08958306  0.08609919  0.06964046  1
  Te  Te73  1  0.13769776  0.03795887  0.44977777  1
  Te  Te74  1  0.08679453  0.05759374  0.73173887  1
  Te  Te75  1  0.06551747  0.42356884  0.10209644  1
  Te  Te76  1  0.08680949  0.40269794  0.43319285  1
  Te  Te77  1  0.04888216  0.40313213  0.73017964  1
  Te  Te78  1  0.05443774  0.72405652  0.06322975  1
  Te  Te79  1  0.01494829  0.77532662  0.37790402  1
  Te  Te80  1  0.08111310  0.75736733  0.75066604  1
  Te  Te81  1  0.44686677  0.08598756  0.09433824  1
  Te  Te82  1  0.40213887  0.07340356  0.38268010  1
  Te  Te83  1  0.42232676  0.08735864  0.74774704  1
  Te  Te84  1  0.42819199  0.41689295  0.08756056  1
  Te  Te85  1  0.43511251  0.40251450  0.43020522  1
  Te  Te86  1  0.41380301  0.41187152  0.77408842  1
  Te  Te87  1  0.41972806  0.75317977  0.08043630  1
  Te  Te88  1  0.41776109  0.74588343  0.41433070  1
  Te  Te89  1  0.43681304  0.77806861  0.73877788  1
  Te  Te90  1  0.75100030  0.10334009  0.10877679  1
  Te  Te91  1  0.74114323  0.07661171  0.39828432  1
  Te  Te92  1  0.72022363  0.07550131  0.74428981  1
  Te  Te93  1  0.74167909  0.39519990  0.07674081  1
  Te  Te94  1  0.76686835  0.42664128  0.39434650  1
  Te  Te95  1  0.73377081  0.40438979  0.74884514  1
  Te  Te96  1  0.78094597  0.76851364  0.06211284  1
  Te  Te97  1  0.76472861  0.75697166  0.42127625  1
  Te  Te98  1  0.75066929  0.73863788  0.76924355  1
  Te  Te99  1  0.07912891  0.25044885  0.25055661  1
  Te  Te100  1  0.02129136  0.21947725  0.60316941  1
  Te  Te101  1  0.09326029  0.22224465  0.89806191  1
  Te  Te102  1  0.06431570  0.58878328  0.26648952  1
  Te  Te103  1  0.09474048  0.60250360  0.58035169  1
  Te  Te104  1  0.06741041  0.54980466  0.88677571  1
  Te  Te105  1  0.04217080  0.95171967  0.25629442  1
  Te  Te106  1  0.05537176  0.90806996  0.55591076  1
  Te  Te107  1  0.07184150  0.91330240  0.91210617  1
  Te  Te108  1  0.43826160  0.25387191  0.24309802  1
  Te  Te109  1  0.41869704  0.23595616  0.57247982  1
  Te  Te110  1  0.44454651  0.22661453  0.93655638  1
  Te  Te111  1  0.40399379  0.58666261  0.25112528  1
  Te  Te112  1  0.40168585  0.57658279  0.59568155  1
  Te  Te113  1  0.42893277  0.60975372  0.89341654  1
  Te  Te114  1  0.44434594  0.92115335  0.24130605  1
  Te  Te115  1  0.42576115  0.90874995  0.55554012  1
  Te  Te116  1  0.46011082  0.93895751  0.90658601  1
  Te  Te117  1  0.76287485  0.22768051  0.27375208  1
  Te  Te118  1  0.78158157  0.25160015  0.55310338  1
  Te  Te119  1  0.67955336  0.18924075  0.93942676  1
  Te  Te120  1  0.75172267  0.59027213  0.26271490  1
  Te  Te121  1  0.73472774  0.59566481  0.58299665  1
  Te  Te122  1  0.75475306  0.57555344  0.93212381  1
  Te  Te123  1  0.72225337  0.90258934  0.26485581  1
  Te  Te124  1  0.75491397  0.94414882  0.59353318  1
  Te  Te125  1  0.76128464  0.91474395  0.92421581  1
  Te  Te126  1  0.24230887  0.28006244  0.09754663  1
  Te  Te127  1  0.24849233  0.25791442  0.42340190  1
  Te  Te128  1  0.23873041  0.23458408  0.72546020  1
  Te  Te129  1  0.24593117  0.58292339  0.08974506  1
  Te  Te130  1  0.23007608  0.59434338  0.41785422  1
  Te  Te131  1  0.23954156  0.59279073  0.75573173  1
  Te  Te132  1  0.25492490  0.93043283  0.10543438  1
  Te  Te133  1  0.21272002  0.93089380  0.37160913  1
  Te  Te134  1  0.25919946  0.90816086  0.75260566  1
  Te  Te135  1  0.63308985  0.20858468  0.09024928  1
  Te  Te136  1  0.57331393  0.22512669  0.40770782  1
  Te  Te137  1  0.61802608  0.27721302  0.72946200  1
  Te  Te138  1  0.57181222  0.59014836  0.08978036  1
  Te  Te139  1  0.57177181  0.59025441  0.42553987  1
  Te  Te140  1  0.57662386  0.58242484  0.73497512  1
  Te  Te141  1  0.61137662  0.94655292  0.08663618  1
  Te  Te142  1  0.60340859  0.92769146  0.40135097  1
  Te  Te143  1  0.57588814  0.88008729  0.70875917  1
  Te  Te144  1  0.91529584  0.24097465  0.07515013  1
  Te  Te145  1  0.92130331  0.23288851  0.44176227  1
  Te  Te146  1  0.87901002  0.23951491  0.75920138  1
  Te  Te147  1  0.92935966  0.56667849  0.09281839  1
  Te  Te148  1  0.94010498  0.57494447  0.40345107  1
  Te  Te149  1  0.90064321  0.57091166  0.76565081  1
  Te  Te150  1  0.89610151  0.93181030  0.09700039  1
  Te  Te151  1  0.94212632  0.89673483  0.44649269  1
  Te  Te152  1  0.92124332  0.90984004  0.75571941  1
  Te  Te153  1  0.24994811  0.11757560  0.25823806  1
  Te  Te154  1  0.23627537  0.06675889  0.58284963  1
  Te  Te155  1  0.28145730  0.07560499  0.92352491  1
  Te  Te156  1  0.26364094  0.42843105  0.24345697  1
  Te  Te157  1  0.25227967  0.41488571  0.58325377  1
  Te  Te158  1  0.23770498  0.40034841  0.91626808  1
  Te  Te159  1  0.20978073  0.78185811  0.26184363  1
  Te  Te160  1  0.25026206  0.76359971  0.56696391  1
  Te  Te161  1  0.24257945  0.77417013  0.93051576  1
  Te  Te162  1  0.62955064  0.12239891  0.29042321  1
  Te  Te163  1  0.58345475  0.07318157  0.58861256  1
  Te  Te164  1  0.61104293  0.07880939  0.86145382  1
  Te  Te165  1  0.59370225  0.41447783  0.24284642  1
  Te  Te166  1  0.59354373  0.38739691  0.56679321  1
  Te  Te167  1  0.59693223  0.40634298  0.93183607  1
  Te  Te168  1  0.63227251  0.78205584  0.21852138  1
  Te  Te169  1  0.59778684  0.76274487  0.60312162  1
  Te  Te170  1  0.58789341  0.75372935  0.91109105  1
  Te  Te171  1  0.92669137  0.06770938  0.28243550  1
  Te  Te172  1  0.95349740  0.10396569  0.52462276  1
  Te  Te173  1  0.89898907  0.10333030  0.91886386  1
  Te  Te174  1  0.92314176  0.41687543  0.24008058  1
  Te  Te175  1  0.89357984  0.40610879  0.57439285  1
  Te  Te176  1  0.90436881  0.37412182  0.91221233  1
  Te  Te177  1  0.91053273  0.75714501  0.24985974  1
  Te  Te178  1  0.91304547  0.74578482  0.58990791  1
  Te  Te179  1  0.95258337  0.74991649  0.94685738  1
