# generated using pymatgen
data_In2Te3
_symmetry_space_group_name_H-M   'P 1'
_cell_length_a   18.96135217
_cell_length_b   18.97858195
_cell_length_c   18.97741308
_cell_angle_alpha   89.82734356
_cell_angle_beta   90.15480618
_cell_angle_gamma   89.92662862
_symmetry_Int_Tables_number   1
_chemical_formula_structural   In2Te3
_chemical_formula_sum   'In72 Te108'
_cell_volume   6829.14222001
_cell_formula_units_Z   36
loop_
 _symmetry_equiv_pos_site_id
 _symmetry_equiv_pos_as_xyz
  1  'x, y, z'
loop_
 _atom_site_type_symbol
 _atom_site_label
 _atom_site_symmetry_multiplicity
 _atom_site_fract_x
 _atom_site_fract_y
 _atom_site_fract_z
 _atom_site_occupancy
  In  In0  1  -0.00638538  0.48809207  0.16290098  1
  In  In1  1  0.16803772  0.84614595  0.67585379  1
  In  In2  1  0.00808192  0.66568790  0.01324839  1
  In  In3  1  0.34414346  0.49956166  0.82909132  1
  In  In4  1  -0.00474156  -0.01230736  0.65649047  1
  In  In5  1  0.67330650  0.01952206  -0.01971021  1
  In  In6  1  0.33067864  0.69459071  0.01171643  1
  In  In7  1  0.17758470  -0.00081083  0.82186045  1
  In  In8  1  0.52792278  0.32720317  0.84753409  1
  In  In9  1  -0.03581565  -0.01153825  0.00379033  1
  In  In10  1  0.83486276  0.00850775  0.83239284  1
  In  In11  1  0.49683496  0.00214264  0.50244947  1
  In  In12  1  0.16836572  0.14503044  -0.01890215  1
  In  In13  1  0.16553039  0.35253480  0.50058205  1
  In  In14  1  0.66579483  0.64721004  0.35220350  1
  In  In15  1  0.68220550  0.35395991  0.35946287  1
  In  In16  1  -0.02126943  0.67816939  0.31329662  1
  In  In17  1  0.65127306  0.81166346  0.50293695  1
  In  In18  1  0.30846084  0.33489067  0.65241160  1
  In  In19  1  0.17814921  0.81960726  0.32095330  1
  In  In20  1  0.69609055  -0.03520136  0.31748488  1
  In  In21  1  -0.00179104  0.33877233  0.00583907  1
  In  In22  1  0.85075330  0.50733764  0.34755353  1
  In  In23  1  0.82291564  0.82908417  0.29402649  1
  In  In24  1  0.51162652  0.64462260  0.19460853  1
  In  In25  1  0.15190107  0.64456850  0.48643012  1
  In  In26  1  0.84489639  -0.03768514  0.49827162  1
  In  In27  1  0.00281704  0.01924243  0.30370501  1
  In  In28  1  0.51189735  0.49136428  -0.03348270  1
  In  In29  1  0.32572712  0.00829247  0.30818888  1
  In  In30  1  0.51969600  -0.00220060  0.14017450  1
  In  In31  1  0.50515449  0.82407196  0.67958313  1
  In  In32  1  0.83544822  0.66472291  0.84436229  1
  In  In33  1  0.32372787  0.49109874  0.17607518  1
  In  In34  1  0.67605085  0.83186104  0.82808020  1
  In  In35  1  0.65494949  0.01535126  0.68810710  1
  In  In36  1  0.67046060  0.16270468  0.53068463  1
  In  In37  1  0.17550752  0.68136932  0.16144893  1
  In  In38  1  0.49059527  0.80509049  0.32850216  1
  In  In39  1  -0.01993121  0.17308988  0.50913000  1
  In  In40  1  0.34858104  0.67234048  0.66888847  1
  In  In41  1  0.15379030  0.00097910  0.51944000  1
  In  In42  1  0.16075233  0.65717628  0.83142847  1
  In  In43  1  0.33231179  0.14735156  0.15344673  1
  In  In44  1  0.15878137  0.03483982  0.16907946  1
  In  In45  1  0.49647662  0.16773530  0.34070914  1
  In  In46  1  0.36007861  0.01627507  0.70589630  1
  In  In47  1  0.32801599  0.83562640  0.13370800  1
  In  In48  1  0.49347423  0.16755885  0.01176118  1
  In  In49  1  0.67207430  0.85381444  0.13998442  1
  In  In50  1  0.48029402  0.34022510  0.52438162  1
  In  In51  1  0.18587810  0.49792915  0.33256332  1
  In  In52  1  0.53752535  0.33008139  0.17358112  1
  In  In53  1  0.69206739  0.50198517  0.16030322  1
  In  In54  1  -0.01510606  0.49765875  0.52147297  1
  In  In55  1  0.50457878  0.50590164  0.67916885  1
  In  In56  1  0.67057617  0.67985846  -0.01529275  1
  In  In57  1  0.83071742  0.15347164  0.34295431  1
  In  In58  1  0.85127506  0.45732239  -0.01348736  1
  In  In59  1  0.67645018  0.64126700  0.68248319  1
  In  In60  1  0.68713257  0.15283726  0.15376026  1
  In  In61  1  0.33890826  0.81497414  0.47797529  1
  In  In62  1  0.83862093  0.20495048  0.69419764  1
  In  In63  1  0.15504015  0.16663459  0.67783898  1
  In  In64  1  0.00792463  0.31532101  0.31603126  1
  In  In65  1  0.82409496  0.49690714  0.65876382  1
  In  In66  1  0.32798532  0.34608867  0.01416580  1
  In  In67  1  0.15471422  0.34591356  0.82717237  1
  In  In68  1  0.00887274  0.83258000  0.84101779  1
  In  In69  1  0.66120811  0.34082665  0.67096108  1
  In  In70  1  0.00194443  0.49239354  0.81815444  1
  In  In71  1  0.32246179  0.32832178  0.36164752  1
  Te  Te72  1  0.05877756  0.09185918  0.07065482  1
  Te  Te73  1  0.07061261  0.08559712  0.42546958  1
  Te  Te74  1  0.06262365  0.07712393  0.75748700  1
  Te  Te75  1  0.09279244  0.40650290  0.09412228  1
  Te  Te76  1  0.06903628  0.42959215  0.40326178  1
  Te  Te77  1  0.09986397  0.43540110  0.72355122  1
  Te  Te78  1  0.10289048  0.76617492  0.06615919  1
  Te  Te79  1  0.07644491  0.75060518  0.40713730  1
  Te  Te80  1  0.07490403  0.74346601  0.73857673  1
  Te  Te81  1  0.40350440  0.05360709  0.05944754  1
  Te  Te82  1  0.39894168  0.08562764  0.42168833  1
  Te  Te83  1  0.43296755  0.07710027  0.81536734  1
  Te  Te84  1  0.43890013  0.42003218  0.08922209  1
  Te  Te85  1  0.43497799  0.40920204  0.40311698  1
  Te  Te86  1  0.42137405  0.39534445  0.75142826  1
  Te  Te87  1  0.44929108  0.74227466  0.09908860  1
  Te  Te88  1  0.44226356  0.71434350  0.43681797  1
  Te  Te89  1  0.41979542  0.74744753  0.77216239  1
  Te  Te90  1  0.77199653  0.11406022  0.03825347  1
  Te  Te91  1  0.73190990  0.06922128  0.42759582  1
  Te  Te92  1  0.74190523  0.11038870  0.76650509  1
  Te  Te93  1  0.76918002  0.39106132  0.09793665  1
  Te  Te94  1  0.74964067  0.45494970  0.44231547  1
  Te  Te95  1  0.72666476  0.44164010  0.75584237  1
  Te  Te96  1  0.75268803  0.74564106  0.08549877  1
  Te  Te97  1  0.75584523  0.75443558  0.41197216  1
  Te  Te98  1  0.76580504  0.75002900  0.73919175  1
  Te  Te99  1  0.05262478  0.20692460  0.23126158  1
  Te  Te100  1  0.07734505  0.25854379  0.58641495  1
  Te  Te101  1  0.07607769  0.24833341  0.91306526  1
  Te  Te102  1  0.08493666  0.58917311  0.24858465  1
  Te  Te103  1  0.08742168  0.57250935  0.59638677  1
  Te  Te104  1  0.08045151  0.56725948  0.92389437  1
  Te  Te105  1  0.09435264  0.91432167  0.23940447  1
  Te  Te106  1  0.06628137  0.88861229  0.56755723  1
  Te  Te107  1  0.08541826  0.93275407  0.92151653  1
  Te  Te108  1  0.42527145  0.24487027  0.22995593  1
  Te  Te109  1  0.40359450  0.23921339  0.59505737  1
  Te  Te110  1  0.41202690  0.26106693  0.92395060  1
  Te  Te111  1  0.40921739  0.56858768  0.26805937  1
  Te  Te112  1  0.39779901  0.55748374  0.58980765  1
  Te  Te113  1  0.41150628  0.59411722  0.92389072  1
  Te  Te114  1  0.42978429  0.92040842  0.24313778  1
  Te  Te115  1  0.41220173  0.90287251  0.58013856  1
  Te  Te116  1  0.34595226  0.84602879  0.97990691  1
  Te  Te117  1  0.73454317  0.24390200  0.26601218  1
  Te  Te118  1  0.76386309  0.26953894  0.57903356  1
  Te  Te119  1  0.81238481  0.31443384  0.93825696  1
  Te  Te120  1  0.76742533  0.59383809  0.25290517  1
  Te  Te121  1  0.74903044  0.58620592  0.56639993  1
  Te  Te122  1  0.75844031  0.56772406  0.92833351  1
  Te  Te123  1  0.77814686  0.95761637  0.19042307  1
  Te  Te124  1  0.71901887  0.91465474  0.59504127  1
  Te  Te125  1  0.76303087  0.91057820  0.92363351  1
  Te  Te126  1  0.23995108  0.24057142  0.07714807  1
  Te  Te127  1  0.23697164  0.24034589  0.43917000  1
  Te  Te128  1  0.25031130  0.24645819  0.76315030  1
  Te  Te129  1  0.25011704  0.57904295  0.07928805  1
  Te  Te130  1  0.26546855  0.58806833  0.41469138  1
  Te  Te131  1  0.24989065  0.57741342  0.74011788  1
  Te  Te132  1  0.24216124  0.94650246  0.08478374  1
  Te  Te133  1  0.24559091  0.92541667  0.41559367  1
  Te  Te134  1  0.27857922  0.90106475  0.76374344  1
  Te  Te135  1  0.60761085  0.25130811  0.06700815  1
  Te  Te136  1  0.58838334  0.24761801  0.43113218  1
  Te  Te137  1  0.59093541  0.23874335  0.75009407  1
  Te  Te138  1  0.58766892  0.57621729  0.07807169  1
  Te  Te139  1  0.53869410  0.59631383  0.40009953  1
  Te  Te140  1  0.58748322  0.57433138  0.77891365  1
  Te  Te141  1  0.57776239  0.90893977  0.03438887  1
  Te  Te142  1  0.57553568  0.91364987  0.40788074  1
  Te  Te143  1  0.56831653  0.92598975  0.77259638  1
  Te  Te144  1  0.88267653  0.28184763  0.07892798  1
  Te  Te145  1  0.90359537  0.26483801  0.41596427  1
  Te  Te146  1  0.95871177  0.25172846  0.76153076  1
  Te  Te147  1  0.90562541  0.57449813  0.07710009  1
  Te  Te148  1  0.92054803  0.60923511  0.43490922  1
  Te  Te149  1  0.91786937  0.59211927  0.74224952  1
  Te  Te150  1  0.90967015  0.91468310  0.11821806  1
  Te  Te151  1  0.91910440  0.91450655  0.37552771  1
  Te  Te152  1  0.90987527  0.90599431  0.75070013  1
  Te  Te153  1  0.23498235  0.12213849  0.26817515  1
  Te  Te154  1  0.25132145  0.07113563  0.60879055  1
  Te  Te155  1  0.27344916  0.08532065  0.89550301  1
  Te  Te156  1  0.23925106  0.38535928  0.24672847  1
  Te  Te157  1  0.26881855  0.44196206  0.55838142  1
  Te  Te158  1  0.24486892  0.42922366  0.91934182  1
  Te  Te159  1  0.28273454  0.74110533  0.25071177  1
  Te  Te160  1  0.24366950  0.75272572  0.57881719  1
  Te  Te161  1  0.21970699  0.75587347  0.92573227  1
  Te  Te162  1  0.58475958  0.08066269  0.25011831  1
  Te  Te163  1  0.55618480  0.09591301  0.60511741  1
  Te  Te164  1  0.56526412  0.09236847  0.90327608  1
  Te  Te165  1  0.59873550  0.43559969  0.26138482  1
  Te  Te166  1  0.58753021  0.43353685  0.57481581  1
  Te  Te167  1  0.62295754  0.40589416  0.92721979  1
  Te  Te168  1  0.60888649  0.75752465  0.24587909  1
  Te  Te169  1  0.57570513  0.72096845  0.59503476  1
  Te  Te170  1  0.57740673  0.74004537  0.88852219  1
  Te  Te171  1  0.92241664  0.12175809  0.22804000  1
  Te  Te172  1  0.89159266  0.08439785  0.59676737  1
  Te  Te173  1  0.90410090  0.09990274  0.92539095  1
  Te  Te174  1  0.90245761  0.40460922  0.24983255  1
  Te  Te175  1  0.91810791  0.39770760  0.60369093  1
  Te  Te176  1  0.90314940  0.37523898  0.83186068  1
  Te  Te177  1  0.92481099  0.76630883  0.20601407  1
  Te  Te178  1  0.84972555  0.83229908  0.56309811  1
  Te  Te179  1  0.91553785  0.75743773  0.93336158  1
