# generated using pymatgen
data_In2Te3
_symmetry_space_group_name_H-M   'P 1'
_cell_length_a   18.98123521
_cell_length_b   18.92737778
_cell_length_c   18.93303100
_cell_angle_alpha   90.15687148
_cell_angle_beta   90.09003126
_cell_angle_gamma   90.08196102
_symmetry_Int_Tables_number   1
_chemical_formula_structural   In2Te3
_chemical_formula_sum   'In72 Te108'
_cell_volume   6801.93466684
_cell_formula_units_Z   36
loop_
 _symmetry_equiv_pos_site_id
 _symmetry_equiv_pos_as_xyz
  1  'x, y, z'
loop_
 _atom_site_type_symbol
 _atom_site_label
 _atom_site_symmetry_multiplicity
 _atom_site_fract_x
 _atom_site_fract_y
 _atom_site_fract_z
 _atom_site_occupancy
  In  In0  1  0.83464291  0.35689680  0.50900694  1
  In  In1  1  0.18706842  -0.00115625  0.82495915  1
  In  In2  1  -0.00160317  0.01053405  0.68302674  1
  In  In3  1  0.66426119  0.69840955  0.30803766  1
  In  In4  1  0.00065926  0.34031844  0.32754517  1
  In  In5  1  0.50838851  0.15326750  0.35307724  1
  In  In6  1  0.50793773  0.81038903  0.31091197  1
  In  In7  1  0.82753009  0.14142866  0.31686833  1
  In  In8  1  0.81962936  0.67061995  0.15547564  1
  In  In9  1  0.31213255  0.67246906  0.67362334  1
  In  In10  1  -0.02489915  0.30982980  0.02074830  1
  In  In11  1  0.31723286  0.16991312  0.15371890  1
  In  In12  1  0.15113405  0.01259788  0.14615037  1
  In  In13  1  0.83344769  0.85020257  0.32365638  1
  In  In14  1  -0.02149926  0.83121542  0.49948694  1
  In  In15  1  0.66625732  -0.00207934  0.65810690  1
  In  In16  1  -0.00376462  0.67648490  -0.03525080  1
  In  In17  1  0.21954281  0.44801619  -0.02633687  1
  In  In18  1  0.35240139  -0.01896837  0.00003458  1
  In  In19  1  0.31095533  0.49118119  0.49821141  1
  In  In20  1  0.49607309  0.84863262  0.67821719  1
  In  In21  1  0.47504699  0.33610604  0.13383859  1
  In  In22  1  0.16164741  0.18842847  0.32954541  1
  In  In23  1  0.64275564  0.65563683  0.71198824  1
  In  In24  1  0.18638117  0.50263885  0.32555349  1
  In  In25  1  0.17224529  0.66647265  0.81624147  1
  In  In26  1  0.82125308  -0.00987789  0.51046072  1
  In  In27  1  0.64364541  0.83881840  0.50347980  1
  In  In28  1  0.52873681  -0.03407689  0.11757931  1
  In  In29  1  0.49327653  0.48874129  0.69720127  1
  In  In30  1  0.16988044  0.20057243  0.00461962  1
  In  In31  1  0.35418830  -0.00683603  0.33956025  1
  In  In32  1  0.34293942  0.85535368  0.83521543  1
  In  In33  1  0.63586234  0.33106619  0.68671280  1
  In  In34  1  0.33601218  0.14884341  0.81712207  1
  In  In35  1  0.33160650  0.34179558  0.32197481  1
  In  In36  1  0.36523626  0.65781737  0.32098157  1
  In  In37  1  0.84615131  0.51983840  0.65316076  1
  In  In38  1  -0.01735096  0.31772001  0.69028951  1
  In  In39  1  0.65489140  0.47553170  0.85393399  1
  In  In40  1  0.81811309  0.18797275  0.67487262  1
  In  In41  1  0.85546451  0.51692239  0.36411136  1
  In  In42  1  0.16519689  0.34300496  0.51285428  1
  In  In43  1  0.01198609  0.49258107  0.82346415  1
  In  In44  1  0.34560613  0.79086909  0.13842595  1
  In  In45  1  0.19446037  0.48726328  0.69362311  1
  In  In46  1  0.14324606  0.85251149  -0.02609469  1
  In  In47  1  0.48477267  0.64322083  0.09587131  1
  In  In48  1  0.18707432  0.84836393  0.33021044  1
  In  In49  1  0.16686750  0.62686067  0.15118612  1
  In  In50  1  0.68928157  0.46561207  0.16145586  1
  In  In51  1  0.34799485  0.13838463  0.60461151  1
  In  In52  1  -0.00847292  0.82143402  0.16877364  1
  In  In53  1  0.52643540  0.51341283  0.30140451  1
  In  In54  1  0.81946605  0.69494757  0.81223617  1
  In  In55  1  0.81299283  0.32488565  0.83423787  1
  In  In56  1  0.51260198  0.00946945  0.51139935  1
  In  In57  1  0.68853964  0.08598273  0.87530585  1
  In  In58  1  0.68583621  0.51102536  0.50759027  1
  In  In59  1  0.15628517  0.85568889  0.68409065  1
  In  In60  1  0.00036585  0.86320643  0.84255937  1
  In  In61  1  0.69558431  0.00247575  0.30999104  1
  In  In62  1  0.50158827  0.30073646  0.85055439  1
  In  In63  1  0.65989909  0.68076278  -0.01795887  1
  In  In64  1  0.01068579  0.16099914  0.48321694  1
  In  In65  1  0.13083106  0.68352776  0.52024405  1
  In  In66  1  0.82816197  0.49732917  0.01668121  1
  In  In67  1  0.01958164  0.48007559  0.16380591  1
  In  In68  1  0.47394873  0.31893219  0.49234175  1
  In  In69  1  0.64747697  0.18589924  0.16903830  1
  In  In70  1  0.85204382  0.00690018  0.15287649  1
  In  In71  1  0.47362021  0.66826367  0.48846536  1
  Te  Te72  1  0.07784042  0.13283164  0.10364425  1
  Te  Te73  1  0.11427835  0.08120105  0.41868715  1
  Te  Te74  1  0.10710767  0.09686466  0.74219669  1
  Te  Te75  1  0.08796022  0.41235530  0.04947779  1
  Te  Te76  1  0.08732934  0.42950836  0.41600853  1
  Te  Te77  1  0.09900321  0.38635218  0.76170643  1
  Te  Te78  1  0.09083832  0.74153066  0.07400855  1
  Te  Te79  1  0.08035354  0.76582843  0.40371281  1
  Te  Te80  1  0.06775363  0.75564423  0.75392751  1
  Te  Te81  1  0.42122588  0.07649326  0.09623684  1
  Te  Te82  1  0.39941845  0.09925183  0.44366608  1
  Te  Te83  1  0.44020431  0.11194480  0.71770418  1
  Te  Te84  1  0.42203652  0.42980417  0.03099956  1
  Te  Te85  1  0.42161997  0.44229433  0.40327236  1
  Te  Te86  1  0.41243327  0.40437583  0.78662481  1
  Te  Te87  1  0.44323393  0.77405763  0.02556121  1
  Te  Te88  1  0.39925911  0.77541901  0.41360497  1
  Te  Te89  1  0.41556932  0.74575551  0.75839151  1
  Te  Te90  1  0.73100281  0.08307427  0.09673757  1
  Te  Te91  1  0.73831700  0.08801007  0.42857416  1
  Te  Te92  1  0.77179284  0.06390095  0.74578504  1
  Te  Te93  1  0.76372354  0.37224399  0.06917491  1
  Te  Te94  1  0.74447775  0.41867317  0.40321637  1
  Te  Te95  1  0.74936143  0.43130488  0.73446832  1
  Te  Te96  1  0.75486631  0.76100045  0.06184495  1
  Te  Te97  1  0.74628711  0.76451689  0.41622270  1
  Te  Te98  1  0.69889164  0.77321938  0.78097887  1
  Te  Te99  1  0.07635850  0.25731616  0.23124936  1
  Te  Te100  1  0.07642601  0.24796843  0.58914899  1
  Te  Te101  1  0.05669996  0.24135420  0.91936727  1
  Te  Te102  1  0.07297376  0.58362752  0.26268967  1
  Te  Te103  1  0.10517244  0.56836935  0.60678692  1
  Te  Te104  1  0.10025871  0.57549120  0.91704619  1
  Te  Te105  1  0.08213984  0.91886158  0.24412560  1
  Te  Te106  1  0.07035601  0.92481439  0.58052149  1
  Te  Te107  1  0.06874985  0.97307608  0.92191546  1
  Te  Te108  1  0.42128263  0.24009786  0.25298871  1
  Te  Te109  1  0.44651748  0.25242452  0.62108176  1
  Te  Te110  1  0.39395557  0.23159935  0.92777231  1
  Te  Te111  1  0.41577975  0.56567264  0.21441909  1
  Te  Te112  1  0.40776102  0.57674803  0.59140014  1
  Te  Te113  1  0.41598251  0.57202984  0.98072516  1
  Te  Te114  1  0.41111641  0.89990305  0.22880127  1
  Te  Te115  1  0.42104223  0.91315666  0.57038915  1
  Te  Te116  1  0.44077171  0.96194492  0.87993361  1
  Te  Te117  1  0.75954843  0.25091098  0.24463238  1
  Te  Te118  1  0.73298557  0.27171056  0.58277484  1
  Te  Te119  1  0.73757394  0.22722596  0.91315063  1
  Te  Te120  1  0.74676018  0.58079447  0.25669891  1
  Te  Te121  1  0.74120966  0.61711753  0.60099765  1
  Te  Te122  1  0.76307014  0.58018741  0.90636553  1
  Te  Te123  1  0.74394312  0.89877173  0.21399190  1
  Te  Te124  1  0.75481529  0.88424556  0.59491289  1
  Te  Te125  1  0.76442459  0.96825231  0.93225247  1
  Te  Te126  1  0.25047039  0.28798718  0.09625604  1
  Te  Te127  1  0.25753119  0.25962019  0.42543384  1
  Te  Te128  1  0.24204954  0.24873255  0.76410164  1
  Te  Te129  1  0.26502160  0.56998460  0.05564050  1
  Te  Te130  1  0.25347526  0.60714985  0.41952221  1
  Te  Te131  1  0.28512224  0.56961927  0.78422758  1
  Te  Te132  1  0.24540142  0.90143902  0.08515741  1
  Te  Te133  1  0.25008557  0.93826273  0.42839356  1
  Te  Te134  1  0.28073337  0.93749359  0.72112176  1
  Te  Te135  1  0.57008371  0.25026536  0.06056955  1
  Te  Te136  1  0.58280219  0.26355019  0.41415898  1
  Te  Te137  1  0.61897922  0.22555365  0.78995887  1
  Te  Te138  1  0.61653411  0.56383916  0.07505027  1
  Te  Te139  1  0.58751230  0.59759582  0.41402301  1
  Te  Te140  1  0.55229109  0.57853734  0.80585980  1
  Te  Te141  1  0.61514287  0.92388347  0.00077788  1
  Te  Te142  1  0.58326906  0.91862843  0.38978838  1
  Te  Te143  1  0.57467509  0.94199848  0.76047014  1
  Te  Te144  1  0.87203455  0.26894874  0.11534668  1
  Te  Te145  1  0.90879171  0.25721267  0.41802150  1
  Te  Te146  1  0.91704607  0.22059030  0.78685168  1
  Te  Te147  1  0.93388855  0.58912083  0.07902670  1
  Te  Te148  1  0.91684129  0.60300985  0.46291610  1
  Te  Te149  1  0.92668523  0.59758575  0.75574661  1
  Te  Te150  1  0.93896619  0.91611198  0.06967194  1
  Te  Te151  1  0.92045595  0.94100775  0.40744005  1
  Te  Te152  1  0.90602509  0.91335771  0.74224988  1
  Te  Te153  1  0.25151093  0.07458784  0.25189232  1
  Te  Te154  1  0.21577897  0.08194754  0.63146330  1
  Te  Te155  1  0.25038091  0.07838174  0.94038414  1
  Te  Te156  1  0.24245078  0.40957758  0.22603430  1
  Te  Te157  1  0.27665182  0.39212215  0.60598054  1
  Te  Te158  1  0.27812636  0.34450666  0.87335970  1
  Te  Te159  1  0.24752455  0.72914278  0.24188863  1
  Te  Te160  1  0.23878932  0.76840573  0.58449735  1
  Te  Te161  1  0.24629224  0.76206460  0.90953059  1
  Te  Te162  1  0.57272155  0.06675340  0.24544877  1
  Te  Te163  1  0.60442235  0.10213489  0.57564609  1
  Te  Te164  1  0.55932894  0.05577466  0.94765561  1
  Te  Te165  1  0.58146229  0.39045212  0.23672331  1
  Te  Te166  1  0.57788171  0.43352908  0.58204308  1
  Te  Te167  1  0.57608548  0.39235514  0.94667010  1
  Te  Te168  1  0.57360084  0.73885979  0.19755649  1
  Te  Te169  1  0.56798802  0.73589002  0.58744361  1
  Te  Te170  1  0.56344698  0.77809455  0.92695439  1
  Te  Te171  1  0.93919806  0.07690487  0.25172057  1
  Te  Te172  1  0.90708486  0.09841664  0.58081947  1
  Te  Te173  1  0.85784958  0.06136952  1.00705513  1
  Te  Te174  1  0.90578688  0.42871537  0.24801613  1
  Te  Te175  1  0.94437873  0.42437374  0.58809502  1
  Te  Te176  1  0.91065301  0.41888156  0.90901749  1
  Te  Te177  1  0.90970313  0.73400436  0.26159248  1
  Te  Te178  1  0.92009516  0.71704071  0.56758036  1
  Te  Te179  1  0.89556053  0.77584870  0.91772743  1
