# generated using pymatgen
data_In2Te3
_symmetry_space_group_name_H-M   'P 1'
_cell_length_a   19.03177346
_cell_length_b   19.04092974
_cell_length_c   19.03706786
_cell_angle_alpha   90.17991425
_cell_angle_beta   90.06110345
_cell_angle_gamma   90.09362813
_symmetry_Int_Tables_number   1
_chemical_formula_structural   In2Te3
_chemical_formula_sum   'In72 Te108'
_cell_volume   6898.65613181
_cell_formula_units_Z   36
loop_
 _symmetry_equiv_pos_site_id
 _symmetry_equiv_pos_as_xyz
  1  'x, y, z'
loop_
 _atom_site_type_symbol
 _atom_site_label
 _atom_site_symmetry_multiplicity
 _atom_site_fract_x
 _atom_site_fract_y
 _atom_site_fract_z
 _atom_site_occupancy
  In  In0  1  0.84032474  0.31677498  0.82481580  1
  In  In1  1  0.63300615  0.00796026  -0.03144425  1
  In  In2  1  -0.01064669  0.16145242  0.48875880  1
  In  In3  1  0.16094676  0.80737022  0.02025620  1
  In  In4  1  0.17258813  0.50060336  0.68793388  1
  In  In5  1  0.21083380  0.02365082  0.85497446  1
  In  In6  1  0.50594640  0.84706763  0.34560131  1
  In  In7  1  0.02746642  0.46162716  0.84568621  1
  In  In8  1  0.65965229  0.83516780  0.17581194  1
  In  In9  1  0.18037125  0.67247992  0.83828137  1
  In  In10  1  0.82929719  -0.02964477  0.16857900  1
  In  In11  1  0.00974123  0.18154950  0.83832858  1
  In  In12  1  0.18251078  0.30216833  0.84017020  1
  In  In13  1  0.57389242  0.17444734  0.18959663  1
  In  In14  1  0.82595768  -0.00756179  0.81849858  1
  In  In15  1  0.82328915  0.84818919  0.66035824  1
  In  In16  1  -0.00020208  -0.00465400  -0.02720885  1
  In  In17  1  0.16175082  0.86023355  0.66849380  1
  In  In18  1  0.33573605  0.32111840  -0.00006997  1
  In  In19  1  0.66261745  0.51926327  0.51003156  1
  In  In20  1  0.35610221  0.67482992  0.32793611  1
  In  In21  1  0.83010154  0.34826072  0.49460487  1
  In  In22  1  0.51752028  0.49379933  0.34293716  1
  In  In23  1  0.50801719  0.48719177  0.66840888  1
  In  In24  1  0.84351464  0.81136017  -0.00691032  1
  In  In25  1  0.17787647  0.01556118  0.15942679  1
  In  In26  1  0.15529461  0.16189954  0.66442766  1
  In  In27  1  0.84788344  0.48348461  0.68289849  1
  In  In28  1  0.68164558  0.49781188  0.15536948  1
  In  In29  1  0.19337381  0.49049045  0.02206752  1
  In  In30  1  0.48895252  0.48166871  0.01209438  1
  In  In31  1  0.49323628  0.85610191  -0.02342897  1
  In  In32  1  0.81403920  0.52013496  -0.02023961  1
  In  In33  1  -0.00533899  -0.01843957  0.32056859  1
  In  In34  1  0.35424845  -0.00266903  0.67675398  1
  In  In35  1  0.30844468  0.32274381  0.65654320  1
  In  In36  1  0.00911023  0.83381485  0.50319514  1
  In  In37  1  0.34029140  0.85873713  0.50157723  1
  In  In38  1  0.79776746  0.16785480  0.01366116  1
  In  In39  1  0.47426731  0.16620138  0.67121746  1
  In  In40  1  0.65363981  0.32820880  0.31740894  1
  In  In41  1  0.81144488  0.32573844  0.17630986  1
  In  In42  1  0.36697049  0.50429998  0.50442530  1
  In  In43  1  0.67842946  0.34193573  0.66782719  1
  In  In44  1  0.83831521  0.66414335  0.15946207  1
  In  In45  1  0.65801181  0.85012953  0.80085336  1
  In  In46  1  0.01356917  0.33636288  0.33633316  1
  In  In47  1  -0.01646337  0.13452085  0.15343546  1
  In  In48  1  0.51787125  0.64272028  0.16246087  1
  In  In49  1  0.64609390  0.12769121  0.83103240  1
  In  In50  1  -0.02919505  0.51472027  0.49814200  1
  In  In51  1  0.84852215  0.52001220  0.32929489  1
  In  In52  1  0.35447622  0.82516567  0.17243447  1
  In  In53  1  0.18451895  -0.00058879  0.47222687  1
  In  In54  1  0.33403586  0.16938222  0.47929583  1
  In  In55  1  0.50399817  0.66047205  0.83830651  1
  In  In56  1  0.80492366  0.01832320  0.51351481  1
  In  In57  1  0.67900651  0.67315940  0.66421441  1
  In  In58  1  0.78425777  0.83415929  0.36416578  1
  In  In59  1  0.65320669  0.19633831  0.48414021  1
  In  In60  1  0.35720282  0.69145465  0.66243894  1
  In  In61  1  0.11809693  0.51074780  0.27602184  1
  In  In62  1  -0.02943000  0.81957955  0.84339617  1
  In  In63  1  0.32864246  0.65337324  0.00878028  1
  In  In64  1  0.17468302  0.34514373  0.16829598  1
  In  In65  1  0.15288741  0.66874051  0.48621909  1
  In  In66  1  -0.02664932  0.67338872  0.66949089  1
  In  In67  1  0.49593119  0.34860646  0.84029380  1
  In  In68  1  0.01605882  0.77757815  0.19567434  1
  In  In69  1  0.19402508  0.18045593  0.31457222  1
  In  In70  1  0.50573224  0.00624838  0.51016356  1
  In  In71  1  0.36924301  0.16605344  0.17077511  1
  Te  Te72  1  0.08891187  0.08432748  0.05691952  1
  Te  Te73  1  0.08839865  0.08219965  0.38716264  1
  Te  Te74  1  0.09612092  0.07237178  0.77213279  1
  Te  Te75  1  0.08224256  0.41924169  0.08452181  1
  Te  Te76  1  0.07680612  0.45117016  0.41179155  1
  Te  Te77  1  0.09735682  0.38067309  0.73940167  1
  Te  Te78  1  0.07326863  0.70632691  0.08036572  1
  Te  Te79  1  0.09641598  0.77342506  0.40301344  1
  Te  Te80  1  0.08423327  0.74896822  0.74348113  1
  Te  Te81  1  0.40091961  0.06454673  0.06726083  1
  Te  Te82  1  0.41768230  0.06912124  0.40781947  1
  Te  Te83  1  0.44299947  0.06458770  0.77452836  1
  Te  Te84  1  0.39482825  0.41222479  0.09844793  1
  Te  Te85  1  0.41377708  0.41089245  0.40197437  1
  Te  Te86  1  0.40017204  0.41234384  0.74090521  1
  Te  Te87  1  0.44219609  0.74175506  0.07128287  1
  Te  Te88  1  0.42762657  0.75344255  0.43599008  1
  Te  Te89  1  0.43473640  0.76437349  0.76189795  1
  Te  Te90  1  0.73517359  0.05141596  0.08151953  1
  Te  Te91  1  0.73330717  0.09744673  0.41434046  1
  Te  Te92  1  0.74023950  0.07294042  0.73329132  1
  Te  Te93  1  0.75049376  0.40197904  0.06242988  1
  Te  Te94  1  0.74016570  0.42585777  0.40120831  1
  Te  Te95  1  0.74315826  0.42744960  0.77340698  1
  Te  Te96  1  0.73846683  0.74772687  0.08132821  1
  Te  Te97  1  0.70754608  0.72930910  0.43427734  1
  Te  Te98  1  0.76951029  0.74741830  0.76326446  1
  Te  Te99  1  0.07039224  0.23205591  0.23863406  1
  Te  Te100  1  0.09486281  0.24218922  0.55713885  1
  Te  Te101  1  0.08732664  0.25235576  0.93811075  1
  Te  Te102  1  0.05063010  0.63363168  0.23944091  1
  Te  Te103  1  0.08067990  0.58616594  0.59580449  1
  Te  Te104  1  0.10817424  0.56861027  0.91781975  1
  Te  Te105  1  0.08710267  0.91190966  0.22539734  1
  Te  Te106  1  0.08353852  0.94588296  0.57302098  1
  Te  Te107  1  0.08771358  0.88974630  0.91110014  1
  Te  Te108  1  0.44047772  0.23906433  0.27868602  1
  Te  Te109  1  0.41493676  0.26092579  0.56914461  1
  Te  Te110  1  0.43203637  0.24177066  0.91961351  1
  Te  Te111  1  0.42268275  0.56461094  0.24694844  1
  Te  Te112  1  0.45131771  0.60092821  0.58590782  1
  Te  Te113  1  0.41004983  0.57006644  0.91373338  1
  Te  Te114  1  0.44524324  0.92521941  0.23465913  1
  Te  Te115  1  0.44489567  0.90198861  0.60359613  1
  Te  Te116  1  0.39503763  0.96297717  0.94916044  1
  Te  Te117  1  0.71943649  0.22143195  0.23382159  1
  Te  Te118  1  0.76100150  0.24914968  0.58363156  1
  Te  Te119  1  0.73444756  0.23947489  0.89971220  1
  Te  Te120  1  0.74030957  0.59392354  0.25479647  1
  Te  Te121  1  0.77430763  0.57864889  0.59057074  1
  Te  Te122  1  0.78521338  0.63775623  0.89819295  1
  Te  Te123  1  0.72130523  0.93609667  0.27017016  1
  Te  Te124  1  0.71769949  0.91858703  0.58471707  1
  Te  Te125  1  0.75141771  0.90871085  0.92019660  1
  Te  Te126  1  0.25530247  0.23917073  0.09986374  1
  Te  Te127  1  0.22130468  0.25577630  0.43785273  1
  Te  Te128  1  0.26853596  0.21361922  0.75317606  1
  Te  Te129  1  0.24864059  0.59288449  0.11530304  1
  Te  Te130  1  0.26970911  0.59628092  0.42741044  1
  Te  Te131  1  0.27361963  0.59579082  0.74737308  1
  Te  Te132  1  0.25401170  0.90500462  0.08866594  1
  Te  Te133  1  0.26038437  0.90647554  0.38974606  1
  Te  Te134  1  0.26458225  0.91317471  0.76563656  1
  Te  Te135  1  0.57510809  0.29242647  0.10696028  1
  Te  Te136  1  0.54802271  0.25273117  0.39190211  1
  Te  Te137  1  0.57770229  0.25824916  0.74167640  1
  Te  Te138  1  0.60329975  0.58107576  0.05652024  1
  Te  Te139  1  0.58824905  0.60227791  0.41452827  1
  Te  Te140  1  0.59676778  0.57851804  0.75018481  1
  Te  Te141  1  0.57795012  0.92326997  0.08421286  1
  Te  Te142  1  0.59798177  0.91960502  0.43475311  1
  Te  Te143  1  0.58497529  0.97943116  0.79867401  1
  Te  Te144  1  0.90661651  0.24417622  0.08476242  1
  Te  Te145  1  0.90451722  0.25476735  0.40221034  1
  Te  Te146  1  0.92242012  0.23540445  0.73648311  1
  Te  Te147  1  0.90487113  0.55662907  0.08790292  1
  Te  Te148  1  0.91378558  0.61830242  0.41512803  1
  Te  Te149  1  0.94215825  0.56497537  0.76745585  1
  Te  Te150  1  0.93009099  0.90717466  0.07409473  1
  Te  Te151  1  0.90375973  0.91919405  0.42387510  1
  Te  Te152  1  0.93306282  0.92014083  0.73860076  1
  Te  Te153  1  0.27790168  0.07165274  0.25647199  1
  Te  Te154  1  0.26266586  0.07509229  0.58548940  1
  Te  Te155  1  0.29151935  0.08967436  0.95787732  1
  Te  Te156  1  0.23437413  0.42459707  0.27446957  1
  Te  Te157  1  0.24831562  0.43478663  0.57540165  1
  Te  Te158  1  0.25884885  0.41313875  0.90711194  1
  Te  Te159  1  0.26064657  0.72461595  0.22642536  1
  Te  Te160  1  0.24085251  0.76325366  0.58274048  1
  Te  Te161  1  0.26951686  0.76102421  0.92167897  1
  Te  Te162  1  0.51592234  0.07460317  0.27880688  1
  Te  Te163  1  0.58543465  0.10737462  0.58869370  1
  Te  Te164  1  0.55774914  0.13362254  0.95039212  1
  Te  Te165  1  0.57416556  0.40333909  0.20991964  1
  Te  Te166  1  0.58414661  0.40414656  0.56667272  1
  Te  Te167  1  0.58788625  0.43125863  0.91687472  1
  Te  Te168  1  0.57865746  0.74059553  0.25907701  1
  Te  Te169  1  0.63892086  0.77129477  0.56206478  1
  Te  Te170  1  0.59315047  0.76456245  0.90745629  1
  Te  Te171  1  0.89377051  0.07559772  0.25838471  1
  Te  Te172  1  0.91617507  0.08171402  0.58516260  1
  Te  Te173  1  0.89607557  0.08949190  0.91809575  1
  Te  Te174  1  0.91501200  0.41231165  0.24746385  1
  Te  Te175  1  0.93437055  0.40110088  0.59055821  1
  Te  Te176  1  0.91032733  0.40922938  0.92130383  1
  Te  Te177  1  0.88018445  0.77134013  0.25977205  1
  Te  Te178  1  0.89825379  0.75335329  0.56761777  1
  Te  Te179  1  0.92524978  0.70491932  0.92607113  1
