# generated using pymatgen
data_In2Te3
_symmetry_space_group_name_H-M   'P 1'
_cell_length_a   18.82594697
_cell_length_b   18.82232232
_cell_length_c   18.82404432
_cell_angle_alpha   90.03441079
_cell_angle_beta   89.98141709
_cell_angle_gamma   89.99755948
_symmetry_Int_Tables_number   1
_chemical_formula_structural   In2Te3
_chemical_formula_sum   'In72 Te108'
_cell_volume   6670.26168423
_cell_formula_units_Z   36
loop_
 _symmetry_equiv_pos_site_id
 _symmetry_equiv_pos_as_xyz
  1  'x, y, z'
loop_
 _atom_site_type_symbol
 _atom_site_label
 _atom_site_symmetry_multiplicity
 _atom_site_fract_x
 _atom_site_fract_y
 _atom_site_fract_z
 _atom_site_occupancy
  In  In0  1  0.48781792  0.81979597  0.67236575  1
  In  In1  1  0.17745540  0.33150035  0.82155842  1
  In  In2  1  -0.01500062  0.48304127  0.50893581  1
  In  In3  1  0.17143714  0.16098074  0.32088977  1
  In  In4  1  0.30915141  0.83535507  0.81957731  1
  In  In5  1  0.33534435  0.15020174  0.50910889  1
  In  In6  1  0.83883745  0.32928574  0.18438673  1
  In  In7  1  0.67052753  0.17714162  0.83701092  1
  In  In8  1  0.16568712  0.66444137  0.83237730  1
  In  In9  1  0.01323649  0.81794143  0.82772531  1
  In  In10  1  0.66536743  0.52511209  0.18055427  1
  In  In11  1  0.65803641  0.33939192  0.65334238  1
  In  In12  1  0.84383310  0.14391822  0.66557000  1
  In  In13  1  -0.01512452  0.68034087  0.65826444  1
  In  In14  1  0.18077932  0.17289783  0.00758737  1
  In  In15  1  0.00511071  0.81952764  0.16104479  1
  In  In16  1  0.34283000  0.68336544  0.34158494  1
  In  In17  1  -0.00349763  0.66776146  0.34017698  1
  In  In18  1  0.30441941  0.50329605  0.15552817  1
  In  In19  1  0.31602730  0.49328062  0.51061173  1
  In  In20  1  0.35675162  0.82457506  0.14651773  1
  In  In21  1  0.51121102  0.81898663  -0.00899637  1
  In  In22  1  0.68693120  0.00367400  -0.00920148  1
  In  In23  1  0.82883684  0.31619052  0.80823987  1
  In  In24  1  0.00091386  0.18713050  0.51893735  1
  In  In25  1  0.14798737  0.33466585  0.52634453  1
  In  In26  1  0.68611558  0.80752692  0.80239644  1
  In  In27  1  -0.00881399  0.33733395  -0.00954174  1
  In  In28  1  0.32933023  0.16140867  0.17344442  1
  In  In29  1  0.02579747  0.52413307  0.15475064  1
  In  In30  1  0.18420874  0.67455613  0.50154601  1
  In  In31  1  0.16530201  0.50449191  -0.01296681  1
  In  In32  1  0.84702394  -0.00494879  0.16974270  1
  In  In33  1  0.69328481  0.69355053  0.36656794  1
  In  In34  1  0.82237335  0.50793302  0.32910022  1
  In  In35  1  0.14284222  0.00996077  0.79960889  1
  In  In36  1  0.68065160  0.83682736  0.16373643  1
  In  In37  1  0.67085559  0.33507907  0.34828444  1
  In  In38  1  0.68315450  0.50537155  0.51952858  1
  In  In39  1  0.83511877  0.50238276  -0.00784549  1
  In  In40  1  0.47616510  0.03165412  0.81332997  1
  In  In41  1  0.49757577  -0.00799840  0.48883181  1
  In  In42  1  0.85733527  -0.02302489  0.83576511  1
  In  In43  1  0.31650321  -0.01581747  0.00048689  1
  In  In44  1  -0.00205045  0.67859601  -0.01141113  1
  In  In45  1  0.00204493  0.15763669  0.16226437  1
  In  In46  1  0.47417455  0.17181996  0.67183305  1
  In  In47  1  0.00651208  0.31945728  0.34806747  1
  In  In48  1  0.52360912  0.64671042  0.51885479  1
  In  In49  1  0.50955463  0.68100623  0.13076843  1
  In  In50  1  0.64457422  0.36075561  -0.01848625  1
  In  In51  1  0.66994822  -0.02807093  0.65559113  1
  In  In52  1  0.67173626  0.67920314  -0.00489562  1
  In  In53  1  0.32387025  0.33451448  0.31950948  1
  In  In54  1  0.33023029  0.83987581  0.51381128  1
  In  In55  1  0.66744362  0.16975743  0.49795778  1
  In  In56  1  0.47512785  0.49351189  0.68669166  1
  In  In57  1  0.16943254  0.50606409  0.68844279  1
  In  In58  1  0.82448840  -0.03316101  0.51022875  1
  In  In59  1  0.48034588  0.32265396  0.14527813  1
  In  In60  1  0.48690622  0.21167426  -0.01100397  1
  In  In61  1  0.14522726  -0.02554270  0.53344551  1
  In  In62  1  0.16552955  0.83664361  0.33707378  1
  In  In63  1  0.65879753  -0.00242040  0.33681264  1
  In  In64  1  0.32424557  0.33982424  -0.02170586  1
  In  In65  1  0.00320301  0.00705012  -0.01432556  1
  In  In66  1  0.62851865  0.51758136  0.84241118  1
  In  In67  1  0.84656074  0.50936600  0.66598482  1
  In  In68  1  0.51926551  0.85674284  0.33755357  1
  In  In69  1  0.48860481  0.01081738  0.18311513  1
  In  In70  1  0.48041922  0.49720850  0.32932326  1
  In  In71  1  -0.00863049  -0.00222624  0.34687512  1
  Te  Te72  1  0.09991302  0.07015329  0.08692602  1
  Te  Te73  1  0.08665942  0.08818640  0.42653926  1
  Te  Te74  1  0.06419374  0.11667210  0.73150760  1
  Te  Te75  1  0.09147795  0.40801283  0.07999387  1
  Te  Te76  1  0.09164094  0.42565213  0.41629909  1
  Te  Te77  1  0.07627858  0.40340989  0.74102419  1
  Te  Te78  1  0.09914572  0.73810603  0.07925339  1
  Te  Te79  1  0.07959382  0.76247747  0.43693844  1
  Te  Te80  1  0.10474960  0.75513615  0.71942253  1
  Te  Te81  1  0.41697216  0.09167346  0.06592154  1
  Te  Te82  1  0.41606265  0.08076557  0.40600593  1
  Te  Te83  1  0.36327581  0.09297201  0.73663424  1
  Te  Te84  1  0.40845575  0.43213654  0.06966057  1
  Te  Te85  1  0.40989276  0.40624729  0.42610453  1
  Te  Te86  1  0.41563138  0.39644919  0.78063057  1
  Te  Te87  1  0.39998255  0.72423807  0.03480003  1
  Te  Te88  1  0.43987644  0.75591849  0.43312051  1
  Te  Te89  1  0.41342150  0.74082589  0.77130163  1
  Te  Te90  1  0.75005333  0.08104983  0.09682964  1
  Te  Te91  1  0.75950841  0.07513450  0.42285279  1
  Te  Te92  1  0.74368550  0.06856572  0.75795218  1
  Te  Te93  1  0.74800113  0.42379925  0.09208857  1
  Te  Te94  1  0.76961038  0.41204673  0.43613316  1
  Te  Te95  1  0.73283731  0.42399463  0.75595116  1
  Te  Te96  1  0.76655712  0.75480047  0.07765299  1
  Te  Te97  1  0.79867918  0.76075752  0.44366868  1
  Te  Te98  1  0.77495151  0.73322459  0.71077049  1
  Te  Te99  1  0.08971118  0.25830350  0.23602742  1
  Te  Te100  1  0.10848963  0.22172524  0.62285418  1
  Te  Te101  1  0.08517475  0.24474255  0.91418221  1
  Te  Te102  1  0.09875513  0.59923609  0.25735659  1
  Te  Te103  1  0.08591817  0.58003683  0.57748853  1
  Te  Te104  1  0.06259562  0.57217590  0.89841439  1
  Te  Te105  1  0.07970830  0.92477774  0.24709704  1
  Te  Te106  1  0.06071830  0.89172220  0.62134198  1
  Te  Te107  1  0.09730905  0.91353089  0.91211141  1
  Te  Te108  1  0.42770608  0.23863396  0.26119353  1
  Te  Te109  1  0.41078619  0.26022979  0.57340880  1
  Te  Te110  1  0.38208408  0.23564437  0.88254168  1
  Te  Te111  1  0.41968291  0.59969248  0.23397067  1
  Te  Te112  1  0.40046447  0.59339716  0.58816663  1
  Te  Te113  1  0.49945961  0.55413953  0.91343408  1
  Te  Te114  1  0.40115284  0.91606874  0.26371592  1
  Te  Te115  1  0.41322145  0.93375406  0.60114129  1
  Te  Te116  1  0.42435371  0.91965244  0.91239233  1
  Te  Te117  1  0.74679347  0.24435999  0.26052591  1
  Te  Te118  1  0.76223370  0.24922525  0.58834634  1
  Te  Te119  1  0.75278397  0.26246113  0.93125874  1
  Te  Te120  1  0.76154178  0.62133940  0.24656090  1
  Te  Te121  1  0.74633691  0.60788566  0.60843998  1
  Te  Te122  1  0.75364645  0.59171236  0.90036859  1
  Te  Te123  1  0.76339392  0.90963621  0.26688354  1
  Te  Te124  1  0.78643777  0.87955681  0.63099813  1
  Te  Te125  1  0.75388484  0.89300074  0.91265589  1
  Te  Te126  1  0.25560876  0.27043661  0.09702598  1
  Te  Te127  1  0.23744665  0.25657609  0.42243841  1
  Te  Te128  1  0.27801285  0.23738170  0.76548623  1
  Te  Te129  1  0.23463541  0.60374166  0.07304951  1
  Te  Te130  1  0.25038719  0.57875648  0.40200434  1
  Te  Te131  1  0.27101798  0.58510762  0.76253939  1
  Te  Te132  1  0.24114307  0.89710887  0.09075664  1
  Te  Te133  1  0.24745934  0.93092791  0.42569522  1
  Te  Te134  1  0.24140908  0.92701950  0.72551119  1
  Te  Te135  1  0.60015007  0.25146112  0.08281248  1
  Te  Te136  1  0.57395145  0.26025888  0.42998013  1
  Te  Te137  1  0.57498528  0.25715908  0.75182471  1
  Te  Te138  1  0.57898008  0.56340548  0.05822694  1
  Te  Te139  1  0.59758940  0.57105001  0.39834303  1
  Te  Te140  1  0.58065830  0.59004380  0.72268177  1
  Te  Te141  1  0.57472370  0.91860867  0.08832353  1
  Te  Te142  1  0.61413535  0.90110978  0.44909389  1
  Te  Te143  1  0.57919748  0.92281041  0.76802443  1
  Te  Te144  1  0.90863622  0.24346811  0.07789845  1
  Te  Te145  1  0.90514791  0.24694145  0.42375592  1
  Te  Te146  1  0.93318939  0.21963585  0.75970664  1
  Te  Te147  1  0.90973577  0.59437926  0.08731460  1
  Te  Te148  1  0.90259725  0.58550773  0.43320284  1
  Te  Te149  1  0.92843423  0.58925678  0.75968149  1
  Te  Te150  1  0.91961326  0.90898575  0.06769435  1
  Te  Te151  1  0.91640949  0.89058247  0.41873298  1
  Te  Te152  1  0.95410249  0.92399803  0.73361836  1
  Te  Te153  1  0.24566513  0.06196967  0.24145761  1
  Te  Te154  1  0.22249318  0.09107808  0.58797464  1
  Te  Te155  1  0.23850695  0.07461081  0.90762712  1
  Te  Te156  1  0.22980090  0.42804572  0.25642454  1
  Te  Te157  1  0.25573940  0.39976608  0.61289476  1
  Te  Te158  1  0.26738472  0.44848720  0.88803196  1
  Te  Te159  1  0.25327764  0.75430706  0.24345461  1
  Te  Te160  1  0.26210221  0.74621178  0.60389937  1
  Te  Te161  1  0.23029491  0.76325599  0.92210307  1
  Te  Te162  1  0.58672900  0.09430358  0.25270652  1
  Te  Te163  1  0.58298726  0.08277228  0.59604558  1
  Te  Te164  1  0.57646878  0.08983024  0.92272187  1
  Te  Te165  1  0.57264518  0.41530939  0.23661868  1
  Te  Te166  1  0.56492570  0.42731031  0.57343058  1
  Te  Te167  1  0.52381713  0.40009587  0.88966264  1
  Te  Te168  1  0.58300220  0.74629674  0.25221294  1
  Te  Te169  1  0.59046003  0.76167043  0.58236917  1
  Te  Te170  1  0.57987425  0.73459465  0.88446578  1
  Te  Te171  1  0.90965436  0.09843791  0.26685676  1
  Te  Te172  1  0.92935773  0.06127704  0.57242288  1
  Te  Te173  1  0.90529819  0.09131854  0.91497248  1
  Te  Te174  1  0.93139991  0.43174946  0.25197441  1
  Te  Te175  1  0.92757652  0.39617098  0.61318955  1
  Te  Te176  1  0.91154463  0.41859918  0.89051464  1
  Te  Te177  1  0.91218801  0.75485690  0.25583991  1
  Te  Te178  1  0.89849671  0.75746737  0.56541155  1
  Te  Te179  1  0.90407824  0.75083693  0.90022428  1
