# generated using pymatgen
data_In2Te3
_symmetry_space_group_name_H-M   'P 1'
_cell_length_a   18.94634137
_cell_length_b   18.96130144
_cell_length_c   18.98153593
_cell_angle_alpha   90.02793539
_cell_angle_beta   89.85343848
_cell_angle_gamma   89.90674741
_symmetry_Int_Tables_number   1
_chemical_formula_structural   In2Te3
_chemical_formula_sum   'In72 Te108'
_cell_volume   6819.03317181
_cell_formula_units_Z   36
loop_
 _symmetry_equiv_pos_site_id
 _symmetry_equiv_pos_as_xyz
  1  'x, y, z'
loop_
 _atom_site_type_symbol
 _atom_site_label
 _atom_site_symmetry_multiplicity
 _atom_site_fract_x
 _atom_site_fract_y
 _atom_site_fract_z
 _atom_site_occupancy
  In  In0  1  0.50477312  0.66133967  0.84077644  1
  In  In1  1  -0.02449073  0.15188920  0.16968484  1
  In  In2  1  0.67867341  0.35273785  0.67422928  1
  In  In3  1  0.34601957  0.35189698  0.33838902  1
  In  In4  1  0.84039359  0.16033833  0.34994618  1
  In  In5  1  0.34116619  0.34507470  -0.00970809  1
  In  In6  1  0.34574522  0.81308252  0.48830089  1
  In  In7  1  0.00007704  0.01576019  0.64200514  1
  In  In8  1  0.17328410  0.52765921  0.01593553  1
  In  In9  1  -0.01482584  0.67762863  0.65964222  1
  In  In10  1  0.47635474  -0.01818698  0.49858842  1
  In  In11  1  0.18312908  0.67695996  0.84852963  1
  In  In12  1  0.15075821  0.32175880  0.50750005  1
  In  In13  1  0.29614641  0.33231062  0.65359825  1
  In  In14  1  0.13929084  -0.01383366  0.17603768  1
  In  In15  1  0.65959546  0.66555281  0.63819091  1
  In  In16  1  0.50977523  0.83099751  0.00535468  1
  In  In17  1  0.50958359  0.53240396  0.63100757  1
  In  In18  1  0.36295300  0.68427161  0.66229305  1
  In  In19  1  0.49835626  0.33720313  0.80439881  1
  In  In20  1  0.50921862  0.01814293  0.81241699  1
  In  In21  1  0.65981181  0.31458077  0.32367646  1
  In  In22  1  0.84272096  -0.02515336  0.48172240  1
  In  In23  1  0.18240292  -0.02025773  0.48696610  1
  In  In24  1  0.69618369  0.48861485  0.84494917  1
  In  In25  1  0.50144135  0.50660704  0.00554756  1
  In  In26  1  0.84485337  0.50859007  0.31302931  1
  In  In27  1  -0.01343321  0.32987459  0.33582463  1
  In  In28  1  0.16424669  -0.00611600  0.85056425  1
  In  In29  1  0.32352662  -0.01268215  -0.00391120  1
  In  In30  1  0.65221249  0.85076863  0.83774932  1
  In  In31  1  0.15691447  0.52140547  0.33067202  1
  In  In32  1  -0.01360353  0.17721356  0.80909160  1
  In  In33  1  0.67966626  -0.02040931  0.31156478  1
  In  In34  1  0.66169319  0.83974641  0.49840295  1
  In  In35  1  0.68734199  0.00768395  -0.00607426  1
  In  In36  1  -0.00627883  0.83971550  0.84678645  1
  In  In37  1  0.15859106  0.30849275  0.82478736  1
  In  In38  1  0.50021980  0.17656790  -0.01238040  1
  In  In39  1  0.49815234  0.33210817  0.13330641  1
  In  In40  1  0.19706052  0.75295567  0.04918715  1
  In  In41  1  0.16749797  0.66747891  0.48584570  1
  In  In42  1  0.15872171  0.13485947  0.33581980  1
  In  In43  1  0.15963891  0.34997900  0.16209733  1
  In  In44  1  0.65934892  0.52130492  0.18300652  1
  In  In45  1  0.31681631  0.81663758  0.21132877  1
  In  In46  1  0.85782919  0.35241208  0.50508621  1
  In  In47  1  0.51077720  0.70853781  0.20360177  1
  In  In48  1  0.64752202  0.17872002  0.50679420  1
  In  In49  1  0.48588659  -0.02861124  0.17582197  1
  In  In50  1  0.82127652  0.32592909  0.15881769  1
  In  In51  1  0.17439177  0.51667009  0.65651303  1
  In  In52  1  0.00049815  0.66553078  0.33505569  1
  In  In53  1  0.83638829  0.65901639  0.84962766  1
  In  In54  1  0.31287245  0.16013948  0.50879682  1
  In  In55  1  0.69405986  0.31735547  -0.01953128  1
  In  In56  1  0.00482234  0.49499880  0.84573444  1
  In  In57  1  0.66295889  0.51142818  0.48066085  1
  In  In58  1  0.48077087  0.17453031  0.66200345  1
  In  In59  1  0.83805870  0.15035121  -0.00821989  1
  In  In60  1  0.01014649  -0.00965257  0.01807409  1
  In  In61  1  0.81494687  0.81707298  0.03865828  1
  In  In62  1  0.82448711  0.01568642  0.80159296  1
  In  In63  1  0.36453358  0.49826102  0.84145240  1
  In  In64  1  0.16774112  0.86571354  0.67120669  1
  In  In65  1  0.31336735  0.16329769  0.16410810  1
  In  In66  1  0.81610440  0.65736858  0.49075738  1
  In  In67  1  -0.01900792  0.82634459  0.19017478  1
  In  In68  1  0.86868219  0.53088524  0.02839689  1
  In  In69  1  0.49927998  0.53035200  0.34391844  1
  In  In70  1  0.81840823  0.81989785  0.64644710  1
  In  In71  1  0.49713684  0.14302833  0.33465712  1
  Te  Te72  1  0.09065378  0.09863537  0.08546898  1
  Te  Te73  1  0.07687530  0.07202870  0.43698894  1
  Te  Te74  1  0.08532453  0.07797581  0.74874249  1
  Te  Te75  1  0.08017272  0.42656673  0.06748541  1
  Te  Te76  1  0.07811916  0.41956617  0.41486941  1
  Te  Te77  1  0.09439663  0.42406783  0.74539402  1
  Te  Te78  1  0.05493431  0.73210262  0.10016796  1
  Te  Te79  1  0.09195721  0.76202805  0.40093024  1
  Te  Te80  1  0.07888994  0.74981358  0.75513428  1
  Te  Te81  1  0.42145744  0.08710068  0.08253217  1
  Te  Te82  1  0.38962540  0.07103303  0.40955235  1
  Te  Te83  1  0.39868618  0.09315030  0.75110775  1
  Te  Te84  1  0.39702125  0.43913258  0.09408280  1
  Te  Te85  1  0.42179749  0.43775800  0.42833752  1
  Te  Te86  1  0.41396623  0.42692148  0.71552765  1
  Te  Te87  1  0.41480630  0.76558719  0.09968438  1
  Te  Te88  1  0.46140112  0.72292189  0.45918911  1
  Te  Te89  1  0.44403582  0.76192159  0.75473168  1
  Te  Te90  1  0.76915901  0.07387607  0.09594541  1
  Te  Te91  1  0.72741281  0.08300594  0.41887142  1
  Te  Te92  1  0.75626325  0.13563045  0.76179975  1
  Te  Te93  1  0.73057640  0.42333451  0.08657141  1
  Te  Te94  1  0.75492656  0.40693314  0.39766210  1
  Te  Te95  1  0.78256394  0.40156452  0.76614703  1
  Te  Te96  1  0.74084985  0.72310811  0.12366630  1
  Te  Te97  1  0.75586757  0.76602833  0.41065874  1
  Te  Te98  1  0.74388682  0.73733946  0.75074180  1
  Te  Te99  1  0.07921823  0.24190447  0.24987576  1
  Te  Te100  1  0.06733706  0.25839627  0.61251654  1
  Te  Te101  1  0.05746672  0.25241609  0.91293717  1
  Te  Te102  1  0.05740675  0.57264186  0.23131562  1
  Te  Te103  1  0.06975298  0.58579295  0.57257452  1
  Te  Te104  1  0.07593677  0.60323260  0.92494787  1
  Te  Te105  1  0.07435913  0.90250360  0.28001956  1
  Te  Te106  1  0.06752180  0.90277237  0.56764499  1
  Te  Te107  1  0.09760536  0.89218501  0.94316407  1
  Te  Te108  1  0.41746724  0.24706929  0.23885595  1
  Te  Te109  1  0.40380670  0.26502595  0.56787348  1
  Te  Te110  1  0.40898403  0.25171012  0.89261772  1
  Te  Te111  1  0.41658393  0.60554376  0.25042612  1
  Te  Te112  1  0.40398068  0.59615020  0.54837591  1
  Te  Te113  1  0.40325534  0.60468203  0.94067290  1
  Te  Te114  1  0.42807541  0.88514862  0.27926319  1
  Te  Te115  1  0.38879725  0.91001734  0.58953719  1
  Te  Te116  1  0.43674357  0.92712360  0.91510163  1
  Te  Te117  1  0.74961226  0.22313113  0.24390300  1
  Te  Te118  1  0.75264821  0.26370680  0.57320138  1
  Te  Te119  1  0.77206709  0.23252715  0.88312911  1
  Te  Te120  1  0.75759882  0.61035849  0.24898063  1
  Te  Te121  1  0.75743331  0.55920659  0.59162849  1
  Te  Te122  1  0.74657459  0.58583464  0.94742657  1
  Te  Te123  1  0.76383046  0.87141211  0.25501067  1
  Te  Te124  1  0.73719900  0.93352737  0.59032474  1
  Te  Te125  1  0.77166658  0.90931217  0.91038467  1
  Te  Te126  1  0.24427050  0.26009446  0.07069411  1
  Te  Te127  1  0.24376404  0.25337459  0.39809130  1
  Te  Te128  1  0.25406664  0.22918524  0.74748293  1
  Te  Te129  1  0.23908625  0.62232680  0.11048379  1
  Te  Te130  1  0.26341625  0.61695593  0.38065298  1
  Te  Te131  1  0.26983278  0.58731709  0.75353223  1
  Te  Te132  1  0.24691377  0.90654901  0.10146958  1
  Te  Te133  1  0.24412854  0.87535790  0.40200153  1
  Te  Te134  1  0.25833975  0.90756769  0.77590530  1
  Te  Te135  1  0.60525656  0.23983516  0.07776875  1
  Te  Te136  1  0.55470923  0.25713561  0.41650099  1
  Te  Te137  1  0.59453191  0.24229893  0.74048660  1
  Te  Te138  1  0.56785469  0.60421364  0.09789618  1
  Te  Te139  1  0.59542698  0.62207275  0.40995792  1
  Te  Te140  1  0.59221528  0.56628539  0.75559233  1
  Te  Te141  1  0.60011885  0.92155497  0.08518245  1
  Te  Te142  1  0.57404686  0.91513557  0.40036356  1
  Te  Te143  1  0.59309124  0.92782981  0.73112122  1
  Te  Te144  1  0.92051352  0.25267778  0.07067264  1
  Te  Te145  1  0.93456143  0.23465009  0.44103044  1
  Te  Te146  1  0.93268080  0.25323233  0.69407868  1
  Te  Te147  1  0.95078800  0.61398165  0.11617489  1
  Te  Te148  1  0.92042863  0.56646080  0.42836906  1
  Te  Te149  1  0.91542221  0.57758015  0.74921711  1
  Te  Te150  1  0.90328570  0.92411739  0.10154854  1
  Te  Te151  1  0.93354600  0.93844891  0.37306526  1
  Te  Te152  1  0.91620176  0.90449719  0.73410089  1
  Te  Te153  1  0.25552650  0.05461296  0.25185549  1
  Te  Te154  1  0.23744182  0.06766123  0.59138940  1
  Te  Te155  1  0.24082636  0.08882056  0.93329779  1
  Te  Te156  1  0.25192976  0.43234817  0.24948094  1
  Te  Te157  1  0.24490761  0.43392586  0.55107019  1
  Te  Te158  1  0.24601717  0.42917043  0.90740985  1
  Te  Te159  1  0.23110495  0.70509484  0.25440681  1
  Te  Te160  1  0.23636182  0.74408808  0.59816003  1
  Te  Te161  1  0.26879803  0.76829305  0.92215918  1
  Te  Te162  1  0.58367980  0.07358493  0.23383253  1
  Te  Te163  1  0.56489987  0.07720003  0.58030176  1
  Te  Te164  1  0.60007134  0.09574789  0.90710481  1
  Te  Te165  1  0.57012866  0.41035475  0.24519549  1
  Te  Te166  1  0.58527818  0.41628280  0.56936223  1
  Te  Te167  1  0.57555700  0.40505473  0.91973742  1
  Te  Te168  1  0.63717126  0.78780023  0.22094228  1
  Te  Te169  1  0.56163500  0.75941569  0.57834386  1
  Te  Te170  1  0.60299242  0.73996234  0.92754322  1
  Te  Te171  1  0.92225004  0.05935772  0.27384393  1
  Te  Te172  1  0.88564101  0.07814881  0.57694078  1
  Te  Te173  1  0.93342931  0.05726559  0.90707325  1
  Te  Te174  1  0.92476023  0.41381795  0.22569572  1
  Te  Te175  1  0.96582504  0.37988508  0.60307506  1
  Te  Te176  1  0.90568528  0.42792753  0.93178249  1
  Te  Te177  1  0.89020959  0.75437765  0.28468724  1
  Te  Te178  1  0.91772505  0.75801564  0.55068790  1
  Te  Te179  1  0.91409518  0.75109840  0.94059403  1
