# generated using pymatgen
data_In2Te3
_symmetry_space_group_name_H-M   'P 1'
_cell_length_a   18.93506125
_cell_length_b   18.92942111
_cell_length_c   18.94491905
_cell_angle_alpha   90.05763099
_cell_angle_beta   90.02695992
_cell_angle_gamma   89.94258304
_symmetry_Int_Tables_number   1
_chemical_formula_structural   In2Te3
_chemical_formula_sum   'In72 Te108'
_cell_volume   6790.41496964
_cell_formula_units_Z   36
loop_
 _symmetry_equiv_pos_site_id
 _symmetry_equiv_pos_as_xyz
  1  'x, y, z'
loop_
 _atom_site_type_symbol
 _atom_site_label
 _atom_site_symmetry_multiplicity
 _atom_site_fract_x
 _atom_site_fract_y
 _atom_site_fract_z
 _atom_site_occupancy
  In  In0  1  0.82031900  0.17327272  -0.00102894  1
  In  In1  1  0.17607433  -0.01650132  0.17469421  1
  In  In2  1  0.52078911  0.82614588  0.00991490  1
  In  In3  1  0.51362024  0.32360818  0.48144454  1
  In  In4  1  -0.02417232  0.36816988  0.00428203  1
  In  In5  1  0.18074675  0.02946508  0.85275879  1
  In  In6  1  0.51849119  0.69790119  0.18330557  1
  In  In7  1  0.34574743  0.47765019  0.51702960  1
  In  In8  1  0.03407004  0.21000667  0.20357354  1
  In  In9  1  0.82676107  0.15764089  0.33620833  1
  In  In10  1  0.34830872  0.83549385  0.17629043  1
  In  In11  1  0.68057549  0.51198891  0.48685652  1
  In  In12  1  0.66255828  0.01074898  0.66285496  1
  In  In13  1  0.66943664  0.50364348  0.82631064  1
  In  In14  1  0.34842974  0.47673731  0.83096682  1
  In  In15  1  0.63836388  0.18141330  0.80443491  1
  In  In16  1  -0.03297810  0.67082515  0.02253750  1
  In  In17  1  0.66019880  0.52669214  0.19055351  1
  In  In18  1  0.81777385  0.19032030  0.67244116  1
  In  In19  1  0.17340225  0.67403782  0.47780731  1
  In  In20  1  0.31178385  0.50191406  0.18289932  1
  In  In21  1  0.17286102  0.32016143  0.80917674  1
  In  In22  1  0.50296898  0.16690196  0.33155372  1
  In  In23  1  -0.00419154  0.16482631  0.83545552  1
  In  In24  1  0.49795724  0.49628079  0.35957915  1
  In  In25  1  0.49799620  0.14554713  0.02328956  1
  In  In26  1  0.47270308  0.49769118  0.65525658  1
  In  In27  1  0.79907742  0.33127440  0.48925286  1
  In  In28  1  0.19579195  0.32099394  0.47017544  1
  In  In29  1  0.35190493  0.68612201  0.33344007  1
  In  In30  1  0.02017390  0.00518658  -0.00706808  1
  In  In31  1  0.32595357  0.85561404  0.84714422  1
  In  In32  1  0.82456003  -0.01014063  0.52128335  1
  In  In33  1  0.49702235  0.51674423  0.00596309  1
  In  In34  1  0.33734875  -0.01027798  0.32342794  1
  In  In35  1  0.00645848  0.15690511  0.47324513  1
  In  In36  1  0.18192174  0.83326616  0.67312485  1
  In  In37  1  0.81527124  0.48654236  0.68158393  1
  In  In38  1  0.00276633  0.82785100  0.45698087  1
  In  In39  1  0.48216635  0.02231735  0.80937184  1
  In  In40  1  0.84872941  0.01355608  0.15702231  1
  In  In41  1  0.51514824  -0.00028648  0.50817933  1
  In  In42  1  -0.01114150  0.67237580  0.64058154  1
  In  In43  1  0.83209741  0.82872625  0.32593378  1
  In  In44  1  0.17278873  0.67124473  0.82201268  1
  In  In45  1  -0.00542306  -0.02188221  0.65662051  1
  In  In46  1  0.79678297  0.79792956  -0.00200008  1
  In  In47  1  -0.00530973  0.49980030  0.17926521  1
  In  In48  1  0.15952579  0.49323721  0.33296641  1
  In  In49  1  0.15585289  0.50880073  0.02081557  1
  In  In50  1  0.18968453  0.16768602  0.00334408  1
  In  In51  1  -0.01796348  0.84268771  0.17475648  1
  In  In52  1  0.65190404  0.33019904  0.01292760  1
  In  In53  1  0.15155904  0.84322451  0.00628767  1
  In  In54  1  -0.00887200  0.32498706  0.65782709  1
  In  In55  1  0.35314702  0.64678423  0.66567994  1
  In  In56  1  0.50829939  0.67905575  0.85678852  1
  In  In57  1  0.66346778  -0.01240766  0.01779295  1
  In  In58  1  0.34042030  0.31253595  -0.01437510  1
  In  In59  1  -0.00279691  0.53333424  0.50599774  1
  In  In60  1  0.82638895  0.66350255  0.83160078  1
  In  In61  1  0.19582615  0.16618539  0.65940361  1
  In  In62  1  0.52239602  0.81223705  0.65556246  1
  In  In63  1  0.82680181  0.33477876  0.18052562  1
  In  In64  1  0.82634359  0.66446613  0.48536430  1
  In  In65  1  0.81012269  0.83646058  0.68740807  1
  In  In66  1  0.65103297  -0.00491990  0.34370062  1
  In  In67  1  0.36306568  0.84097334  0.48487953  1
  In  In68  1  0.34168428  0.29538652  0.64876697  1
  In  In69  1  0.18938748  0.00876011  0.48657300  1
  In  In70  1  0.48614626  0.33559199  0.19095904  1
  In  In71  1  -0.00757686  0.48063311  0.85615679  1
  Te  Te72  1  0.08930382  0.09409443  0.09265467  1
  Te  Te73  1  0.08916843  0.06487347  0.39278322  1
  Te  Te74  1  0.08363340  0.08479993  0.73947911  1
  Te  Te75  1  0.08844583  0.40008093  0.09863699  1
  Te  Te76  1  0.08624783  0.42128774  0.44445518  1
  Te  Te77  1  0.07677600  0.41758307  0.74315747  1
  Te  Te78  1  0.07521173  0.74873506  0.09520791  1
  Te  Te79  1  0.07097946  0.72067473  0.38284213  1
  Te  Te80  1  0.07320262  0.75350290  0.74232363  1
  Te  Te81  1  0.37068009  0.09587065  0.07660335  1
  Te  Te82  1  0.41769388  0.07507192  0.41977457  1
  Te  Te83  1  0.40505080  0.12558188  0.74159450  1
  Te  Te84  1  0.40803921  0.42064380  0.08313211  1
  Te  Te85  1  0.39802962  0.38948217  0.40620550  1
  Te  Te86  1  0.42984694  0.37981836  0.74662788  1
  Te  Te87  1  0.41609281  0.74026038  0.07844679  1
  Te  Te88  1  0.45497136  0.78052327  0.38529297  1
  Te  Te89  1  0.40693853  0.75315974  0.76069327  1
  Te  Te90  1  0.73588629  0.09671075  0.09740505  1
  Te  Te91  1  0.73962083  0.08057949  0.43525860  1
  Te  Te92  1  0.75155500  0.08582838  0.75974979  1
  Te  Te93  1  0.73401206  0.42334673  0.09956937  1
  Te  Te94  1  0.77073303  0.43968952  0.39499357  1
  Te  Te95  1  0.70890672  0.39280185  0.73017187  1
  Te  Te96  1  0.74998657  0.74459263  0.12771514  1
  Te  Te97  1  0.73709974  0.75675288  0.41266103  1
  Te  Te98  1  0.72760260  0.73338871  0.74816835  1
  Te  Te99  1  0.12356828  0.26868560  0.31205909  1
  Te  Te100  1  0.08961314  0.23985771  0.57786029  1
  Te  Te101  1  0.08792186  0.25437846  0.91648533  1
  Te  Te102  1  0.08970245  0.59014016  0.24778727  1
  Te  Te103  1  0.10887471  0.59377504  0.59024544  1
  Te  Te104  1  0.07598247  0.59679678  0.91617334  1
  Te  Te105  1  0.07488162  0.91780497  0.25886772  1
  Te  Te106  1  0.09166259  0.90081458  0.56823344  1
  Te  Te107  1  0.08600562  0.91518887  0.89002796  1
  Te  Te108  1  0.40087969  0.22937133  0.24365435  1
  Te  Te109  1  0.43830847  0.22459185  0.56362983  1
  Te  Te110  1  0.45902237  0.25158757  0.92757933  1
  Te  Te111  1  0.43184313  0.58045430  0.24537262  1
  Te  Te112  1  0.43684729  0.60750101  0.54275896  1
  Te  Te113  1  0.39839682  0.59087940  0.91827569  1
  Te  Te114  1  0.44607662  0.92895148  0.23912641  1
  Te  Te115  1  0.42510062  0.91508106  0.60070166  1
  Te  Te116  1  0.43992986  0.92117583  0.91891187  1
  Te  Te117  1  0.73837015  0.24145883  0.25365054  1
  Te  Te118  1  0.72131437  0.24369708  0.57668769  1
  Te  Te119  1  0.73112669  0.25301467  0.90896947  1
  Te  Te120  1  0.76358588  0.62524183  0.23520273  1
  Te  Te121  1  0.74960524  0.59343970  0.59814266  1
  Te  Te122  1  0.75887952  0.57011711  0.92337630  1
  Te  Te123  1  0.75640568  0.93592005  0.24770811  1
  Te  Te124  1  0.72138917  0.89686179  0.57937952  1
  Te  Te125  1  0.73344837  0.90311191  0.91957041  1
  Te  Te126  1  0.25650182  0.26147196  0.09403408  1
  Te  Te127  1  0.21559285  0.19150743  0.40249141  1
  Te  Te128  1  0.28382763  0.21700995  0.78079706  1
  Te  Te129  1  0.24264579  0.59780301  0.09642004  1
  Te  Te130  1  0.27112950  0.57419524  0.41671083  1
  Te  Te131  1  0.25436524  0.56650557  0.74745315  1
  Te  Te132  1  0.26556955  0.91583596  0.07257951  1
  Te  Te133  1  0.24667370  0.89446078  0.40457375  1
  Te  Te134  1  0.25530095  0.94397703  0.74691492  1
  Te  Te135  1  0.57855594  0.24401246  0.11123971  1
  Te  Te136  1  0.60722195  0.25521638  0.38962996  1
  Te  Te137  1  0.57995981  0.29980129  0.74150497  1
  Te  Te138  1  0.59038012  0.60618633  0.07960689  1
  Te  Te139  1  0.59026761  0.60063311  0.40914396  1
  Te  Te140  1  0.55908681  0.57963558  0.75382840  1
  Te  Te141  1  0.56528402  0.92614193  0.11080360  1
  Te  Te142  1  0.57751707  0.89362404  0.42438645  1
  Te  Te143  1  0.57926693  0.91862879  0.75047446  1
  Te  Te144  1  0.92326009  0.24714118  0.08225297  1
  Te  Te145  1  0.91353274  0.25789629  0.41283881  1
  Te  Te146  1  0.90564071  0.26837707  0.76938328  1
  Te  Te147  1  0.90598609  0.54745513  0.06998221  1
  Te  Te148  1  0.91389316  0.58533670  0.39847373  1
  Te  Te149  1  0.92655810  0.57609115  0.74213235  1
  Te  Te150  1  0.91292319  0.91588043  0.05884656  1
  Te  Te151  1  0.90988805  0.93644206  0.40811959  1
  Te  Te152  1  0.90501320  0.92337087  0.75715010  1
  Te  Te153  1  0.26016430  0.08568349  0.24081612  1
  Te  Te154  1  0.27763633  0.07007320  0.58540965  1
  Te  Te155  1  0.29295700  0.07603536  0.94420769  1
  Te  Te156  1  0.24290772  0.39563637  0.25810836  1
  Te  Te157  1  0.24471588  0.39906551  0.59717309  1
  Te  Te158  1  0.23516803  0.41867568  0.91515918  1
  Te  Te159  1  0.25249275  0.75490668  0.25253374  1
  Te  Te160  1  0.26945258  0.74989578  0.58031256  1
  Te  Te161  1  0.24708163  0.75297363  0.92542339  1
  Te  Te162  1  0.56565145  0.06316369  0.24336464  1
  Te  Te163  1  0.57341630  0.10658066  0.59382602  1
  Te  Te164  1  0.59030101  0.08055576  0.91177258  1
  Te  Te165  1  0.59031413  0.41690288  0.26891543  1
  Te  Te166  1  0.57701452  0.43146445  0.56654464  1
  Te  Te167  1  0.57603010  0.42317453  0.91955329  1
  Te  Te168  1  0.64570253  0.74581019  0.24395091  1
  Te  Te169  1  0.55612088  0.70261953  0.56656773  1
  Te  Te170  1  0.61746069  0.75042914  0.92624617  1
  Te  Te171  1  0.93519302  0.09938826  0.24635676  1
  Te  Te172  1  0.91689788  0.09762407  0.58927752  1
  Te  Te173  1  0.90579106  0.07544257  0.91802994  1
  Te  Te174  1  0.92769406  0.40000715  0.26486110  1
  Te  Te175  1  0.90652887  0.42155483  0.57680398  1
  Te  Te176  1  0.87183430  0.41746689  0.91192233  1
  Te  Te177  1  0.89587477  0.73261994  0.22742071  1
  Te  Te178  1  0.90818153  0.77639528  0.56650692  1
  Te  Te179  1  0.91658400  0.75762255  0.91008995  1
