# generated using pymatgen
data_In2Te3
_symmetry_space_group_name_H-M   'P 1'
_cell_length_a   18.96420957
_cell_length_b   18.94939059
_cell_length_c   18.96677994
_cell_angle_alpha   89.94377766
_cell_angle_beta   89.92765248
_cell_angle_gamma   90.07431355
_symmetry_Int_Tables_number   1
_chemical_formula_structural   In2Te3
_chemical_formula_sum   'In72 Te108'
_cell_volume   6815.89164700
_cell_formula_units_Z   36
loop_
 _symmetry_equiv_pos_site_id
 _symmetry_equiv_pos_as_xyz
  1  'x, y, z'
loop_
 _atom_site_type_symbol
 _atom_site_label
 _atom_site_symmetry_multiplicity
 _atom_site_fract_x
 _atom_site_fract_y
 _atom_site_fract_z
 _atom_site_occupancy
  In  In0  1  0.17710518  0.17260089  0.01931220  1
  In  In1  1  0.36210897  0.65075721  0.66536376  1
  In  In2  1  0.79445767  0.48505500  0.71032377  1
  In  In3  1  -0.00226961  0.33056554  0.33562282  1
  In  In4  1  0.00024451  0.50371142  0.49948322  1
  In  In5  1  0.51893982  0.17116684  0.66739723  1
  In  In6  1  0.67491010  0.48335023  0.48985838  1
  In  In7  1  0.80777627  0.81376477  -0.02857962  1
  In  In8  1  0.33728701  0.02657118  0.33567418  1
  In  In9  1  0.17348785  0.19435062  0.66936068  1
  In  In10  1  0.31783017  0.01924051  0.00193493  1
  In  In11  1  0.15140659  0.66915548  0.85063193  1
  In  In12  1  0.53429647  0.81197041  -0.04139514  1
  In  In13  1  0.32729902  0.35237767  0.67148126  1
  In  In14  1  -0.02124559  0.82848774  0.52123473  1
  In  In15  1  0.18308263  0.36557225  0.20602332  1
  In  In16  1  0.15426817  0.84803755  0.01593079  1
  In  In17  1  0.33816624  0.17747317  0.17252883  1
  In  In18  1  0.67144395  0.83192336  0.49304300  1
  In  In19  1  0.33138980  0.50273236  0.82760337  1
  In  In20  1  0.34400236  0.18336365  0.48367763  1
  In  In21  1  0.84114502  0.18875288  0.66271755  1
  In  In22  1  0.81840980  0.49951282  -0.04680474  1
  In  In23  1  0.67807984  0.00279701  0.00410542  1
  In  In24  1  0.65587762  0.02157881  0.32886636  1
  In  In25  1  -0.02188187  0.65069781  0.32483183  1
  In  In26  1  0.48750887  0.48697870  0.34003079  1
  In  In27  1  0.69867591  0.67398439  0.68161593  1
  In  In28  1  0.16063039  0.34141947  0.84023924  1
  In  In29  1  0.84426235  0.33754605  0.50221979  1
  In  In30  1  0.69166202  0.21794529  0.17779298  1
  In  In31  1  0.35272035  -0.00816327  0.67165913  1
  In  In32  1  0.50454234  0.00625840  0.84047738  1
  In  In33  1  0.02271545  0.14059249  0.49717700  1
  In  In34  1  0.68550274  0.17699029  0.83337275  1
  In  In35  1  0.66480065  0.82616427  0.16020615  1
  In  In36  1  0.48566519  0.34095736  0.17312300  1
  In  In37  1  -0.01615018  0.82623326  0.84538691  1
  In  In38  1  0.68107393  0.34106574  -0.00368985  1
  In  In39  1  0.85449223  0.00204548  0.16256937  1
  In  In40  1  0.84002923  0.84567383  0.35628779  1
  In  In41  1  0.84329775  0.64382140  0.15640910  1
  In  In42  1  0.16771969  0.01449715  0.49688518  1
  In  In43  1  0.15235376  0.84106902  0.32003391  1
  In  In44  1  0.64939806  0.50893815  0.16100870  1
  In  In45  1  -0.00670387  0.48843587  0.16741771  1
  In  In46  1  -0.03023172  0.64815835  0.67688329  1
  In  In47  1  0.35371538  0.85444384  0.52123811  1
  In  In48  1  0.67809962  0.68863719  0.31547367  1
  In  In49  1  0.49912914  0.64712019  0.51288207  1
  In  In50  1  0.15453356  0.66282446  0.15920562  1
  In  In51  1  -0.00795572  0.01500369  -0.00676594  1
  In  In52  1  0.33432986  0.64856520  -0.01141781  1
  In  In53  1  0.20822020  0.34681577  0.48919218  1
  In  In54  1  0.16362915  0.50290447  0.00836262  1
  In  In55  1  0.34378409  0.64003971  0.32416720  1
  In  In56  1  0.34951146  0.83114230  0.81683946  1
  In  In57  1  0.17182361  0.64395661  0.46214241  1
  In  In58  1  0.80871659  0.00453223  0.48931209  1
  In  In59  1  0.51069063  0.49732367  -0.00637545  1
  In  In60  1  0.34537499  0.82719789  0.14335368  1
  In  In61  1  0.02026255  0.83057788  0.15540871  1
  In  In62  1  0.65424086  0.00613795  0.67366768  1
  In  In63  1  0.52501841  0.81965896  0.34184932  1
  In  In64  1  0.52583004  0.49236185  0.66502339  1
  In  In65  1  0.64520987  0.21084823  0.47172221  1
  In  In66  1  -0.04021993  0.19595402  0.14947805  1
  In  In67  1  -0.02303973  0.16930014  0.84523223  1
  In  In68  1  0.01088229  0.34551747  0.69396783  1
  In  In69  1  0.00085331  -0.01600250  0.68395573  1
  In  In70  1  0.19958098  0.81426574  0.66606762  1
  In  In71  1  0.49713860  0.00578484  0.19271918  1
  Te  Te72  1  0.06682411  0.09457945  0.09403768  1
  Te  Te73  1  0.11073410  0.09554618  0.38759509  1
  Te  Te74  1  0.07068805  0.10402891  0.74162184  1
  Te  Te75  1  0.08547820  0.40075172  0.08745681  1
  Te  Te76  1  0.09189706  0.41754921  0.41605218  1
  Te  Te77  1  0.08423183  0.44778713  0.77049118  1
  Te  Te78  1  0.06777220  0.72827689  0.05421693  1
  Te  Te79  1  0.06693488  0.75056783  0.41117646  1
  Te  Te80  1  0.08257618  0.75268353  0.74136358  1
  Te  Te81  1  0.43006747  0.08961768  0.08695500  1
  Te  Te82  1  0.43107342  0.07686121  0.43324683  1
  Te  Te83  1  0.41874029  0.09864412  0.75632208  1
  Te  Te84  1  0.41555884  0.40955695  0.06368801  1
  Te  Te85  1  0.42334605  0.36959377  0.40434449  1
  Te  Te86  1  0.43303866  0.41296052  0.76091067  1
  Te  Te87  1  0.43333881  0.74244053  0.05688249  1
  Te  Te88  1  0.41817723  0.74308554  0.42005249  1
  Te  Te89  1  0.44135462  0.74758621  0.74043461  1
  Te  Te90  1  0.74745380  0.09163090  0.10452802  1
  Te  Te91  1  0.74751441  0.11447947  0.40515662  1
  Te  Te92  1  0.76411832  0.08420408  0.74317497  1
  Te  Te93  1  0.75723364  0.43772263  0.08283996  1
  Te  Te94  1  0.75218399  0.39308920  0.39878382  1
  Te  Te95  1  0.70140435  0.39310350  0.77859624  1
  Te  Te96  1  0.74196684  0.72579775  0.07772776  1
  Te  Te97  1  0.76864574  0.73468154  0.42906089  1
  Te  Te98  1  0.75645243  0.74142868  0.80270672  1
  Te  Te99  1  0.07780714  0.25595834  0.23264421  1
  Te  Te100  1  0.06944293  0.26001043  0.58121477  1
  Te  Te101  1  0.07957803  0.24685345  0.92602672  1
  Te  Te102  1  0.08670018  0.57018391  0.25765040  1
  Te  Te103  1  0.08286520  0.60300128  0.57799254  1
  Te  Te104  1  0.07242450  0.55792054  0.90557325  1
  Te  Te105  1  0.06399934  0.93261861  0.24935236  1
  Te  Te106  1  0.10018028  0.90719090  0.58427046  1
  Te  Te107  1  0.08152394  0.92568816  0.90895287  1
  Te  Te108  1  0.41058646  0.25877750  0.27749607  1
  Te  Te109  1  0.41707937  0.25747052  0.59257222  1
  Te  Te110  1  0.34014128  0.16204717  0.95271638  1
  Te  Te111  1  0.42327826  0.56228682  0.22926908  1
  Te  Te112  1  0.40861418  0.54232741  0.57125845  1
  Te  Te113  1  0.43379283  0.59274025  0.89224457  1
  Te  Te114  1  0.41333396  0.89770784  0.26307400  1
  Te  Te115  1  0.45651914  0.90912724  0.60858767  1
  Te  Te116  1  0.41284424  0.91699385  0.93015095  1
  Te  Te117  1  0.77946960  0.30080214  0.26125167  1
  Te  Te118  1  0.73803097  0.26414237  0.58380888  1
  Te  Te119  1  0.77536242  0.23953476  0.93719987  1
  Te  Te120  1  0.75596440  0.57397707  0.25708827  1
  Te  Te121  1  0.75560267  0.56690639  0.58803096  1
  Te  Te122  1  0.70964710  0.57955242  0.88516248  1
  Te  Te123  1  0.74159971  0.91412375  0.25980463  1
  Te  Te124  1  0.75083503  0.91217705  0.59316497  1
  Te  Te125  1  0.73168909  0.91626640  0.89961596  1
  Te  Te126  1  0.25235701  0.27864417  0.10039166  1
  Te  Te127  1  0.22758017  0.22923139  0.40572665  1
  Te  Te128  1  0.26535329  0.25480807  0.77130010  1
  Te  Te129  1  0.26224351  0.57448732  0.09909310  1
  Te  Te130  1  0.26317355  0.54045179  0.40166789  1
  Te  Te131  1  0.24665454  0.60151455  0.75089521  1
  Te  Te132  1  0.24080092  0.93036368  0.10727849  1
  Te  Te133  1  0.25104750  0.90715281  0.41996439  1
  Te  Te134  1  0.24561469  0.92552413  0.75770380  1
  Te  Te135  1  0.58294350  0.26290708  0.08076425  1
  Te  Te136  1  0.53797928  0.26738761  0.38725425  1
  Te  Te137  1  0.59904753  0.26554677  0.75081099  1
  Te  Te138  1  0.58660918  0.60057423  0.06619391  1
  Te  Te139  1  0.59115754  0.59262334  0.40566624  1
  Te  Te140  1  0.60234087  0.58374734  0.75462453  1
  Te  Te141  1  0.57256829  0.92005628  0.08581198  1
  Te  Te142  1  0.57925924  0.93229977  0.42593469  1
  Te  Te143  1  0.57878694  0.91023489  0.75667287  1
  Te  Te144  1  0.89212767  0.27519061  0.04238170  1
  Te  Te145  1  0.92326194  0.23341922  0.42529849  1
  Te  Te146  1  0.89720461  0.27987177  0.76949832  1
  Te  Te147  1  0.92274546  0.56540067  0.05834879  1
  Te  Te148  1  0.89963723  0.56622302  0.41324777  1
  Te  Te149  1  0.89723768  0.56783756  0.77703244  1
  Te  Te150  1  0.90879238  0.89800872  0.06589762  1
  Te  Te151  1  0.93488991  0.93874502  0.42515381  1
  Te  Te152  1  0.90181025  0.90091696  0.74922475  1
  Te  Te153  1  0.25037961  0.07301919  0.23012024  1
  Te  Te154  1  0.25740749  0.08956484  0.59380409  1
  Te  Te155  1  0.21848619  0.08242715  0.90441006  1
  Te  Te156  1  0.28219999  0.45184350  0.27324298  1
  Te  Te157  1  0.21843313  0.42784574  0.60936713  1
  Te  Te158  1  0.26015159  0.41632657  0.92878885  1
  Te  Te159  1  0.25118368  0.74539998  0.24440373  1
  Te  Te160  1  0.26297532  0.72864722  0.55806395  1
  Te  Te161  1  0.25076786  0.76465801  0.92493906  1
  Te  Te162  1  0.58371804  0.11973795  0.24224652  1
  Te  Te163  1  0.59849010  0.09494466  0.56478370  1
  Te  Te164  1  0.58987638  0.09820825  0.92450035  1
  Te  Te165  1  0.59124515  0.40971821  0.25851565  1
  Te  Te166  1  0.58795088  0.39865989  0.57135617  1
  Te  Te167  1  0.60489809  0.42567349  0.89747865  1
  Te  Te168  1  0.56343697  0.73162841  0.22587438  1
  Te  Te169  1  0.59518160  0.73796950  0.58501293  1
  Te  Te170  1  0.63481472  0.71636298  0.89567179  1
  Te  Te171  1  0.90265448  0.10564746  0.25185793  1
  Te  Te172  1  0.91210195  0.07552701  0.58556347  1
  Te  Te173  1  0.88762106  0.07152790  0.90889032  1
  Te  Te174  1  0.89928244  0.40274446  0.24724375  1
  Te  Te175  1  0.91598249  0.42692316  0.60310839  1
  Te  Te176  1  0.90113614  0.38026477  0.92828964  1
  Te  Te177  1  0.90534034  0.76159069  0.24133991  1
  Te  Te178  1  0.88934789  0.74529570  0.60084019  1
  Te  Te179  1  0.89971771  0.71894219  0.90348025  1
