# generated using pymatgen
data_In2Te3
_symmetry_space_group_name_H-M   'P 1'
_cell_length_a   18.87978420
_cell_length_b   18.89007662
_cell_length_c   18.90265750
_cell_angle_alpha   89.99565383
_cell_angle_beta   90.05095944
_cell_angle_gamma   90.00198198
_symmetry_Int_Tables_number   1
_chemical_formula_structural   In2Te3
_chemical_formula_sum   'In72 Te108'
_cell_volume   6741.45185701
_cell_formula_units_Z   36
loop_
 _symmetry_equiv_pos_site_id
 _symmetry_equiv_pos_as_xyz
  1  'x, y, z'
loop_
 _atom_site_type_symbol
 _atom_site_label
 _atom_site_symmetry_multiplicity
 _atom_site_fract_x
 _atom_site_fract_y
 _atom_site_fract_z
 _atom_site_occupancy
  In  In0  1  0.50762377  0.67168189  0.18028191  1
  In  In1  1  0.66868507  0.68487882  0.32433625  1
  In  In2  1  0.15192623  0.29537556  0.52779055  1
  In  In3  1  0.14295940  0.66525147  0.49496611  1
  In  In4  1  0.81389314  0.63580461  0.87310103  1
  In  In5  1  -0.00703403  0.01103024  0.33780022  1
  In  In6  1  0.15529507  0.85132263  0.63334539  1
  In  In7  1  -0.00902798  0.18209514  0.81941477  1
  In  In8  1  0.16951658  0.46458725  0.69820221  1
  In  In9  1  -0.03849595  0.82872928  0.83444828  1
  In  In10  1  -0.00360299  0.00016911  0.01239233  1
  In  In11  1  0.83465914  0.49695943  0.65308310  1
  In  In12  1  0.00425878  0.85954126  0.48700492  1
  In  In13  1  0.48915415  0.33009640  0.85580494  1
  In  In14  1  0.14077643  0.01816501  0.81328858  1
  In  In15  1  0.18110611  0.83430001  0.31891162  1
  In  In16  1  0.32029026  -0.00482118  0.32453006  1
  In  In17  1  0.29615901  0.61330460  0.03565332  1
  In  In18  1  -0.00453044  0.33848158  0.01304874  1
  In  In19  1  0.66666258  0.33246950  0.67902903  1
  In  In20  1  0.66654582  0.83921984  0.83780612  1
  In  In21  1  0.66799620  0.16775618  0.83482415  1
  In  In22  1  0.50851322  0.31619824  0.15177984  1
  In  In23  1  0.33445877  0.68040830  0.31621417  1
  In  In24  1  0.69256800  0.45811620  0.15412615  1
  In  In25  1  0.69270902  0.21110608  0.18374552  1
  In  In26  1  0.17368159  0.05502872  0.52114908  1
  In  In27  1  0.00594707  0.48423501  0.50601868  1
  In  In28  1  0.65951805  0.66672622  0.67138201  1
  In  In29  1  -0.01150497  0.48808842  0.18257072  1
  In  In30  1  0.51359792  0.83323282  -0.00361984  1
  In  In31  1  0.35756536  0.50942586  0.50388444  1
  In  In32  1  0.16589151  0.83725927  0.01640570  1
  In  In33  1  0.67828901  -0.02284744  -0.00675462  1
  In  In34  1  0.33025721  0.14569159  0.16972478  1
  In  In35  1  0.35228959  0.85994617  0.48002090  1
  In  In36  1  0.82706385  0.85641705  0.66862168  1
  In  In37  1  0.31027816  0.82540048  0.81421578  1
  In  In38  1  0.48425889  0.48523099  0.33710035  1
  In  In39  1  0.17926737  0.16113270  0.00357668  1
  In  In40  1  0.82951885  0.16478038  -0.01894744  1
  In  In41  1  0.34731139  0.66278628  0.66157682  1
  In  In42  1  0.50233555  0.02218662  0.82181911  1
  In  In43  1  0.52625734  0.66797434  0.83214631  1
  In  In44  1  0.32664946  0.19323728  0.82336902  1
  In  In45  1  0.67572565  0.83871011  0.49757196  1
  In  In46  1  0.35484067  -0.00125618  0.00991962  1
  In  In47  1  -0.04202467  0.64186631  0.31174510  1
  In  In48  1  0.15333077  0.49723471  0.32545000  1
  In  In49  1  0.33694303  0.47520351  0.85287787  1
  In  In50  1  0.69366004  0.01950245  0.32484924  1
  In  In51  1  0.80656514  0.66780635  0.13590104  1
  In  In52  1  0.32710233  0.32851768  0.65152167  1
  In  In53  1  0.49214751  0.67456656  0.49319433  1
  In  In54  1  -0.00400551  0.68990243  0.68163416  1
  In  In55  1  0.50949296  0.51146230  -0.00061620  1
  In  In56  1  0.84423911  0.49426588  0.34576579  1
  In  In57  1  0.66131162  0.47937601  0.51741413  1
  In  In58  1  0.84662551  0.15566207  0.67241392  1
  In  In59  1  0.50365873  0.16374780  0.33914774  1
  In  In60  1  0.35966421  0.83988024  0.16473203  1
  In  In61  1  0.50527070  0.00648240  0.50927052  1
  In  In62  1  0.00206871  0.81803494  0.16502863  1
  In  In63  1  0.01071307  0.49353505  0.84216660  1
  In  In64  1  0.30882501  0.33857685  0.35485967  1
  In  In65  1  0.30962656  0.33634635  0.00017717  1
  In  In66  1  0.15080264  0.65282213  0.85442970  1
  In  In67  1  0.83987874  -0.01514086  0.16355627  1
  In  In68  1  0.86588703  0.28932272  0.47423273  1
  In  In69  1  0.01883795  0.17973928  0.17460614  1
  In  In70  1  0.66264496  0.01377228  0.65561078  1
  In  In71  1  0.67396738  0.16529108  0.47322941  1
  Te  Te72  1  0.09826355  0.07131301  0.09604843  1
  Te  Te73  1  0.07415049  0.10971278  0.41811903  1
  Te  Te74  1  0.10245202  0.13493055  0.72865739  1
  Te  Te75  1  0.09132669  0.40473285  0.10960241  1
  Te  Te76  1  0.08986275  0.39575369  0.41806065  1
  Te  Te77  1  0.05120948  0.39284936  0.74069693  1
  Te  Te78  1  0.08069431  0.73236158  0.07415210  1
  Te  Te79  1  0.07137117  0.75016206  0.39248701  1
  Te  Te80  1  0.10285249  0.76716828  0.75628852  1
  Te  Te81  1  0.43915245  0.08565402  0.09163387  1
  Te  Te82  1  0.40599615  0.08037773  0.42024745  1
  Te  Te83  1  0.40193904  0.09510490  0.74045279  1
  Te  Te84  1  0.42045896  0.41340800  0.07433774  1
  Te  Te85  1  0.42643766  0.38990394  0.44033576  1
  Te  Te86  1  0.41764360  0.41198133  0.74425604  1
  Te  Te87  1  0.41890320  0.73521033  0.07002902  1
  Te  Te88  1  0.43339673  0.76944656  0.38846664  1
  Te  Te89  1  0.42994839  0.75528855  0.74954564  1
  Te  Te90  1  0.75146569  0.08222741  0.08400288  1
  Te  Te91  1  0.78777451  0.09858078  0.40769301  1
  Te  Te92  1  0.75549683  0.06790246  0.76128169  1
  Te  Te93  1  0.80102439  0.45405934  0.04883952  1
  Te  Te94  1  0.76215657  0.40147367  0.43414693  1
  Te  Te95  1  0.75595575  0.42372946  0.75249144  1
  Te  Te96  1  0.73592434  0.75536300  0.04362433  1
  Te  Te97  1  0.75756792  0.74008456  0.42609005  1
  Te  Te98  1  0.76127315  0.74405012  0.75637186  1
  Te  Te99  1  0.07158329  0.27928503  0.26901217  1
  Te  Te100  1  0.04704469  0.21017196  0.59701759  1
  Te  Te101  1  0.08210498  0.24551946  0.92538262  1
  Te  Te102  1  0.08231234  0.59859724  0.23790080  1
  Te  Te103  1  0.07979335  0.58304189  0.60601864  1
  Te  Te104  1  0.06560958  0.58036717  0.94946539  1
  Te  Te105  1  0.07988938  0.92007292  0.24565252  1
  Te  Te106  1  0.06343416  0.96066240  0.58443854  1
  Te  Te107  1  0.08267199  0.91544156  0.91403846  1
  Te  Te108  1  0.40836399  0.25630393  0.25539527  1
  Te  Te109  1  0.36909365  0.22640480  0.55453158  1
  Te  Te110  1  0.40962765  0.23448089  0.94384791  1
  Te  Te111  1  0.40688936  0.57167506  0.23888751  1
  Te  Te112  1  0.45427848  0.57268921  0.60191347  1
  Te  Te113  1  0.41127149  0.59332425  0.91223688  1
  Te  Te114  1  0.43111035  0.93205250  0.25299280  1
  Te  Te115  1  0.42492926  0.91461476  0.59327799  1
  Te  Te116  1  0.41324544  0.90807996  0.90059551  1
  Te  Te117  1  0.77277195  0.29811379  0.26924265  1
  Te  Te118  1  0.75550199  0.24460499  0.58325816  1
  Te  Te119  1  0.73259693  0.26380059  0.92804886  1
  Te  Te120  1  0.74850483  0.56877987  0.25175486  1
  Te  Te121  1  0.74755587  0.59295008  0.57203790  1
  Te  Te122  1  0.72660152  0.53703513  0.94029046  1
  Te  Te123  1  0.74457510  0.90635447  0.24407876  1
  Te  Te124  1  0.76286962  0.94650725  0.56411572  1
  Te  Te125  1  0.77610221  0.90873100  0.90675726  1
  Te  Te126  1  0.23946944  0.25430178  0.10638218  1
  Te  Te127  1  0.23418955  0.22974578  0.42190389  1
  Te  Te128  1  0.23271610  0.28651091  0.75780895  1
  Te  Te129  1  0.21542510  0.49973079  0.08095061  1
  Te  Te130  1  0.25900014  0.59390146  0.41617070  1
  Te  Te131  1  0.25042901  0.58599022  0.75150484  1
  Te  Te132  1  0.25371658  0.92910987  0.09942140  1
  Te  Te133  1  0.22118447  0.92507843  0.43648533  1
  Te  Te134  1  0.24039784  0.93271996  0.73125255  1
  Te  Te135  1  0.62454766  0.27460989  0.06750721  1
  Te  Te136  1  0.58957974  0.26345024  0.40358482  1
  Te  Te137  1  0.56392023  0.24427372  0.75465734  1
  Te  Te138  1  0.59624275  0.57138030  0.10781528  1
  Te  Te139  1  0.58078838  0.57808835  0.41178727  1
  Te  Te140  1  0.59266160  0.56429626  0.75299083  1
  Te  Te141  1  0.58850747  0.91396847  0.09245007  1
  Te  Te142  1  0.59564425  0.93473858  0.41178588  1
  Te  Te143  1  0.58007493  0.91814857  0.74098098  1
  Te  Te144  1  0.90667548  0.24119864  0.08848813  1
  Te  Te145  1  0.98408913  0.24212112  0.38772813  1
  Te  Te146  1  0.87767503  0.26195513  0.77017811  1
  Te  Te147  1  0.90650491  0.56793351  0.08310489  1
  Te  Te148  1  0.91381420  0.58950078  0.44629156  1
  Te  Te149  1  0.91317315  0.58665956  0.75514902  1
  Te  Te150  1  0.90943324  0.88979405  0.06626488  1
  Te  Te151  1  0.89947134  0.91795238  0.40334799  1
  Te  Te152  1  0.93892468  0.93023396  0.73213557  1
  Te  Te153  1  0.22834997  0.08623026  0.25673971  1
  Te  Te154  1  0.27704027  0.12036599  0.60849772  1
  Te  Te155  1  0.25455343  0.06856872  0.90889067  1
  Te  Te156  1  0.26136733  0.43156553  0.24983057  1
  Te  Te157  1  0.23799077  0.43336865  0.56556624  1
  Te  Te158  1  0.21777999  0.42086326  0.91923663  1
  Te  Te159  1  0.24441740  0.74469920  0.21439469  1
  Te  Te160  1  0.25545963  0.74541685  0.57063263  1
  Te  Te161  1  0.25434267  0.74327169  0.93009919  1
  Te  Te162  1  0.60021586  0.10422131  0.23730413  1
  Te  Te163  1  0.57801266  0.11645400  0.58420060  1
  Te  Te164  1  0.58362432  0.08368433  0.93147553  1
  Te  Te165  1  0.58224450  0.40864521  0.24987004  1
  Te  Te166  1  0.56891776  0.38595866  0.58135947  1
  Te  Te167  1  0.59013912  0.42844340  0.90680786  1
  Te  Te168  1  0.59704313  0.77601233  0.23373742  1
  Te  Te169  1  0.57709202  0.76161449  0.58511301  1
  Te  Te170  1  0.62027085  0.72905530  0.94319695  1
  Te  Te171  1  0.90920765  0.09541942  0.24175485  1
  Te  Te172  1  0.93223307  0.11769423  0.55712940  1
  Te  Te173  1  0.92204688  0.07212674  0.90319750  1
  Te  Te174  1  0.89801352  0.38933365  0.25049271  1
  Te  Te175  1  0.91687716  0.38914108  0.58090217  1
  Te  Te176  1  0.90925391  0.41450254  0.91892059  1
  Te  Te177  1  0.88639960  0.75200155  0.24063704  1
  Te  Te178  1  0.91854517  0.76873723  0.58078111  1
  Te  Te179  1  0.92593478  0.71932847  0.92440755  1
