# generated using pymatgen
data_In2Te3
_symmetry_space_group_name_H-M   'P 1'
_cell_length_a   18.97719585
_cell_length_b   18.97646260
_cell_length_c   18.99388784
_cell_angle_alpha   89.96029153
_cell_angle_beta   89.96662322
_cell_angle_gamma   89.93738530
_symmetry_Int_Tables_number   1
_chemical_formula_structural   In2Te3
_chemical_formula_sum   'In72 Te108'
_cell_volume   6840.07290255
_cell_formula_units_Z   36
loop_
 _symmetry_equiv_pos_site_id
 _symmetry_equiv_pos_as_xyz
  1  'x, y, z'
loop_
 _atom_site_type_symbol
 _atom_site_label
 _atom_site_symmetry_multiplicity
 _atom_site_fract_x
 _atom_site_fract_y
 _atom_site_fract_z
 _atom_site_occupancy
  In  In0  1  0.85478706  0.17456589  0.32749652  1
  In  In1  1  0.80074109  0.82831075  0.34236392  1
  In  In2  1  0.47555344  0.00015446  0.81365806  1
  In  In3  1  0.35209016  0.82248362  0.17152849  1
  In  In4  1  0.66462733  0.84647685  0.15409596  1
  In  In5  1  0.52919707  0.28153338  0.16425515  1
  In  In6  1  0.00369759  0.85179744  0.16788507  1
  In  In7  1  0.17028777  0.52884961  0.01940813  1
  In  In8  1  0.16532819  0.65603986  0.52068483  1
  In  In9  1  0.49075822  0.15967613  0.66161030  1
  In  In10  1  0.19955956  0.00613607  0.50515276  1
  In  In11  1  0.46333682  0.80608850  0.66386824  1
  In  In12  1  0.34269629  0.34113742  -0.01765978  1
  In  In13  1  0.68969772  0.34345983  -0.00324065  1
  In  In14  1  0.84124482  0.17591442  0.00463794  1
  In  In15  1  0.15869626  0.00406003  0.14337476  1
  In  In16  1  0.19769790  0.30942336  0.81094701  1
  In  In17  1  -0.02084744  0.83923869  0.83573865  1
  In  In18  1  0.47609096  -0.03295516  0.49863203  1
  In  In19  1  0.50063953  0.17381099  -0.02064112  1
  In  In20  1  -0.05390201  0.66718078  0.66885290  1
  In  In21  1  0.84727407  0.49564126  0.34681639  1
  In  In22  1  0.49538942  0.63846847  0.51306750  1
  In  In23  1  -0.00011455  0.68649531  0.01118281  1
  In  In24  1  0.48346431  0.64329266  0.14296292  1
  In  In25  1  0.51127431  0.67909231  0.84661440  1
  In  In26  1  0.00909503  -0.00079891  0.67741896  1
  In  In27  1  0.16692405  0.01865423  0.81672597  1
  In  In28  1  0.52666756  0.50217578  -0.01387646  1
  In  In29  1  0.32857331  0.69350654  -0.00511027  1
  In  In30  1  0.69537593  0.53126291  0.52590359  1
  In  In31  1  0.18568351  0.33938564  0.16513920  1
  In  In32  1  0.32429900  0.50173504  0.82315851  1
  In  In33  1  0.00259881  0.46130940  0.81538675  1
  In  In34  1  0.03140575  0.32240174  -0.01329291  1
  In  In35  1  0.48477370  0.82374621  0.32728074  1
  In  In36  1  0.33590653  0.14672702  0.52128226  1
  In  In37  1  0.32472283  0.67532112  0.36150335  1
  In  In38  1  0.69079343  0.33882565  0.33259524  1
  In  In39  1  0.19076274  0.36152074  0.54471132  1
  In  In40  1  0.81815741  -0.00287073  0.51655831  1
  In  In41  1  0.63217834  0.81778163  0.50891533  1
  In  In42  1  0.49862640  0.46672177  0.31457054  1
  In  In43  1  0.63897671  0.01230827  0.66660552  1
  In  In44  1  0.84076405  0.67516316  0.17868023  1
  In  In45  1  -0.02462918  0.47975065  0.52830852  1
  In  In46  1  0.02103354  0.19992721  0.50668669  1
  In  In47  1  0.32527808  -0.01876796  0.32846730  1
  In  In48  1  0.17098176  0.16500106  0.33541315  1
  In  In49  1  0.66992416  0.67319572  0.34537762  1
  In  In50  1  0.31721451  0.34145070  0.33740179  1
  In  In51  1  0.48229501  0.49202008  0.68254219  1
  In  In52  1  0.68214422  -0.00419169  -0.00497065  1
  In  In53  1  0.00199436  0.34264201  0.34434280  1
  In  In54  1  0.68500067  0.17299556  0.48084233  1
  In  In55  1  0.68315014  0.47582575  0.81888660  1
  In  In56  1  -0.02048121  -0.00267705  0.33018788  1
  In  In57  1  0.51717101  0.34512389  0.50045827  1
  In  In58  1  0.34678631  0.18502838  0.14368603  1
  In  In59  1  0.17479866  0.65898576  0.84149923  1
  In  In60  1  0.81133788  -0.00533002  0.86102797  1
  In  In61  1  0.00506120  0.01102656  -0.01137909  1
  In  In62  1  0.81311326  0.83997035  -0.00835872  1
  In  In63  1  0.84168440  0.19030305  0.66801083  1
  In  In64  1  0.32495580  -0.01321584  -0.02922302  1
  In  In65  1  0.66258685  0.18842268  0.82206122  1
  In  In66  1  0.64493501  0.02701024  0.27977517  1
  In  In67  1  0.32216296  0.48921448  0.15924616  1
  In  In68  1  0.17041977  0.82874013  0.68210392  1
  In  In69  1  0.04882758  0.59576451  0.35919474  1
  In  In70  1  0.01279728  0.79907189  0.50755634  1
  In  In71  1  0.82404336  0.51516512  -0.00657807  1
  Te  Te72  1  0.06523338  0.10145999  0.08836510  1
  Te  Te73  1  0.07911702  0.08124907  0.42202772  1
  Te  Te74  1  0.06258502  0.10900034  0.75906128  1
  Te  Te75  1  0.08597554  0.44080247  0.10908963  1
  Te  Te76  1  0.08623820  0.41847764  0.44379064  1
  Te  Te77  1  0.10690334  0.39963055  0.72933732  1
  Te  Te78  1  0.09214872  0.76468086  0.09085226  1
  Te  Te79  1  0.09520419  0.73408121  0.40139827  1
  Te  Te80  1  0.06803537  0.74452312  0.75614230  1
  Te  Te81  1  0.41538150  0.08121462  0.06099460  1
  Te  Te82  1  0.41250509  0.07564013  0.41119233  1
  Te  Te83  1  0.38888459  0.10982815  0.75832829  1
  Te  Te84  1  0.42258466  0.39611117  0.09723841  1
  Te  Te85  1  0.40743496  0.42360976  0.42748984  1
  Te  Te86  1  0.40688337  0.39470705  0.76442479  1
  Te  Te87  1  0.44429056  0.76444575  0.06416497  1
  Te  Te88  1  0.42215962  0.75500732  0.44663743  1
  Te  Te89  1  0.39821995  0.72635831  0.76763825  1
  Te  Te90  1  0.77685215  0.06637242  0.08084437  1
  Te  Te91  1  0.75381754  0.06780718  0.39617868  1
  Te  Te92  1  0.75165440  0.08231264  0.74094717  1
  Te  Te93  1  0.76977714  0.41947856  0.09112875  1
  Te  Te94  1  0.75770018  0.42087884  0.44433911  1
  Te  Te95  1  0.78285117  0.39321271  0.74446653  1
  Te  Te96  1  0.74358492  0.73938486  0.08236856  1
  Te  Te97  1  0.75250027  0.73663535  0.45397842  1
  Te  Te98  1  0.80067033  0.70388834  0.70817555  1
  Te  Te99  1  0.08882065  0.25733535  0.25028797  1
  Te  Te100  1  0.08239984  0.28303239  0.61229582  1
  Te  Te101  1  0.08299438  0.23935982  0.87657921  1
  Te  Te102  1  0.07283806  0.54736808  0.22562186  1
  Te  Te103  1  0.05678699  0.58429812  0.59985544  1
  Te  Te104  1  0.06909335  0.57845898  0.91568103  1
  Te  Te105  1  0.09627548  0.92937467  0.26083135  1
  Te  Te106  1  0.08546842  0.91754544  0.57157762  1
  Te  Te107  1  0.08731777  0.91581032  0.90587660  1
  Te  Te108  1  0.41163259  0.25167948  0.26326474  1
  Te  Te109  1  0.41441624  0.26370984  0.57875883  1
  Te  Te110  1  0.42192755  0.25924992  0.88886028  1
  Te  Te111  1  0.41363693  0.58199250  0.26206561  1
  Te  Te112  1  0.39073107  0.56403637  0.58828473  1
  Te  Te113  1  0.39930063  0.56678432  0.93986765  1
  Te  Te114  1  0.43555252  0.93411355  0.23601216  1
  Te  Te115  1  0.39275431  0.92931840  0.61382157  1
  Te  Te116  1  0.41783011  0.89806658  0.90012004  1
  Te  Te117  1  0.76492718  0.25165444  0.24218525  1
  Te  Te118  1  0.72563858  0.25192782  0.59752558  1
  Te  Te119  1  0.76978648  0.26024873  0.89720952  1
  Te  Te120  1  0.75372363  0.58153543  0.25973372  1
  Te  Te121  1  0.79277053  0.57353182  0.63431705  1
  Te  Te122  1  0.72517248  0.58442699  0.90858363  1
  Te  Te123  1  0.75905530  0.92949250  0.23840604  1
  Te  Te124  1  0.72332449  0.90757395  0.59309994  1
  Te  Te125  1  0.71450051  0.87275892  0.87887415  1
  Te  Te126  1  0.24314900  0.25099961  0.05598100  1
  Te  Te127  1  0.24226261  0.25237810  0.43728166  1
  Te  Te128  1  0.26236399  0.20650072  0.72549826  1
  Te  Te129  1  0.25648157  0.61676687  0.10619906  1
  Te  Te130  1  0.23949744  0.57328499  0.42301064  1
  Te  Te131  1  0.22980701  0.57308517  0.73206827  1
  Te  Te132  1  0.25809714  0.90882326  0.08395040  1
  Te  Te133  1  0.25845509  0.89810204  0.42726079  1
  Te  Te134  1  0.25503628  0.94320458  0.72233723  1
  Te  Te135  1  0.62131473  0.21784381  0.05938425  1
  Te  Te136  1  0.58396243  0.25297788  0.40108640  1
  Te  Te137  1  0.59216102  0.25577658  0.71153065  1
  Te  Te138  1  0.59941270  0.57508503  0.08832474  1
  Te  Te139  1  0.58287772  0.56534686  0.40841236  1
  Te  Te140  1  0.58139594  0.57690241  0.75935401  1
  Te  Te141  1  0.57842935  0.93628896  0.07834588  1
  Te  Te142  1  0.58792137  0.91487965  0.39910906  1
  Te  Te143  1  0.56191734  0.90234980  0.73346700  1
  Te  Te144  1  0.92700934  0.27198626  0.07602851  1
  Te  Te145  1  0.90515955  0.26579128  0.43776902  1
  Te  Te146  1  0.91349154  0.30130151  0.73737359  1
  Te  Te147  1  0.92408880  0.58481733  0.09277815  1
  Te  Te148  1  0.92010019  0.59376420  0.43534645  1
  Te  Te149  1  0.90192423  0.56119786  0.76782131  1
  Te  Te150  1  0.91142116  0.92358548  0.07172641  1
  Te  Te151  1  0.90881380  0.90665509  0.42921547  1
  Te  Te152  1  0.89468319  0.92897082  0.74876795  1
  Te  Te153  1  0.25984221  0.09287472  0.23634601  1
  Te  Te154  1  0.21600123  0.11589125  0.60587957  1
  Te  Te155  1  0.23689227  0.09182685  0.92274559  1
  Te  Te156  1  0.22848388  0.44310180  0.27080571  1
  Te  Te157  1  0.26805587  0.46018293  0.62137434  1
  Te  Te158  1  0.22523655  0.42509848  0.92170546  1
  Te  Te159  1  0.25696995  0.76037820  0.26302550  1
  Te  Te160  1  0.25371702  0.73975693  0.60204550  1
  Te  Te161  1  0.24734166  0.77070046  0.90091286  1
  Te  Te162  1  0.58950586  0.14638533  0.21405900  1
  Te  Te163  1  0.57528324  0.08062653  0.54683428  1
  Te  Te164  1  0.58887553  0.07419203  0.89143786  1
  Te  Te165  1  0.60040010  0.40323239  0.22556577  1
  Te  Te166  1  0.59486473  0.43793311  0.59124911  1
  Te  Te167  1  0.58007797  0.39147030  0.90342036  1
  Te  Te168  1  0.58218937  0.74285863  0.24356017  1
  Te  Te169  1  0.58289699  0.71646586  0.60785072  1
  Te  Te170  1  0.61709823  0.75428012  0.91014054  1
  Te  Te171  1  0.94132558  0.09982324  0.23436486  1
  Te  Te172  1  0.92251664  0.09145840  0.57563130  1
  Te  Te173  1  0.91654019  0.09503969  0.89816905  1
  Te  Te174  1  0.90836447  0.40443811  0.25074691  1
  Te  Te175  1  0.88667756  0.40996312  0.62712176  1
  Te  Te176  1  0.92058781  0.41120240  0.93139843  1
  Te  Te177  1  0.91900005  0.76812294  0.26607827  1
  Te  Te178  1  0.89877100  0.79197450  0.60067023  1
  Te  Te179  1  0.89657517  0.73953570  0.91388448  1
