# generated using pymatgen
data_In2Te3
_symmetry_space_group_name_H-M   'P 1'
_cell_length_a   18.83498521
_cell_length_b   18.84898559
_cell_length_c   18.83992345
_cell_angle_alpha   90.08503646
_cell_angle_beta   90.05277107
_cell_angle_gamma   89.83786631
_symmetry_Int_Tables_number   1
_chemical_formula_structural   In2Te3
_chemical_formula_sum   'In72 Te108'
_cell_volume   6688.51953779
_cell_formula_units_Z   36
loop_
 _symmetry_equiv_pos_site_id
 _symmetry_equiv_pos_as_xyz
  1  'x, y, z'
loop_
 _atom_site_type_symbol
 _atom_site_label
 _atom_site_symmetry_multiplicity
 _atom_site_fract_x
 _atom_site_fract_y
 _atom_site_fract_z
 _atom_site_occupancy
  In  In0  1  0.48809696  0.17316099  0.00453523  1
  In  In1  1  0.44590930  0.35002636  0.48140576  1
  In  In2  1  0.50007659  0.80037747  0.35274602  1
  In  In3  1  0.65611413  0.32789063  0.31408528  1
  In  In4  1  0.84894511  0.48768299  0.00107158  1
  In  In5  1  0.04179004  0.32211344  0.65859870  1
  In  In6  1  0.19116189  0.31051554  0.81851503  1
  In  In7  1  0.02181249  0.83600397  0.86189304  1
  In  In8  1  0.19486518  0.17081306  0.00521497  1
  In  In9  1  0.01488455  0.63800617  0.33831070  1
  In  In10  1  0.64237082  0.29854422  0.03148937  1
  In  In11  1  0.81546439  0.14897536  0.01286525  1
  In  In12  1  0.47927542  0.13147118  0.68833506  1
  In  In13  1  0.18145596  0.63351173  0.48491122  1
  In  In14  1  0.01385850  0.00897020  -0.01631850  1
  In  In15  1  0.17609237  0.84125200  0.67094354  1
  In  In16  1  0.46675061  0.47289939  0.04076868  1
  In  In17  1  0.32398961  0.64517958  0.00141397  1
  In  In18  1  0.49762280  0.86244355  -0.00498423  1
  In  In19  1  0.30832478  0.82920659  0.16643496  1
  In  In20  1  0.81183645  0.83616294  0.67921409  1
  In  In21  1  0.49485312  0.66825206  0.81641013  1
  In  In22  1  0.83680557  0.84160193  0.33938414  1
  In  In23  1  -0.00066056  0.82018546  0.17989880  1
  In  In24  1  0.83409954  0.34157602  0.19181167  1
  In  In25  1  0.01786411  0.49683234  0.17482587  1
  In  In26  1  0.46341982  0.01751515  0.49337204  1
  In  In27  1  0.35882746  0.82663488  0.51119177  1
  In  In28  1  0.03613382  0.48588680  0.48709709  1
  In  In29  1  0.34316865  0.18730669  0.19297630  1
  In  In30  1  0.65828346  0.13783331  0.83184503  1
  In  In31  1  0.16402349  0.65391457  0.81587840  1
  In  In32  1  0.01091109  0.18097305  0.80924964  1
  In  In33  1  0.65992317  0.00602387  0.33100626  1
  In  In34  1  0.50475479  0.00265368  0.16766759  1
  In  In35  1  0.66288205  0.50165022  0.49866136  1
  In  In36  1  0.45739172  0.51216488  0.64905858  1
  In  In37  1  0.32726159  0.48375919  0.18730562  1
  In  In38  1  0.20428417  0.21858397  0.32967731  1
  In  In39  1  0.65980827  0.84568513  0.82557892  1
  In  In40  1  0.00588065  0.67067511  -0.00497751  1
  In  In41  1  0.82285349  -0.01685631  0.82537034  1
  In  In42  1  0.00910352  0.35694358  0.01335561  1
  In  In43  1  0.66996489  0.17680865  0.48822663  1
  In  In44  1  0.19150306  0.04846848  0.48427174  1
  In  In45  1  0.82699642  0.01413116  0.14501104  1
  In  In46  1  0.83500049  0.66169285  0.48717692  1
  In  In47  1  0.03469174  0.02398232  0.32061165  1
  In  In48  1  0.17512938  0.81181968  0.32381961  1
  In  In49  1  0.85079125  0.33780788  0.85656117  1
  In  In50  1  0.61926210  0.80364404  0.52558442  1
  In  In51  1  0.68594128  0.66836680  0.00519968  1
  In  In52  1  0.65787305  -0.01028198  0.68082586  1
  In  In53  1  0.01580343  0.17763342  0.16531246  1
  In  In54  1  0.66180552  0.64605658  0.32704830  1
  In  In55  1  0.84130002  0.02667166  0.52153670  1
  In  In56  1  0.34957297  0.83532534  0.83212311  1
  In  In57  1  0.81898141  0.82758893  -0.00252517  1
  In  In58  1  0.02714308  0.63188910  0.62942406  1
  In  In59  1  0.66769266  0.33942376  0.66611765  1
  In  In60  1  -0.00571867  0.84892175  0.51598812  1
  In  In61  1  0.84230715  0.50891388  0.65381416  1
  In  In62  1  0.33648599  0.00421474  0.33724535  1
  In  In63  1  0.46792100  0.32319083  0.83197768  1
  In  In64  1  0.15833317  0.84808014  0.00341204  1
  In  In65  1  0.64920960  0.49726763  0.85635385  1
  In  In66  1  0.30822786  0.49950991  0.83796805  1
  In  In67  1  0.49849285  0.66265027  0.16966887  1
  In  In68  1  0.65394261  0.48723126  0.19030126  1
  In  In69  1  0.32850317  0.17652573  0.50093962  1
  In  In70  1  0.85437045  0.32156178  0.46515374  1
  In  In71  1  0.01582409  0.03138078  0.67664528  1
  Te  Te72  1  0.10107686  0.07865224  0.08639051  1
  Te  Te73  1  0.06752428  0.13372601  0.42570988  1
  Te  Te74  1  0.12639666  0.10585772  0.74834255  1
  Te  Te75  1  0.11616708  0.42250548  0.08908890  1
  Te  Te76  1  0.10964745  0.40982183  0.38305031  1
  Te  Te77  1  0.11033422  0.41376565  0.75011264  1
  Te  Te78  1  0.09893301  0.74191572  0.09447989  1
  Te  Te79  1  0.07504328  0.75235234  0.42926659  1
  Te  Te80  1  0.07133799  0.75151323  0.74093682  1
  Te  Te81  1  0.39849095  0.08360143  0.09485557  1
  Te  Te82  1  0.42050947  0.12021337  0.38989611  1
  Te  Te83  1  0.41693979  0.09106534  0.81479907  1
  Te  Te84  1  0.37330244  0.36849406  0.09393464  1
  Te  Te85  1  0.38152946  0.47012043  0.41040698  1
  Te  Te86  1  0.38595646  0.40761408  0.73789806  1
  Te  Te87  1  0.41349214  0.74797308  0.07360574  1
  Te  Te88  1  0.38187762  0.72596016  0.40319964  1
  Te  Te89  1  0.40050197  0.73969073  0.72596177  1
  Te  Te90  1  0.70958500  0.08936584  0.09412943  1
  Te  Te91  1  0.76540084  0.09122826  0.40560038  1
  Te  Te92  1  0.76371784  0.08826735  0.73135631  1
  Te  Te93  1  0.74013523  0.41091110  0.07610896  1
  Te  Te94  1  0.74540359  0.41300074  0.40622534  1
  Te  Te95  1  0.75360559  0.42402614  0.75981931  1
  Te  Te96  1  0.76578977  0.74185329  0.10348736  1
  Te  Te97  1  0.73666232  0.75993792  0.42119235  1
  Te  Te98  1  0.72929200  0.73933819  0.75056034  1
  Te  Te99  1  0.08038246  0.27288019  0.25979826  1
  Te  Te100  1  0.07973433  0.22632420  0.55362503  1
  Te  Te101  1  0.07585580  0.24321815  0.93228583  1
  Te  Te102  1  0.11163452  0.59586539  0.23746873  1
  Te  Te103  1  0.13592476  0.53214966  0.59301518  1
  Te  Te104  1  0.09978239  0.58024411  0.92551001  1
  Te  Te105  1  0.10296473  0.91679036  0.23686364  1
  Te  Te106  1  0.09615897  0.94498078  0.57330803  1
  Te  Te107  1  0.11820084  0.94899546  0.89001733  1
  Te  Te108  1  0.42734873  0.30327558  0.24375241  1
  Te  Te109  1  0.43096699  0.24007516  0.59651413  1
  Te  Te110  1  0.37833841  0.24081267  0.92086248  1
  Te  Te111  1  0.43481915  0.56234309  0.25779633  1
  Te  Te112  1  0.43445301  0.61150825  0.53916437  1
  Te  Te113  1  0.42984931  0.57013003  0.91785160  1
  Te  Te114  1  0.41713288  0.90054926  0.25882397  1
  Te  Te115  1  0.40474782  0.93549005  0.60073836  1
  Te  Te116  1  0.39031270  0.94012725  0.93116842  1
  Te  Te117  1  0.74573986  0.23614002  0.24080749  1
  Te  Te118  1  0.76131907  0.26044254  0.57706360  1
  Te  Te119  1  0.73882431  0.25008047  0.91201141  1
  Te  Te120  1  0.75994186  0.56630271  0.25280100  1
  Te  Te121  1  0.73769944  0.60013376  0.58823066  1
  Te  Te122  1  0.76599226  0.57976794  0.90973754  1
  Te  Te123  1  0.75086575  0.92024233  0.24238696  1
  Te  Te124  1  0.74463396  0.91706097  0.56834840  1
  Te  Te125  1  0.72877077  0.93168056  0.93182604  1
  Te  Te126  1  0.24031130  0.26355943  0.11275602  1
  Te  Te127  1  0.22939833  0.28738081  0.46564197  1
  Te  Te128  1  0.23283658  0.21534172  0.71269476  1
  Te  Te129  1  0.24330943  0.55223627  0.08144196  1
  Te  Te130  1  0.23490555  0.53382681  0.38477931  1
  Te  Te131  1  0.27520517  0.59945066  0.73357498  1
  Te  Te132  1  0.25573360  0.93196758  0.07577180  1
  Te  Te133  1  0.24734561  0.91330804  0.42117064  1
  Te  Te134  1  0.27161303  0.92612460  0.74260147  1
  Te  Te135  1  0.54038374  0.24692696  0.12598650  1
  Te  Te136  1  0.57023852  0.27046025  0.42573063  1
  Te  Te137  1  0.58080855  0.24885014  0.75313527  1
  Te  Te138  1  0.58548109  0.57211872  0.07286148  1
  Te  Te139  1  0.56633460  0.58817609  0.42430398  1
  Te  Te140  1  0.57487547  0.56262987  0.74092696  1
  Te  Te141  1  0.59230755  0.90585992  0.09737873  1
  Te  Te142  1  0.56927342  0.92083002  0.42497391  1
  Te  Te143  1  0.55382249  0.91291906  0.74882429  1
  Te  Te144  1  0.90749968  0.25405263  0.07462373  1
  Te  Te145  1  0.94674049  0.23119727  0.39711107  1
  Te  Te146  1  0.91262324  0.26994307  0.73654855  1
  Te  Te147  1  0.92076721  0.58609719  0.08995121  1
  Te  Te148  1  0.91444933  0.55530224  0.41746747  1
  Te  Te149  1  0.93645055  0.58615751  0.73617821  1
  Te  Te150  1  0.93175186  0.91500113  0.07303722  1
  Te  Te151  1  0.93239833  0.93999082  0.40872916  1
  Te  Te152  1  0.93315559  0.91701165  0.74174593  1
  Te  Te153  1  0.23833604  0.08821093  0.25727102  1
  Te  Te154  1  0.26975215  0.08737104  0.60604486  1
  Te  Te155  1  0.28284288  0.11854011  0.89386184  1
  Te  Te156  1  0.22954414  0.41373689  0.28117827  1
  Te  Te157  1  0.31297797  0.40985393  0.53188509  1
  Te  Te158  1  0.25604424  0.39233331  0.92329264  1
  Te  Te159  1  0.26701834  0.71839962  0.25489867  1
  Te  Te160  1  0.24155274  0.74574165  0.57268392  1
  Te  Te161  1  0.24547637  0.74812923  0.91632725  1
  Te  Te162  1  0.56469948  0.09715375  0.26542700  1
  Te  Te163  1  0.58618168  0.08437656  0.57609227  1
  Te  Te164  1  0.56584035  0.07155877  0.92458589  1
  Te  Te165  1  0.54148728  0.41215932  0.25623656  1
  Te  Te166  1  0.56620054  0.41585696  0.58215677  1
  Te  Te167  1  0.56278233  0.39499113  0.93140398  1
  Te  Te168  1  0.59570002  0.75548684  0.24199778  1
  Te  Te169  1  0.51596124  0.72737140  0.59857285  1
  Te  Te170  1  0.57848141  0.74402485  0.92184070  1
  Te  Te171  1  0.91873133  0.08836115  0.24222176  1
  Te  Te172  1  0.93722398  0.11940906  0.58523317  1
  Te  Te173  1  0.91312487  0.08876421  0.90080704  1
  Te  Te174  1  0.93594110  0.41354896  0.26754698  1
  Te  Te175  1  0.92896766  0.41182434  0.57383693  1
  Te  Te176  1  0.95291375  0.44163504  0.89785579  1
  Te  Te177  1  0.91090150  0.73203183  0.26476157  1
  Te  Te178  1  0.91080528  0.74620181  0.59092796  1
  Te  Te179  1  0.90618632  0.74701048  0.90168972  1
