# generated using pymatgen
data_In2Te3
_symmetry_space_group_name_H-M   'P 1'
_cell_length_a   18.96562368
_cell_length_b   18.96884694
_cell_length_c   18.95784500
_cell_angle_alpha   90.13759036
_cell_angle_beta   89.98975763
_cell_angle_gamma   90.09741900
_symmetry_Int_Tables_number   1
_chemical_formula_structural   In2Te3
_chemical_formula_sum   'In72 Te108'
_cell_volume   6820.16909975
_cell_formula_units_Z   36
loop_
 _symmetry_equiv_pos_site_id
 _symmetry_equiv_pos_as_xyz
  1  'x, y, z'
loop_
 _atom_site_type_symbol
 _atom_site_label
 _atom_site_symmetry_multiplicity
 _atom_site_fract_x
 _atom_site_fract_y
 _atom_site_fract_z
 _atom_site_occupancy
  In  In0  1  -0.01115848  0.49329559  0.19090831  1
  In  In1  1  0.51174713  0.51844176  0.65475807  1
  In  In2  1  0.30604366  0.32785510  0.69699295  1
  In  In3  1  0.34208003  0.51003752  0.82800242  1
  In  In4  1  0.68015963  0.83788890  0.16281791  1
  In  In5  1  0.83796062  0.00006631  0.49077136  1
  In  In6  1  0.82750317  0.15973943  0.67174416  1
  In  In7  1  0.33232102  0.83115561  0.50692810  1
  In  In8  1  0.14983676  0.14540111  0.00245039  1
  In  In9  1  0.50149894  0.65641176  0.49589415  1
  In  In10  1  0.32192202  0.84772714  0.15499482  1
  In  In11  1  0.65623710  0.01433948  0.68552768  1
  In  In12  1  0.14106615  0.50325584  0.67618481  1
  In  In13  1  0.49926413  0.15510805  0.32651570  1
  In  In14  1  0.67920709  0.15000052  0.11635347  1
  In  In15  1  0.34868184  0.50198923  0.52022849  1
  In  In16  1  0.31776897  -0.00272077  0.65771602  1
  In  In17  1  0.51250220  0.33388512  0.85028613  1
  In  In18  1  0.33000187  0.16318901  0.15309711  1
  In  In19  1  0.67140472  0.65625844  -0.00633737  1
  In  In20  1  0.86256162  0.65490913  0.52832862  1
  In  In21  1  0.50049919  0.33882917  0.52258355  1
  In  In22  1  0.33221100  0.50111124  0.16759948  1
  In  In23  1  0.67396291  0.16303034  0.84066161  1
  In  In24  1  -0.00412764  0.33233062  0.33764388  1
  In  In25  1  0.34919699  0.01167089  0.32056094  1
  In  In26  1  0.86687871  0.52828811  0.69984568  1
  In  In27  1  0.13874397  0.83901869  0.68999260  1
  In  In28  1  0.82670540  0.83860535  0.32152431  1
  In  In29  1  0.16773252  0.01397010  0.50054194  1
  In  In30  1  -0.00632441  0.31883849  0.65960018  1
  In  In31  1  0.65137359  0.67320507  0.33481367  1
  In  In32  1  0.50288008  0.80821593  0.67091553  1
  In  In33  1  -0.00574434  0.00448680  -0.01716012  1
  In  In34  1  0.16305656  0.48614423  0.02945070  1
  In  In35  1  0.15751080  0.82217856  0.32600382  1
  In  In36  1  0.16239778  0.65799600  0.52495500  1
  In  In37  1  0.50616795  0.49876155  0.00898082  1
  In  In38  1  0.69732739  0.17938274  0.48977937  1
  In  In39  1  0.67238441  0.49082017  0.17523289  1
  In  In40  1  0.67400654  0.34330957  0.32167052  1
  In  In41  1  0.85259684  0.34518314  0.83740790  1
  In  In42  1  0.18115762  0.50070595  0.34156715  1
  In  In43  1  0.49286175  0.17783911  0.67059017  1
  In  In44  1  0.48547464  0.83355441  0.01318083  1
  In  In45  1  0.84947166  0.16648194  0.33015066  1
  In  In46  1  0.81568607  0.68215482  0.17296205  1
  In  In47  1  0.50977735  -0.01920173  0.84220764  1
  In  In48  1  0.51401235  0.00107408  0.47261845  1
  In  In49  1  0.50064413  0.67498594  0.83862202  1
  In  In50  1  0.00848532  0.83543616  0.13514896  1
  In  In51  1  0.48611269  0.00814034  0.15550284  1
  In  In52  1  0.33049419  0.34499188  0.33244956  1
  In  In53  1  0.15892390  0.67535584  0.84542953  1
  In  In54  1  -0.01545937  -0.01025858  0.68904870  1
  In  In55  1  0.15031556  0.30760296  0.83876057  1
  In  In56  1  0.82499335  0.79184447  0.70006708  1
  In  In57  1  -0.01344045  0.00267115  0.31048453  1
  In  In58  1  0.00559234  0.67041858  -0.00355741  1
  In  In59  1  0.33388308  0.32192867  -0.01502654  1
  In  In60  1  0.17274445  0.83769216  -0.00493688  1
  In  In61  1  0.83998600  0.51311630  -0.02922546  1
  In  In62  1  0.15590724  -0.00200899  0.84473978  1
  In  In63  1  0.83685663  0.87086372  -0.08273694  1
  In  In64  1  0.65078613  0.33708432  0.01007291  1
  In  In65  1  0.15406439  0.17783677  0.32665854  1
  In  In66  1  0.37020092  0.67296100  0.32359698  1
  In  In67  1  0.66735413  0.85295144  0.49637305  1
  In  In68  1  0.83107066  0.34630724  0.49287544  1
  In  In69  1  0.85470779  0.30255120  0.13940205  1
  In  In70  1  0.14529305  0.32571066  0.49203616  1
  In  In71  1  0.00483953  0.65572485  0.35024859  1
  Te  Te72  1  0.07387108  0.05866170  0.09426759  1
  Te  Te73  1  0.06918391  0.08526003  0.41092193  1
  Te  Te74  1  0.06779243  0.08258219  0.76417620  1
  Te  Te75  1  0.06004634  0.40614497  0.09698975  1
  Te  Te76  1  0.07028613  0.43607579  0.42211014  1
  Te  Te77  1  0.06366666  0.40829741  0.76235143  1
  Te  Te78  1  0.10816178  0.73248888  0.08877805  1
  Te  Te79  1  0.08210294  0.75448492  0.43643801  1
  Te  Te80  1  0.05962980  0.72335443  0.74109259  1
  Te  Te81  1  0.40618946  0.08184587  0.05816132  1
  Te  Te82  1  0.40361103  0.09649629  0.43279980  1
  Te  Te83  1  0.42395601  0.06665751  0.74323485  1
  Te  Te84  1  0.41706841  0.40251837  0.08242347  1
  Te  Te85  1  0.42755716  0.42440565  0.41834171  1
  Te  Te86  1  0.42850613  0.41659105  0.74265540  1
  Te  Te87  1  0.41341151  0.74447681  0.10519459  1
  Te  Te88  1  0.43837443  0.77059329  0.41743925  1
  Te  Te89  1  0.40235309  0.75392803  0.76172367  1
  Te  Te90  1  0.76781558  0.07364189  0.02132906  1
  Te  Te91  1  0.74685431  0.07295355  0.39444510  1
  Te  Te92  1  0.76977126  0.06318435  0.77285917  1
  Te  Te93  1  0.76830468  0.42121860  0.07751709  1
  Te  Te94  1  0.72989959  0.42848798  0.42692309  1
  Te  Te95  1  0.76903116  0.43560889  0.75855350  1
  Te  Te96  1  0.76457863  0.75965404  0.05512228  1
  Te  Te97  1  0.75667593  0.74916838  0.41985474  1
  Te  Te98  1  0.72897434  0.69684982  0.75822999  1
  Te  Te99  1  0.07096903  0.25765936  0.23711075  1
  Te  Te100  1  0.09968507  0.23646293  0.59785684  1
  Te  Te101  1  0.05902694  0.24624606  0.93851056  1
  Te  Te102  1  0.09532294  0.58589088  0.25012220  1
  Te  Te103  1  0.05575639  0.57600516  0.58183124  1
  Te  Te104  1  0.08624816  0.56686219  0.92198813  1
  Te  Te105  1  0.08977160  0.91899846  0.23321743  1
  Te  Te106  1  0.07616919  0.92520095  0.58297992  1
  Te  Te107  1  0.06555629  0.89293550  0.90563885  1
  Te  Te108  1  0.41373077  0.25073055  0.24670094  1
  Te  Te109  1  0.39179046  0.25776284  0.59107410  1
  Te  Te110  1  0.40822328  0.23721298  0.88909943  1
  Te  Te111  1  0.43134038  0.55657824  0.26182163  1
  Te  Te112  1  0.40376913  0.61331646  0.60462849  1
  Te  Te113  1  0.41364695  0.59127113  0.93341061  1
  Te  Te114  1  0.42757993  0.90596301  0.25160647  1
  Te  Te115  1  0.43726070  0.92261216  0.57987712  1
  Te  Te116  1  0.40776467  0.89483158  0.90415502  1
  Te  Te117  1  0.74448020  0.24234293  0.22939641  1
  Te  Te118  1  0.75001786  0.26679539  0.59988017  1
  Te  Te119  1  0.75004014  0.26610695  0.92193380  1
  Te  Te120  1  0.75692048  0.58014419  0.26394749  1
  Te  Te121  1  0.76052590  0.59646350  0.61781725  1
  Te  Te122  1  0.76064071  0.60472921  0.88369865  1
  Te  Te123  1  0.77121885  0.93416994  0.22746887  1
  Te  Te124  1  0.75165031  0.93154233  0.59571511  1
  Te  Te125  1  0.71831502  0.95755726  0.93529920  1
  Te  Te126  1  0.23592844  0.25293923  0.07569080  1
  Te  Te127  1  0.25288906  0.24818257  0.41827127  1
  Te  Te128  1  0.26222665  0.22315464  0.79008465  1
  Te  Te129  1  0.25765543  0.58669036  0.07609989  1
  Te  Te130  1  0.26520262  0.59773777  0.42584850  1
  Te  Te131  1  0.24398266  0.58926554  0.74519407  1
  Te  Te132  1  0.24772913  0.94304345  0.06949960  1
  Te  Te133  1  0.25443344  0.91658828  0.40732085  1
  Te  Te134  1  0.25057981  0.91099106  0.76138176  1
  Te  Te135  1  0.56813387  0.23398703  0.07149286  1
  Te  Te136  1  0.58005601  0.24748135  0.41960884  1
  Te  Te137  1  0.59552175  0.25760634  0.74763250  1
  Te  Te138  1  0.58601225  0.59072847  0.09971126  1
  Te  Te139  1  0.58750537  0.56905444  0.41707196  1
  Te  Te140  1  0.59317744  0.60254003  0.74638040  1
  Te  Te141  1  0.58820678  0.92538481  0.07850928  1
  Te  Te142  1  0.59856830  0.91965528  0.38659210  1
  Te  Te143  1  0.59971211  0.89216842  0.75414610  1
  Te  Te144  1  0.92600224  0.21967099  0.03853889  1
  Te  Te145  1  0.92504265  0.24118517  0.43774129  1
  Te  Te146  1  0.92417292  0.23188892  0.76222804  1
  Te  Te147  1  0.90968973  0.59000699  0.09270904  1
  Te  Te148  1  0.90038718  0.57522709  0.41104512  1
  Te  Te149  1  0.93599083  0.63437146  0.77979500  1
  Te  Te150  1  0.90398187  0.90250635  0.05512363  1
  Te  Te151  1  0.92789281  0.90692130  0.41267552  1
  Te  Te152  1  0.89871990  0.89814689  0.77852877  1
  Te  Te153  1  0.24072327  0.08089780  0.24504764  1
  Te  Te154  1  0.23584523  0.10173889  0.59617512  1
  Te  Te155  1  0.25320994  0.05659001  0.94101594  1
  Te  Te156  1  0.23035027  0.40367678  0.23757957  1
  Te  Te157  1  0.23988209  0.41834588  0.58395953  1
  Te  Te158  1  0.24555139  0.42006201  0.90309457  1
  Te  Te159  1  0.25692867  0.74019629  0.24945434  1
  Te  Te160  1  0.24181079  0.76126239  0.60323454  1
  Te  Te161  1  0.26217624  0.75347561  0.91387446  1
  Te  Te162  1  0.59253067  0.08675963  0.23141675  1
  Te  Te163  1  0.58942883  0.09703028  0.57335713  1
  Te  Te164  1  0.58046642  0.08391142  0.92201340  1
  Te  Te165  1  0.57245450  0.40319213  0.23587319  1
  Te  Te166  1  0.59980911  0.42237359  0.58863867  1
  Te  Te167  1  0.60326731  0.44160216  0.90854283  1
  Te  Te168  1  0.58488165  0.74749713  0.22834587  1
  Te  Te169  1  0.59996971  0.74330043  0.57527711  1
  Te  Te170  1  0.59049373  0.76222696  0.92388002  1
  Te  Te171  1  0.91762997  0.09650086  0.22154696  1
  Te  Te172  1  0.92312732  0.08361222  0.58333183  1
  Te  Te173  1  0.89639158  0.10668120  0.93601894  1
  Te  Te174  1  0.88863113  0.39910159  0.25553767  1
  Te  Te175  1  0.91428142  0.42576958  0.59078836  1
  Te  Te176  1  0.94416855  0.42191751  0.92553943  1
  Te  Te177  1  0.93520203  0.74986718  0.24342897  1
  Te  Te178  1  0.91312467  0.77908848  0.58541578  1
  Te  Te179  1  0.91232369  0.73404721  0.89855706  1
