# generated using pymatgen
data_In2Te3
_symmetry_space_group_name_H-M   'P 1'
_cell_length_a   18.86477248
_cell_length_b   18.84643223
_cell_length_c   18.87795351
_cell_angle_alpha   90.09543554
_cell_angle_beta   90.02899263
_cell_angle_gamma   90.00860461
_symmetry_Int_Tables_number   1
_chemical_formula_structural   In2Te3
_chemical_formula_sum   'In72 Te108'
_cell_volume   6711.73758431
_cell_formula_units_Z   36
loop_
 _symmetry_equiv_pos_site_id
 _symmetry_equiv_pos_as_xyz
  1  'x, y, z'
loop_
 _atom_site_type_symbol
 _atom_site_label
 _atom_site_symmetry_multiplicity
 _atom_site_fract_x
 _atom_site_fract_y
 _atom_site_fract_z
 _atom_site_occupancy
  In  In0  1  0.86613727  -0.03530053  0.48836313  1
  In  In1  1  0.50233645  -0.00963997  0.83217323  1
  In  In2  1  0.01605095  0.09881996  0.42853024  1
  In  In3  1  0.50377239  0.16322114  0.33033650  1
  In  In4  1  0.16520779  0.52697273  0.68795808  1
  In  In5  1  0.15205753  0.68704409  0.50960530  1
  In  In6  1  0.82139021  0.52447314  0.35285408  1
  In  In7  1  0.87144708  -0.00113105  0.17419574  1
  In  In8  1  0.84781161  0.32456443  0.49481971  1
  In  In9  1  0.31986935  0.16342406  0.84707569  1
  In  In10  1  0.66803420  0.36624216  0.67170188  1
  In  In11  1  0.67362966  -0.03461959  -0.01789990  1
  In  In12  1  0.01699549  0.49561597  0.17949451  1
  In  In13  1  0.00272585  -0.01488737  -0.01798833  1
  In  In14  1  0.68813922  0.65606243  0.34616122  1
  In  In15  1  0.00173316  0.28900054  0.00554554  1
  In  In16  1  0.30527691  0.81096129  0.85855832  1
  In  In17  1  0.13400065  0.14193957  0.66840468  1
  In  In18  1  0.67833133  0.84746158  0.50712461  1
  In  In19  1  0.33355700  0.50559007  0.16595453  1
  In  In20  1  0.49081372  0.68653514  0.15160699  1
  In  In21  1  0.68980524  0.83076195  0.15460398  1
  In  In22  1  0.29163859  0.83814625  0.50477004  1
  In  In23  1  0.48424535  0.48080539  0.34095521  1
  In  In24  1  0.66543763  0.31953648  0.00365165  1
  In  In25  1  -0.02082113  0.53141522  0.85590127  1
  In  In26  1  0.32759957  -0.00007263  0.68543454  1
  In  In27  1  0.83741027  0.70745416  0.81464452  1
  In  In28  1  0.66746761  0.51645448  0.82921894  1
  In  In29  1  0.67870714  0.00161602  0.33423280  1
  In  In30  1  0.29778814  0.16813457  0.51007406  1
  In  In31  1  0.50373577  0.65685116  0.82359534  1
  In  In32  1  0.14862191  0.49807679  -0.02786188  1
  In  In33  1  0.24942941  0.10095569  0.13524349  1
  In  In34  1  0.15850977  0.67714998  0.15720214  1
  In  In35  1  0.67065654  0.17173895  0.48702974  1
  In  In36  1  0.18490341  0.32676452  0.50291525  1
  In  In37  1  0.34063840  0.34516477  0.69267114  1
  In  In38  1  0.14382008  0.87564414  0.30289412  1
  In  In39  1  0.14886588  0.32215513  0.84667927  1
  In  In40  1  0.47298877  0.83246740  0.30707330  1
  In  In41  1  0.17000764  0.52192786  0.32638663  1
  In  In42  1  0.84914927  0.14421193  0.66595716  1
  In  In43  1  0.01478866  0.67976165  0.00501733  1
  In  In44  1  0.00565080  0.51415782  0.49743843  1
  In  In45  1  0.33586670  0.32049511  0.34479724  1
  In  In46  1  0.51656604  0.18801580  0.64582085  1
  In  In47  1  -0.01072301  0.34606438  0.66154109  1
  In  In48  1  0.32433576  0.51780582  0.82662740  1
  In  In49  1  0.49531543  0.50756310  -0.01168783  1
  In  In50  1  0.85200164  0.70482271  0.52126358  1
  In  In51  1  0.50190265  0.34372061  0.17808444  1
  In  In52  1  0.50701600  0.02268223  0.50559201  1
  In  In53  1  0.85486570  0.31548193  0.15598743  1
  In  In54  1  0.30517109  0.67853858  0.35687065  1
  In  In55  1  0.47291106  0.64856629  0.53342504  1
  In  In56  1  0.46410229  0.32342902  0.82752615  1
  In  In57  1  0.69072922  0.16387563  0.15416578  1
  In  In58  1  0.86725939  0.70205176  0.18670894  1
  In  In59  1  0.66341431  0.69532234  0.01335698  1
  In  In60  1  0.01886691  0.31469671  0.30849809  1
  In  In61  1  0.48398568  0.83661138  -0.00773280  1
  In  In62  1  -0.01218768  -0.07851897  0.69057912  1
  In  In63  1  0.15491161  -0.02081587  0.83007067  1
  In  In64  1  0.16702275  0.28677337  0.17007836  1
  In  In65  1  0.66424435  0.30848973  0.31343906  1
  In  In66  1  0.82403375  0.48839123  -0.00250701  1
  In  In67  1  0.31920208  0.90976891  0.13488515  1
  In  In68  1  0.51466608  0.83912867  0.66465613  1
  In  In69  1  0.81848461  0.30805841  0.83005505  1
  In  In70  1  0.66573985  0.13978321  0.83821001  1
  In  In71  1  0.67813180  0.51715333  0.51786794  1
  Te  Te72  1  0.11429183  0.02837537  0.08324847  1
  Te  Te73  1  0.14407619  0.02423274  0.39122582  1
  Te  Te74  1  0.04730427  0.05503774  0.75346728  1
  Te  Te75  1  0.08816374  0.40212661  0.08134138  1
  Te  Te76  1  0.08532550  0.41521088  0.41258386  1
  Te  Te77  1  0.07209680  0.42626376  0.76430938  1
  Te  Te78  1  0.07461001  0.78583849  0.09498870  1
  Te  Te79  1  0.08656514  0.78582798  0.41752000  1
  Te  Te80  1  0.07240395  0.79356896  0.70014062  1
  Te  Te81  1  0.38296009  0.04196745  0.09939485  1
  Te  Te82  1  0.40314848  0.09515411  0.42262222  1
  Te  Te83  1  0.42702706  0.10287505  0.73972245  1
  Te  Te84  1  0.41246795  0.41301685  0.07487678  1
  Te  Te85  1  0.38962287  0.42263363  0.43587799  1
  Te  Te86  1  0.44475752  0.45267781  0.74395248  1
  Te  Te87  1  0.38550789  0.76987250  0.08641775  1
  Te  Te88  1  0.41798248  0.75471429  0.42795034  1
  Te  Te89  1  0.42219980  0.76954158  0.76176455  1
  Te  Te90  1  0.75780725  0.05131479  0.07885688  1
  Te  Te91  1  0.77111443  0.07823339  0.42574396  1
  Te  Te92  1  0.78532742  0.07183961  0.77984656  1
  Te  Te93  1  0.74554593  0.40709327  0.09959720  1
  Te  Te94  1  0.74393738  0.40506579  0.41460407  1
  Te  Te95  1  0.77472983  0.43406390  0.75599129  1
  Te  Te96  1  0.79324952  0.76059590  0.06570739  1
  Te  Te97  1  0.76637910  0.76838373  0.41026634  1
  Te  Te98  1  0.77509696  0.81402234  0.72906851  1
  Te  Te99  1  0.05339137  0.20371986  0.21630094  1
  Te  Te100  1  0.07550949  0.25183586  0.57818408  1
  Te  Te101  1  0.09778893  0.20665682  0.92575018  1
  Te  Te102  1  0.06687704  0.61350902  0.26347620  1
  Te  Te103  1  0.06382545  0.60430114  0.60499288  1
  Te  Te104  1  0.10743475  0.62083817  0.88715745  1
  Te  Te105  1  0.05102509  0.96223149  0.21709898  1
  Te  Te106  1  0.08007257  0.88252067  0.57369653  1
  Te  Te107  1  0.06880929  0.87414573  0.89808148  1
  Te  Te108  1  0.40831005  0.23949849  0.23865773  1
  Te  Te109  1  0.40157245  0.26031123  0.57899013  1
  Te  Te110  1  0.41859997  0.23270563  0.93258708  1
  Te  Te111  1  0.41138917  0.59905324  0.25826811  1
  Te  Te112  1  0.41488485  0.56809616  0.63936251  1
  Te  Te113  1  0.40004524  0.60700865  0.92692515  1
  Te  Te114  1  0.41494723  0.95292117  0.24621349  1
  Te  Te115  1  0.41192562  0.92474577  0.57815558  1
  Te  Te116  1  0.39049360  0.92789092  0.91341621  1
  Te  Te117  1  0.78063543  0.22727459  0.25998737  1
  Te  Te118  1  0.75586211  0.25326452  0.59606370  1
  Te  Te119  1  0.75810939  0.22047966  0.93743452  1
  Te  Te120  1  0.76574211  0.59632403  0.22813928  1
  Te  Te121  1  0.76269462  0.61063048  0.59271868  1
  Te  Te122  1  0.75600574  0.60228863  0.92213727  1
  Te  Te123  1  0.77022666  0.91024060  0.25602317  1
  Te  Te124  1  0.76854701  0.92601230  0.59446822  1
  Te  Te125  1  0.75114267  0.88301322  0.88484640  1
  Te  Te126  1  0.26038946  0.23546588  0.07138519  1
  Te  Te127  1  0.21704312  0.22962220  0.38741194  1
  Te  Te128  1  0.23240704  0.23900075  0.73728634  1
  Te  Te129  1  0.23690131  0.57687000  0.07319736  1
  Te  Te130  1  0.24536521  0.57361776  0.44688005  1
  Te  Te131  1  0.26756301  0.62397661  0.73746466  1
  Te  Te132  1  0.18949097  0.89199336  0.06320465  1
  Te  Te133  1  0.26793036  0.92108670  0.38481272  1
  Te  Te134  1  0.24167554  0.88902981  0.74032096  1
  Te  Te135  1  0.57223242  0.23849339  0.09108847  1
  Te  Te136  1  0.56782101  0.26511089  0.42433356  1
  Te  Te137  1  0.59715307  0.25472591  0.76068301  1
  Te  Te138  1  0.58456754  0.58421790  0.08571986  1
  Te  Te139  1  0.57214936  0.58802217  0.41802772  1
  Te  Te140  1  0.61393217  0.61459776  0.73468081  1
  Te  Te141  1  0.57745511  0.90950962  0.08908682  1
  Te  Te142  1  0.57228788  0.92026688  0.41074635  1
  Te  Te143  1  0.60028114  0.93214094  0.74040006  1
  Te  Te144  1  0.92417694  0.19526277  0.09580221  1
  Te  Te145  1  0.93820768  0.23682099  0.41254976  1
  Te  Te146  1  0.93240244  0.24036321  0.75529187  1
  Te  Te147  1  0.93105124  0.56838397  0.07549865  1
  Te  Te148  1  0.92561053  0.61465967  0.41547402  1
  Te  Te149  1  0.91272250  0.60041646  0.74564932  1
  Te  Te150  1  0.89791847  0.91149762  0.05805822  1
  Te  Te151  1  0.95209740  0.88178933  0.39728458  1
  Te  Te152  1  0.87180836  0.92298862  0.79363911  1
  Te  Te153  1  0.22540235  0.10156529  0.28152344  1
  Te  Te154  1  0.22585049  0.05466856  0.58420977  1
  Te  Te155  1  0.24160042  0.06157396  0.91779544  1
  Te  Te156  1  0.24352132  0.41266290  0.24838912  1
  Te  Te157  1  0.24261084  0.42440815  0.60456955  1
  Te  Te158  1  0.25729084  0.40788019  0.91102172  1
  Te  Te159  1  0.24553838  0.76339651  0.24916941  1
  Te  Te160  1  0.26609221  0.72771826  0.59778214  1
  Te  Te161  1  0.19538155  0.74596501  0.93216512  1
  Te  Te162  1  0.59177972  0.08035528  0.23823253  1
  Te  Te163  1  0.61402480  0.08068490  0.59733421  1
  Te  Te164  1  0.57198211  0.07474226  0.93852899  1
  Te  Te165  1  0.59928582  0.43405833  0.25251936  1
  Te  Te166  1  0.57737518  0.42611691  0.57470048  1
  Te  Te167  1  0.58754791  0.41176521  0.90998732  1
  Te  Te168  1  0.59340489  0.75063625  0.25462269  1
  Te  Te169  1  0.59031733  0.74294533  0.57452583  1
  Te  Te170  1  0.58489848  0.76349206  0.90465644  1
  Te  Te171  1  0.94788094  0.04867191  0.29746509  1
  Te  Te172  1  0.94011985  0.07982760  0.56258402  1
  Te  Te173  1  0.95381992  0.12430719  0.95116191  1
  Te  Te174  1  0.91031879  0.42222881  0.26357447  1
  Te  Te175  1  0.90094877  0.43961526  0.57986167  1
  Te  Te176  1  0.91893523  0.39432618  0.92347632  1
  Te  Te177  1  0.93987883  0.80413214  0.26191832  1
  Te  Te178  1  0.94595809  0.79202917  0.60413309  1
  Te  Te179  1  0.95116111  0.76431052  0.89607578  1
