# generated using pymatgen
data_In2Te3
_symmetry_space_group_name_H-M   'P 1'
_cell_length_a   19.04181373
_cell_length_b   19.03416498
_cell_length_c   19.03769760
_cell_angle_alpha   89.90548808
_cell_angle_beta   90.11155963
_cell_angle_gamma   89.91498850
_symmetry_Int_Tables_number   1
_chemical_formula_structural   In2Te3
_chemical_formula_sum   'In72 Te108'
_cell_volume   6900.08867050
_cell_formula_units_Z   36
loop_
 _symmetry_equiv_pos_site_id
 _symmetry_equiv_pos_as_xyz
  1  'x, y, z'
loop_
 _atom_site_type_symbol
 _atom_site_label
 _atom_site_symmetry_multiplicity
 _atom_site_fract_x
 _atom_site_fract_y
 _atom_site_fract_z
 _atom_site_occupancy
  In  In0  1  -0.00033104  0.32014678  0.66399678  1
  In  In1  1  0.68610418  0.32342333  -0.00539501  1
  In  In2  1  0.17075107  0.47710076  -0.01182311  1
  In  In3  1  0.49293319  0.66957148  0.50041713  1
  In  In4  1  0.52852298  0.67862472  0.83873380  1
  In  In5  1  0.20027748  0.65918769  0.23510755  1
  In  In6  1  0.83873769  -0.02781776  0.17298434  1
  In  In7  1  0.85462514  0.82607839  0.34577043  1
  In  In8  1  0.36109012  0.34356618  -0.00531420  1
  In  In9  1  0.82152384  0.85735581  -0.01724492  1
  In  In10  1  0.66637738  0.67854018  0.00017122  1
  In  In11  1  -0.03962214  0.66524016  0.65877889  1
  In  In12  1  0.33397306  0.84249411  0.50550945  1
  In  In13  1  0.30978337  0.12945348  0.81976274  1
  In  In14  1  0.82882166  0.14341533  0.66362159  1
  In  In15  1  0.50760616  0.17242096  -0.00444315  1
  In  In16  1  0.64170491  0.01253379  0.33186104  1
  In  In17  1  0.66219036  0.17022142  0.48505562  1
  In  In18  1  0.51469518  0.33273084  0.84374667  1
  In  In19  1  0.81867382  0.08430816  -0.00893369  1
  In  In20  1  0.51455915  0.51428463  0.33864958  1
  In  In21  1  0.82119454  0.32391222  0.83017705  1
  In  In22  1  0.81508054  0.50430960  0.32731914  1
  In  In23  1  0.34362787  0.68483379  0.65174468  1
  In  In24  1  0.15736586  -0.01592862  0.83330625  1
  In  In25  1  0.35983124  0.52056154  0.80862397  1
  In  In26  1  0.19963362  0.03037892  0.49385056  1
  In  In27  1  0.32395978  0.32972485  0.68169403  1
  In  In28  1  0.20900503  0.70612407  0.43042506  1
  In  In29  1  0.13762858  0.47994190  0.66662940  1
  In  In30  1  0.82235687  0.51877237  -0.00444973  1
  In  In31  1  -0.02301232  0.48331067  0.50389116  1
  In  In32  1  0.01624504  0.30014552  0.00242378  1
  In  In33  1  0.33348598  0.86221305  0.83488654  1
  In  In34  1  0.00854476  0.12106762  0.12894163  1
  In  In35  1  -0.02885687  0.49323571  0.82653659  1
  In  In36  1  0.66444132  0.67410748  0.33182835  1
  In  In37  1  0.51503978  0.34112828  0.51208466  1
  In  In38  1  0.33182102  0.65828321  -0.03217700  1
  In  In39  1  0.49650717  0.19061916  0.67194655  1
  In  In40  1  0.19881609  0.83923878  0.02390198  1
  In  In41  1  0.02422451  0.85010854  0.49855705  1
  In  In42  1  0.50904614  -0.01186564  0.85043748  1
  In  In43  1  0.16816558  0.31848167  0.16988059  1
  In  In44  1  0.04252585  -0.00436477  0.33062470  1
  In  In45  1  0.66135970  0.82844341  0.16359409  1
  In  In46  1  0.47316141  0.86925230  0.33738530  1
  In  In47  1  0.65851480  0.00257953  0.67796645  1
  In  In48  1  0.16289290  0.29153867  0.87278426  1
  In  In49  1  0.68628091  0.33034725  0.34211768  1
  In  In50  1  0.40962871  0.03402796  0.51697811  1
  In  In51  1  0.32912969  0.00688869  0.31565769  1
  In  In52  1  0.00103194  0.83532057  0.83250768  1
  In  In53  1  0.81835245  0.83810921  0.67175378  1
  In  In54  1  0.66217855  0.83225283  0.50956299  1
  In  In55  1  0.34644340  0.48639753  0.16904728  1
  In  In56  1  0.16450374  0.31503146  0.50158699  1
  In  In57  1  -0.00326135  0.00011608  0.65788128  1
  In  In58  1  0.67486412  0.68258134  0.67547300  1
  In  In59  1  0.32714926  0.33109039  0.35857493  1
  In  In60  1  0.13089111  0.66439072  0.81451781  1
  In  In61  1  0.83207436  0.32918288  0.18474790  1
  In  In62  1  0.49414625  0.68229836  0.13763701  1
  In  In63  1  0.66023198  0.34322745  0.68519701  1
  In  In64  1  0.49236841  -0.01348672  0.16997232  1
  In  In65  1  0.00253778  0.64364690  0.33417454  1
  In  In66  1  -0.01500287  0.68675925  0.00650633  1
  In  In67  1  0.51583788  0.33695643  0.17676600  1
  In  In68  1  0.32823057  0.16727032  0.15277566  1
  In  In69  1  0.01594763  0.81710085  0.17429457  1
  In  In70  1  0.00853452  0.31955171  0.33407456  1
  In  In71  1  0.85105949  0.32733680  0.50446969  1
  Te  Te72  1  0.11388312  0.09768589  0.02718415  1
  Te  Te73  1  0.10793267  0.10472005  0.40500309  1
  Te  Te74  1  0.08562850  0.07785629  0.74552427  1
  Te  Te75  1  0.07896770  0.41058856  0.08684558  1
  Te  Te76  1  0.08407046  0.41799041  0.42140894  1
  Te  Te77  1  0.08191844  0.39700853  0.78068606  1
  Te  Te78  1  0.10725333  0.73315695  0.08553474  1
  Te  Te79  1  0.07888515  0.76535610  0.38642463  1
  Te  Te80  1  0.07007926  0.76290993  0.72093117  1
  Te  Te81  1  0.41631667  0.07826129  0.07042830  1
  Te  Te82  1  0.42699644  0.09327712  0.38385490  1
  Te  Te83  1  0.43260673  0.07851216  0.75096724  1
  Te  Te84  1  0.45254571  0.43044625  0.07551304  1
  Te  Te85  1  0.42163934  0.42946752  0.42207151  1
  Te  Te86  1  0.43745768  0.41206761  0.73817668  1
  Te  Te87  1  0.40439566  0.75712306  0.04920941  1
  Te  Te88  1  0.40649295  0.75046381  0.40688562  1
  Te  Te89  1  0.41043477  0.74941627  0.76716022  1
  Te  Te90  1  0.74488241  0.06736300  0.11620709  1
  Te  Te91  1  0.74726371  0.08977819  0.39799152  1
  Te  Te92  1  0.75937095  0.06435837  0.76667575  1
  Te  Te93  1  0.75419321  0.41736031  0.09074504  1
  Te  Te94  1  0.75254024  0.42305556  0.43998509  1
  Te  Te95  1  0.73198443  0.42964952  0.78107794  1
  Te  Te96  1  0.76737409  0.75877967  0.08413236  1
  Te  Te97  1  0.75563968  0.74560079  0.42972086  1
  Te  Te98  1  0.71638058  0.79184479  0.76826188  1
  Te  Te99  1  0.06844089  0.22685272  0.22936029  1
  Te  Te100  1  0.07065222  0.23108100  0.57521224  1
  Te  Te101  1  0.05112842  0.19461262  0.89995415  1
  Te  Te102  1  0.08447189  0.57067253  0.23804297  1
  Te  Te103  1  0.06488127  0.58023289  0.58210597  1
  Te  Te104  1  0.06918071  0.57456571  0.92050074  1
  Te  Te105  1  0.11421421  0.92050194  0.22118557  1
  Te  Te106  1  0.11217329  0.93805940  0.57943541  1
  Te  Te107  1  0.08651568  0.89812612  0.93803759  1
  Te  Te108  1  0.40130767  0.26550932  0.24197955  1
  Te  Te109  1  0.40255891  0.25765831  0.57304630  1
  Te  Te110  1  0.40248509  0.23563029  0.89479175  1
  Te  Te111  1  0.42664119  0.59052902  0.24225904  1
  Te  Te112  1  0.39609113  0.58132405  0.56626545  1
  Te  Te113  1  0.44485259  0.57148200  0.91941208  1
  Te  Te114  1  0.38107526  0.88344452  0.21572752  1
  Te  Te115  1  0.40721815  0.91817221  0.60583662  1
  Te  Te116  1  0.40083844  0.93843798  0.93784490  1
  Te  Te117  1  0.75917107  0.23065895  0.26525591  1
  Te  Te118  1  0.74037355  0.25227748  0.58755629  1
  Te  Te119  1  0.77116257  0.22032722  0.92707622  1
  Te  Te120  1  0.73853886  0.59176346  0.23609491  1
  Te  Te121  1  0.80586565  0.62296715  0.63537480  1
  Te  Te122  1  0.74007998  0.59556087  0.90360345  1
  Te  Te123  1  0.74025101  0.90139494  0.27812245  1
  Te  Te124  1  0.74992885  0.93435563  0.57609569  1
  Te  Te125  1  0.75312551  0.97074904  0.91889212  1
  Te  Te126  1  0.25217962  0.26043531  0.05831676  1
  Te  Te127  1  0.22653833  0.23059065  0.39647215  1
  Te  Te128  1  0.22707256  0.23385963  0.74624743  1
  Te  Te129  1  0.26242118  0.56557688  0.06858632  1
  Te  Te130  1  0.24223833  0.58508609  0.35858296  1
  Te  Te131  1  0.23256844  0.57702444  0.74231315  1
  Te  Te132  1  0.23053669  0.94392295  0.12322559  1
  Te  Te133  1  0.24797201  0.91805160  0.40519641  1
  Te  Te134  1  0.25115884  0.92668934  0.73472779  1
  Te  Te135  1  0.59832414  0.24410031  0.09286175  1
  Te  Te136  1  0.56886133  0.25522482  0.40119161  1
  Te  Te137  1  0.60217685  0.23313523  0.77134390  1
  Te  Te138  1  0.60828746  0.59642929  0.10889863  1
  Te  Te139  1  0.60269368  0.58612527  0.43857093  1
  Te  Te140  1  0.57158286  0.59356900  0.72890473  1
  Te  Te141  1  0.58426102  0.91826958  0.07916485  1
  Te  Te142  1  0.56938343  0.92898071  0.43635320  1
  Te  Te143  1  0.59186812  0.90027786  0.76148519  1
  Te  Te144  1  0.91434441  0.23892409  0.09413471  1
  Te  Te145  1  0.91572104  0.23787952  0.41151029  1
  Te  Te146  1  0.91387573  0.23392235  0.75266841  1
  Te  Te147  1  0.91965777  0.58278222  0.08359466  1
  Te  Te148  1  0.89738388  0.58594401  0.42623667  1
  Te  Te149  1  0.88370620  0.59926053  0.76956273  1
  Te  Te150  1  0.93271598  0.90092541  0.08025765  1
  Te  Te151  1  0.92953560  0.93548491  0.41644931  1
  Te  Te152  1  0.90796565  0.92604201  0.75690572  1
  Te  Te153  1  0.23459790  0.07858547  0.22485333  1
  Te  Te154  1  0.29590731  0.10076720  0.57929990  1
  Te  Te155  1  0.23651803  0.06771973  0.93292670  1
  Te  Te156  1  0.24758479  0.41269226  0.25600367  1
  Te  Te157  1  0.24550369  0.41546690  0.58409364  1
  Te  Te158  1  0.27092180  0.41711808  0.89253055  1
  Te  Te159  1  0.28441350  0.77270278  0.26670443  1
  Te  Te160  1  0.23125987  0.74724280  0.57286201  1
  Te  Te161  1  0.22772881  0.74611392  0.89723375  1
  Te  Te162  1  0.54151056  0.09360986  0.25936648  1
  Te  Te163  1  0.57619987  0.09534777  0.58427145  1
  Te  Te164  1  0.59586430  0.08146465  0.92419016  1
  Te  Te165  1  0.60562420  0.42709084  0.25580076  1
  Te  Te166  1  0.59093287  0.43436556  0.59354890  1
  Te  Te167  1  0.60857926  0.41985399  0.91341559  1
  Te  Te168  1  0.56328847  0.76573763  0.26376609  1
  Te  Te169  1  0.56399577  0.76081928  0.59600274  1
  Te  Te170  1  0.56557445  0.77151778  0.94578279  1
  Te  Te171  1  0.93342851  0.06323844  0.24746903  1
  Te  Te172  1  0.92206904  0.08879560  0.56734211  1
  Te  Te173  1  0.96636548  0.07481461  0.96738105  1
  Te  Te174  1  0.92287231  0.42291248  0.25983807  1
  Te  Te175  1  0.89866334  0.42162775  0.61717829  1
  Te  Te176  1  0.91701707  0.39813312  0.93071430  1
  Te  Te177  1  0.91243019  0.73224150  0.24456913  1
  Te  Te178  1  0.91292267  0.77608852  0.56699163  1
  Te  Te179  1  0.89740727  0.75160624  0.90232076  1
