# generated using pymatgen
data_In2Te3
_symmetry_space_group_name_H-M   'P 1'
_cell_length_a   19.02061842
_cell_length_b   19.05195699
_cell_length_c   19.03666523
_cell_angle_alpha   89.75137665
_cell_angle_beta   89.80844379
_cell_angle_gamma   90.19814838
_symmetry_Int_Tables_number   1
_chemical_formula_structural   In2Te3
_chemical_formula_sum   'In72 Te108'
_cell_volume   6898.36172327
_cell_formula_units_Z   36
loop_
 _symmetry_equiv_pos_site_id
 _symmetry_equiv_pos_as_xyz
  1  'x, y, z'
loop_
 _atom_site_type_symbol
 _atom_site_label
 _atom_site_symmetry_multiplicity
 _atom_site_fract_x
 _atom_site_fract_y
 _atom_site_fract_z
 _atom_site_occupancy
  In  In0  1  0.17276604  0.37300406  0.14675119  1
  In  In1  1  0.51595287  0.16738167  0.00869835  1
  In  In2  1  0.81020923  0.20680499  0.35460959  1
  In  In3  1  0.15005667  0.00743245  0.83993356  1
  In  In4  1  0.83088678  0.66048515  0.85114119  1
  In  In5  1  0.69557536  0.35619352  0.03508602  1
  In  In6  1  0.33907235  0.00597965  0.30294215  1
  In  In7  1  0.63857431  0.81403460  0.50878476  1
  In  In8  1  0.82847924  0.34847059  0.83872425  1
  In  In9  1  0.31079996  0.32877471  0.67097314  1
  In  In10  1  0.51369402  0.31465044  0.83664899  1
  In  In11  1  0.49313872  0.51933133  0.32597710  1
  In  In12  1  0.15139344  0.32441063  0.83371042  1
  In  In13  1  0.34567131  0.18523539  0.15290300  1
  In  In14  1  0.49082284  0.68479728  0.84446754  1
  In  In15  1  -0.04955738  0.35202272  0.03517279  1
  In  In16  1  0.21546028  0.81341939  -0.02112420  1
  In  In17  1  0.51399205  0.01607754  0.49874947  1
  In  In18  1  0.50729473  -0.03474004  0.82807492  1
  In  In19  1  0.17608913  0.83439689  0.68854440  1
  In  In20  1  0.18227999  0.67396334  0.50472716  1
  In  In21  1  0.83496240  0.84925529  0.67799505  1
  In  In22  1  0.12910385  0.17477329  -0.01067185  1
  In  In23  1  0.52849796  0.34790196  0.44656185  1
  In  In24  1  0.34394675  0.34659416  -0.01890152  1
  In  In25  1  -0.01187185  0.16822051  0.16399057  1
  In  In26  1  0.67602007  0.47890287  0.45712919  1
  In  In27  1  0.64231979  0.64511292  0.68172801  1
  In  In28  1  0.34087721  0.01322962  0.66450369  1
  In  In29  1  0.33336083  0.67656569  0.34024696  1
  In  In30  1  0.50492890  0.32737282  0.19680456  1
  In  In31  1  0.20775056  0.00265276  0.50125723  1
  In  In32  1  0.84177216  0.65300966  0.48194713  1
  In  In33  1  0.82650187  0.14391126  -0.00850011  1
  In  In34  1  -0.00778506  -0.01700058  -0.00699794  1
  In  In35  1  0.82532980  -0.00535631  0.49186057  1
  In  In36  1  -0.01177361  0.82204459  0.14458275  1
  In  In37  1  0.54150020  -0.02234948  0.17695020  1
  In  In38  1  0.34533970  0.82023510  0.15715516  1
  In  In39  1  0.69463095  0.12298073  0.83300279  1
  In  In40  1  0.14415281  0.33664703  0.50811101  1
  In  In41  1  0.00697757  0.49437522  0.85127427  1
  In  In42  1  0.47647229  0.63816347  0.52221937  1
  In  In43  1  0.00472361  0.51465975  0.49141490  1
  In  In44  1  -0.02951123  0.16702570  0.49320418  1
  In  In45  1  0.68499757  0.79859012  0.14094178  1
  In  In46  1  0.66657621  0.03876447  0.33685546  1
  In  In47  1  0.64308395  0.30651946  0.62052001  1
  In  In48  1  0.81778133  0.48656415  0.65634770  1
  In  In49  1  -0.01676780  -0.02315451  0.69803472  1
  In  In50  1  0.83852477  0.82675068  0.31439750  1
  In  In51  1  -0.00088339  -0.00102997  0.34126672  1
  In  In52  1  0.12711157  0.81693863  0.32490942  1
  In  In53  1  0.67620808  0.83950263  0.84797712  1
  In  In54  1  0.15373553  0.18156151  0.31654389  1
  In  In55  1  0.84925164  0.00993699  0.15644614  1
  In  In56  1  0.18249354  0.49990128  0.32896787  1
  In  In57  1  0.47674266  0.16750651  0.66255155  1
  In  In58  1  0.67291939  0.51311197  0.84939472  1
  In  In59  1  0.50593139  0.51069674  0.02121666  1
  In  In60  1  0.32253462  0.18412024  0.50344859  1
  In  In61  1  0.69413979  0.64500619  0.30010843  1
  In  In62  1  0.33677280  0.50915969  0.81045622  1
  In  In63  1  0.01504294  0.65912508  0.67802150  1
  In  In64  1  0.01610850  0.65602393  -0.01238285  1
  In  In65  1  0.03323441  0.81857804  0.52568902  1
  In  In66  1  -0.01810447  0.50793334  0.16745424  1
  In  In67  1  -0.01117106  0.33325837  0.67572769  1
  In  In68  1  0.34284049  -0.00573823  -0.01072105  1
  In  In69  1  0.50214753  0.67419865  0.15456924  1
  In  In70  1  0.18735769  0.62397234  0.13284631  1
  In  In71  1  0.35559616  0.85420249  0.48036797  1
  Te  Te72  1  0.07431116  0.07288895  0.08746099  1
  Te  Te73  1  0.10017003  0.08039529  0.42025718  1
  Te  Te74  1  0.04727809  0.08753172  0.77235904  1
  Te  Te75  1  0.07212916  0.44315620  0.06286267  1
  Te  Te76  1  0.07578860  0.41860966  0.39872484  1
  Te  Te77  1  0.08690571  0.42602490  0.74179182  1
  Te  Te78  1  0.10912927  0.74459478  0.08079854  1
  Te  Te79  1  0.06389540  0.71605536  0.41809157  1
  Te  Te80  1  0.06834297  0.76617796  0.76016927  1
  Te  Te81  1  0.42938238  0.06781908  0.09156016  1
  Te  Te82  1  0.39512746  0.07610133  0.42366656  1
  Te  Te83  1  0.42115908  0.08016331  0.77256540  1
  Te  Te84  1  0.42094117  0.40654773  0.09220777  1
  Te  Te85  1  0.41656399  0.43594789  0.41914256  1
  Te  Te86  1  0.42275836  0.39768140  0.75029898  1
  Te  Te87  1  0.43550060  0.76275193  0.05658096  1
  Te  Te88  1  0.44000703  0.74912865  0.41722139  1
  Te  Te89  1  0.39605195  0.78809154  0.79892629  1
  Te  Te90  1  0.73870121  0.07825389  0.08951371  1
  Te  Te91  1  0.73740441  0.10957181  0.44947865  1
  Te  Te92  1  0.78304116  0.06010334  0.73729379  1
  Te  Te93  1  0.76708299  0.45052010  0.12555467  1
  Te  Te94  1  0.75591249  0.35415367  0.43142545  1
  Te  Te95  1  0.71962763  0.41346153  0.74513392  1
  Te  Te96  1  0.78985784  0.70117921  0.12362715  1
  Te  Te97  1  0.74840683  0.75274094  0.41333761  1
  Te  Te98  1  0.74835520  0.73382721  0.74267899  1
  Te  Te99  1  0.08075226  0.27263919  0.22083049  1
  Te  Te100  1  0.06592011  0.23487660  0.58855412  1
  Te  Te101  1  0.04233855  0.28133565  0.93058526  1
  Te  Te102  1  0.09172534  0.58411553  0.24165329  1
  Te  Te103  1  0.10303020  0.57584154  0.59007593  1
  Te  Te104  1  0.10884432  0.58564768  0.89984798  1
  Te  Te105  1  0.06843102  0.92171749  0.23287258  1
  Te  Te106  1  0.09812809  0.93946467  0.58907472  1
  Te  Te107  1  0.09670154  0.89607505  0.92722023  1
  Te  Te108  1  0.40181443  0.25071878  0.26952229  1
  Te  Te109  1  0.43027530  0.26973831  0.56236152  1
  Te  Te110  1  0.41473723  0.23104844  0.91536835  1
  Te  Te111  1  0.39906388  0.59380011  0.23333130  1
  Te  Te112  1  0.37970583  0.61115245  0.62636245  1
  Te  Te113  1  0.40341984  0.58211337  0.93454544  1
  Te  Te114  1  0.43263259  0.90050226  0.25241696  1
  Te  Te115  1  0.43309288  0.92144269  0.59033229  1
  Te  Te116  1  0.43150331  0.88852540  0.93318251  1
  Te  Te117  1  0.69628673  0.28233806  0.29563686  1
  Te  Te118  1  0.76542016  0.26534058  0.55613316  1
  Te  Te119  1  0.74024664  0.25768120  0.92494204  1
  Te  Te120  1  0.78584228  0.53496358  0.26818514  1
  Te  Te121  1  0.73844636  0.58689133  0.57415444  1
  Te  Te122  1  0.72344886  0.61332165  0.94336428  1
  Te  Te123  1  0.76028298  0.94048936  0.26267005  1
  Te  Te124  1  0.73593666  0.90837788  0.57936761  1
  Te  Te125  1  0.74644357  0.97779717  0.85699447  1
  Te  Te126  1  0.24059531  0.25671392  0.06442216  1
  Te  Te127  1  0.23787332  0.26546390  0.40918509  1
  Te  Te128  1  0.23791017  0.23672950  0.75673658  1
  Te  Te129  1  0.30547401  0.60019410  0.05489831  1
  Te  Te130  1  0.26774083  0.57483567  0.43036103  1
  Te  Te131  1  0.27502232  0.62461815  0.74028671  1
  Te  Te132  1  0.25369778  0.91690551  0.08533467  1
  Te  Te133  1  0.23958508  0.90568930  0.38830494  1
  Te  Te134  1  0.25957424  0.93322418  0.76521180  1
  Te  Te135  1  0.59811058  0.25525089  0.09782539  1
  Te  Te136  1  0.57432093  0.23167234  0.36933178  1
  Te  Te137  1  0.60248025  0.22923033  0.74977633  1
  Te  Te138  1  0.59772045  0.56468298  0.12305814  1
  Te  Te139  1  0.59206365  0.59970214  0.41597313  1
  Te  Te140  1  0.55327769  0.56509079  0.77226702  1
  Te  Te141  1  0.62367862  0.91297306  0.07540464  1
  Te  Te142  1  0.59480858  0.92249885  0.41291006  1
  Te  Te143  1  0.60210133  0.90076673  0.73851066  1
  Te  Te144  1  0.87182933  0.23948906  0.10225800  1
  Te  Te145  1  0.94143110  0.26314739  0.38840938  1
  Te  Te146  1  0.88835421  0.25420065  0.74667150  1
  Te  Te147  1  0.90834175  0.60818673  0.08300838  1
  Te  Te148  1  0.89642221  0.54899634  0.39338369  1
  Te  Te149  1  0.90881806  0.56724641  0.74736465  1
  Te  Te150  1  0.88501728  0.89787012  0.06286663  1
  Te  Te151  1  0.93327916  0.89815597  0.43367595  1
  Te  Te152  1  0.91073196  0.89289042  0.79490872  1
  Te  Te153  1  0.24297020  0.09518696  0.22993317  1
  Te  Te154  1  0.23960807  0.10791448  0.60506702  1
  Te  Te155  1  0.23936879  0.09078426  0.92900050  1
  Te  Te156  1  0.27050437  0.42637618  0.23867930  1
  Te  Te157  1  0.23869211  0.41822459  0.58322098  1
  Te  Te158  1  0.24554044  0.42450453  0.90034920  1
  Te  Te159  1  0.23950983  0.74990878  0.24719316  1
  Te  Te160  1  0.26176218  0.77933359  0.57678084  1
  Te  Te161  1  0.26823422  0.73396877  0.86420392  1
  Te  Te162  1  0.55886622  0.10041711  0.25788356  1
  Te  Te163  1  0.58504529  0.09212152  0.60027839  1
  Te  Te164  1  0.57981515  0.06736728  0.91882335  1
  Te  Te165  1  0.58772730  0.44197581  0.24217444  1
  Te  Te166  1  0.58203128  0.43170462  0.56758374  1
  Te  Te167  1  0.58451299  0.40765855  0.93412351  1
  Te  Te168  1  0.59543382  0.74862510  0.25099503  1
  Te  Te169  1  0.55208933  0.74220534  0.60996564  1
  Te  Te170  1  0.60564815  0.73304980  0.92513953  1
  Te  Te171  1  0.90363131  0.09535649  0.27661902  1
  Te  Te172  1  0.91355260  0.06615986  0.59071552  1
  Te  Te173  1  0.94262251  0.09714774  0.91356651  1
  Te  Te174  1  0.88625490  0.40027856  0.20697631  1
  Te  Te175  1  0.91769732  0.41648958  0.56998476  1
  Te  Te176  1  0.88833990  0.44772370  0.93407005  1
  Te  Te177  1  0.92278683  0.73243069  0.24331220  1
  Te  Te178  1  0.91384594  0.74047231  0.59017583  1
  Te  Te179  1  0.92026025  0.74836452  0.92420305  1
