# generated using pymatgen
data_In2Te3
_symmetry_space_group_name_H-M   'P 1'
_cell_length_a   18.79081907
_cell_length_b   18.79288783
_cell_length_c   18.77494589
_cell_angle_alpha   90.00975545
_cell_angle_beta   89.94427390
_cell_angle_gamma   89.96718553
_symmetry_Int_Tables_number   1
_chemical_formula_structural   In2Te3
_chemical_formula_sum   'In72 Te108'
_cell_volume   6630.06282216
_cell_formula_units_Z   36
loop_
 _symmetry_equiv_pos_site_id
 _symmetry_equiv_pos_as_xyz
  1  'x, y, z'
loop_
 _atom_site_type_symbol
 _atom_site_label
 _atom_site_symmetry_multiplicity
 _atom_site_fract_x
 _atom_site_fract_y
 _atom_site_fract_z
 _atom_site_occupancy
  In  In0  1  0.85368409  0.16536991  0.68005847  1
  In  In1  1  0.33410047  0.84009180  0.51964216  1
  In  In2  1  0.15599150  0.00124107  0.18224298  1
  In  In3  1  0.50954704  0.49434214  0.33701569  1
  In  In4  1  0.33758779  0.02693317  0.34853871  1
  In  In5  1  -0.02036791  0.17877277  0.15866699  1
  In  In6  1  0.51922765  0.02226046  0.15338048  1
  In  In7  1  0.66498542  0.65462706  0.67829448  1
  In  In8  1  0.32701472  0.82741347  0.18450423  1
  In  In9  1  0.66281153  0.18136324  0.16227847  1
  In  In10  1  0.16433411  -0.01552396  0.52461155  1
  In  In11  1  -0.02672215  0.48709389  0.83069768  1
  In  In12  1  0.68931217  0.83282505  0.49223787  1
  In  In13  1  0.66669144  0.49068696  0.85449890  1
  In  In14  1  -0.01775487  0.64916588  0.32724371  1
  In  In15  1  0.35220078  0.00994410  0.65686858  1
  In  In16  1  0.51680053  -0.00199680  0.80726770  1
  In  In17  1  0.31575689  0.20149211  0.84040542  1
  In  In18  1  0.34804187  0.64360187  0.63912378  1
  In  In19  1  0.13977084  0.82021359  0.01091400  1
  In  In20  1  0.14398656  0.17598650  0.32277593  1
  In  In21  1  0.37590322  0.32327632  0.30808828  1
  In  In22  1  0.65789719  0.31914858  0.32310488  1
  In  In23  1  0.81847474  0.67159167  0.15492633  1
  In  In24  1  0.33621867  0.63169412  0.01920295  1
  In  In25  1  0.65309570  0.81719145  0.83216887  1
  In  In26  1  0.82541072  0.49197883  0.65164680  1
  In  In27  1  -0.00239715  0.00407017  0.66101724  1
  In  In28  1  0.34837735  0.02842034  0.02408599  1
  In  In29  1  0.14031428  0.84840603  0.67202663  1
  In  In30  1  0.65921930  0.35377368  0.65713664  1
  In  In31  1  0.65746231  0.16949139  0.48575420  1
  In  In32  1  0.16267451  0.18299944  0.00454848  1
  In  In33  1  0.49016471  0.84768167  0.65376418  1
  In  In34  1  0.02331574  0.15513958  0.50001596  1
  In  In35  1  0.16756540  0.33514393  0.50907370  1
  In  In36  1  0.51067275  0.65418117  0.84794376  1
  In  In37  1  0.80712903  0.47264483  0.01355091  1
  In  In38  1  0.34601257  0.46402226  0.80954911  1
  In  In39  1  0.33423944  0.34813452  0.01459838  1
  In  In40  1  0.83017260  0.02092610  0.83438500  1
  In  In41  1  0.68980036  0.17825339  0.83666334  1
  In  In42  1  0.30873833  0.66531869  0.33826885  1
  In  In43  1  0.33414678  0.49724184  0.16624641  1
  In  In44  1  0.00714424  0.82660224  0.84395984  1
  In  In45  1  0.69351971  -0.02273602  0.30322784  1
  In  In46  1  0.68479290  -0.01969346  0.01881258  1
  In  In47  1  0.51827679  0.81935774  0.30865358  1
  In  In48  1  0.49792087  0.64612521  0.48863591  1
  In  In49  1  0.51594485  0.18377181  -0.00464323  1
  In  In50  1  0.81994872  0.16226415  0.32939817  1
  In  In51  1  0.15937595  0.64404597  0.48537651  1
  In  In52  1  0.00304549  0.35371724  0.31338755  1
  In  In53  1  0.84108533  0.66669983  0.82974221  1
  In  In54  1  0.13387387  -0.01671121  0.86449848  1
  In  In55  1  0.00256341  0.64330119  0.00367790  1
  In  In56  1  0.84109211  0.33868062  0.49340573  1
  In  In57  1  0.17027269  0.50546068  0.32556757  1
  In  In58  1  0.32465810  0.83014286  0.83275587  1
  In  In59  1  -0.03512304  -0.04237367  0.34851423  1
  In  In60  1  0.15068668  0.83438676  0.31072946  1
  In  In61  1  0.52810210  0.64271598  0.14370511  1
  In  In62  1  0.82342024  0.50254375  0.32163907  1
  In  In63  1  0.52160585  0.19094576  0.65388326  1
  In  In64  1  0.18373976  0.18571446  0.67349842  1
  In  In65  1  0.00507668  0.19797570  0.84771621  1
  In  In66  1  0.36979097  0.19898691  0.49870332  1
  In  In67  1  0.82746589  0.18814987  0.01143550  1
  In  In68  1  0.15495847  0.50740120  0.66952771  1
  In  In69  1  0.51634532  0.83977253  -0.00285283  1
  In  In70  1  0.82964002  0.67115340  0.49767411  1
  In  In71  1  0.14703322  0.65380608  0.84086142  1
  Te  Te72  1  0.07500677  0.08488953  0.08264873  1
  Te  Te73  1  0.08653965  0.05383176  0.39947765  1
  Te  Te74  1  0.08534147  0.08905821  0.75220656  1
  Te  Te75  1  0.11855677  0.45482905  0.13387568  1
  Te  Te76  1  0.07956857  0.42717063  0.42259812  1
  Te  Te77  1  0.08220572  0.41373387  0.75930855  1
  Te  Te78  1  0.06490794  0.73453460  0.10368476  1
  Te  Te79  1  0.07403325  0.74429811  0.40772200  1
  Te  Te80  1  0.06475186  0.73262328  0.73832061  1
  Te  Te81  1  0.42089184  0.13715837  0.11403984  1
  Te  Te82  1  0.44516095  0.10634412  0.41124781  1
  Te  Te83  1  0.41766551  0.10499624  0.75740786  1
  Te  Te84  1  0.43787018  0.41582375  0.09890269  1
  Te  Te85  1  0.41930526  0.40952435  0.41929278  1
  Te  Te86  1  0.44243859  0.39905024  0.71825385  1
  Te  Te87  1  0.41816496  0.75180798  0.08555356  1
  Te  Te88  1  0.41251889  0.75929511  0.41166651  1
  Te  Te89  1  0.42869008  0.74408190  0.74821468  1
  Te  Te90  1  0.76568634  0.07921459  0.10256785  1
  Te  Te91  1  0.74934827  0.06415653  0.41970661  1
  Te  Te92  1  0.73631472  0.07953414  0.72897134  1
  Te  Te93  1  0.70103374  0.43250579  0.11211215  1
  Te  Te94  1  0.73650685  0.41453905  0.41591827  1
  Te  Te95  1  0.75754341  0.40975122  0.76114979  1
  Te  Te96  1  0.75702713  0.78974667  0.08391985  1
  Te  Te97  1  0.74697097  0.73877396  0.39317295  1
  Te  Te98  1  0.76043358  0.75728267  0.73731070  1
  Te  Te99  1  0.08863294  0.27040730  0.21721410  1
  Te  Te100  1  0.06878088  0.25782709  0.60091191  1
  Te  Te101  1  0.09615246  0.28640210  0.92353182  1
  Te  Te102  1  0.06147371  0.55604671  0.23180257  1
  Te  Te103  1  0.06590979  0.59046401  0.58432095  1
  Te  Te104  1  0.08578309  0.54370218  0.92375842  1
  Te  Te105  1  0.04540922  0.90441817  0.22538184  1
  Te  Te106  1  0.04808831  0.89435975  0.55889613  1
  Te  Te107  1  0.03464568  0.92069997  0.96322571  1
  Te  Te108  1  0.45701294  0.22081051  0.24309954  1
  Te  Te109  1  0.40324057  0.28071563  0.62063317  1
  Te  Te110  1  0.42927333  0.27413153  0.90893213  1
  Te  Te111  1  0.41773327  0.60247632  0.25031329  1
  Te  Te112  1  0.44522102  0.54110641  0.58516769  1
  Te  Te113  1  0.42264428  0.55393580  0.92215535  1
  Te  Te114  1  0.41987441  0.93447914  0.24447148  1
  Te  Te115  1  0.43974548  0.94664975  0.54819128  1
  Te  Te116  1  0.42283189  0.92928540  0.91514808  1
  Te  Te117  1  0.77293217  0.26677549  0.23161238  1
  Te  Te118  1  0.75455437  0.24843648  0.58423242  1
  Te  Te119  1  0.74011555  0.27949452  0.93215454  1
  Te  Te120  1  0.72835241  0.58858010  0.24350477  1
  Te  Te121  1  0.73014224  0.57464608  0.56692122  1
  Te  Te122  1  0.75419482  0.59261108  0.92837463  1
  Te  Te123  1  0.79316611  0.88303165  0.23959793  1
  Te  Te124  1  0.79630371  0.89760614  0.57588608  1
  Te  Te125  1  0.75570902  0.90695350  0.90500150  1
  Te  Te126  1  0.25744491  0.24913340  0.09568871  1
  Te  Te127  1  0.24706460  0.24785664  0.41054196  1
  Te  Te128  1  0.23284599  0.29516635  0.76036792  1
  Te  Te129  1  0.22054283  0.56657746  0.09023414  1
  Te  Te130  1  0.27336911  0.55649362  0.43694540  1
  Te  Te131  1  0.26648309  0.59611444  0.76241384  1
  Te  Te132  1  0.24629681  0.91804224  0.08118379  1
  Te  Te133  1  0.24946445  0.90716217  0.40453688  1
  Te  Te134  1  0.24646466  0.93588007  0.74164247  1
  Te  Te135  1  0.61005889  0.27859258  0.06199246  1
  Te  Te136  1  0.56482925  0.26936302  0.42842188  1
  Te  Te137  1  0.58839742  0.26869341  0.76704367  1
  Te  Te138  1  0.59812885  0.53922393  0.05943235  1
  Te  Te139  1  0.60278658  0.58990734  0.40200615  1
  Te  Te140  1  0.57405735  0.55654738  0.74900594  1
  Te  Te141  1  0.59687340  0.89613729  0.11388272  1
  Te  Te142  1  0.59228018  0.91333304  0.40233217  1
  Te  Te143  1  0.61018449  0.91506599  0.72005618  1
  Te  Te144  1  0.93141471  0.28466583  0.06401166  1
  Te  Te145  1  0.93480396  0.24067863  0.40668996  1
  Te  Te146  1  0.91229495  0.27285661  0.76065546  1
  Te  Te147  1  0.90698822  0.56217542  0.09044879  1
  Te  Te148  1  0.91466603  0.56149970  0.43121700  1
  Te  Te149  1  0.91919882  0.58822711  0.72735310  1
  Te  Te150  1  0.83851016  0.91813994  0.09654899  1
  Te  Te151  1  0.86831296  0.87963881  0.43318200  1
  Te  Te152  1  0.91800920  0.91892625  0.75852860  1
  Te  Te153  1  0.25385207  0.10031490  0.24427895  1
  Te  Te154  1  0.25792912  0.09826464  0.56394233  1
  Te  Te155  1  0.25076836  0.07927299  0.90997063  1
  Te  Te156  1  0.25286465  0.39889837  0.25287476  1
  Te  Te157  1  0.25052148  0.42733043  0.58866044  1
  Te  Te158  1  0.25347800  0.42871511  0.91934175  1
  Te  Te159  1  0.22132125  0.72528507  0.22836344  1
  Te  Te160  1  0.23748563  0.75019192  0.59369289  1
  Te  Te161  1  0.24509674  0.73813274  0.93283687  1
  Te  Te162  1  0.59444491  0.09266844  0.26646838  1
  Te  Te163  1  0.59041873  0.08027285  0.58490675  1
  Te  Te164  1  0.59466483  0.07337664  0.92060093  1
  Te  Te165  1  0.58479196  0.41551410  0.23255791  1
  Te  Te166  1  0.56238571  0.43508370  0.58265238  1
  Te  Te167  1  0.55638987  0.44465558  0.94219772  1
  Te  Te168  1  0.60918260  0.72155300  0.24266487  1
  Te  Te169  1  0.57850449  0.74528968  0.57890526  1
  Te  Te170  1  0.60419711  0.72548840  0.94533447  1
  Te  Te171  1  0.92194025  0.07459812  0.25759767  1
  Te  Te172  1  0.90709853  0.07910671  0.56324457  1
  Te  Te173  1  0.92055778  0.09791695  0.92823106  1
  Te  Te174  1  0.89691862  0.41130247  0.22897555  1
  Te  Te175  1  0.92971925  0.40968734  0.58615668  1
  Te  Te176  1  0.91795569  0.40036639  0.94145614  1
  Te  Te177  1  0.89801473  0.75170054  0.25799563  1
  Te  Te178  1  0.89787725  0.78008625  0.57341589  1
  Te  Te179  1  0.91290866  0.74871097  0.93542639  1
