# generated using pymatgen
data_In2Te3
_symmetry_space_group_name_H-M   'P 1'
_cell_length_a   18.80390403
_cell_length_b   18.80442556
_cell_length_c   18.80332984
_cell_angle_alpha   90.01970500
_cell_angle_beta   90.00961478
_cell_angle_gamma   89.89529835
_symmetry_Int_Tables_number   1
_chemical_formula_structural   In2Te3
_chemical_formula_sum   'In72 Te108'
_cell_volume   6648.78216866
_cell_formula_units_Z   36
loop_
 _symmetry_equiv_pos_site_id
 _symmetry_equiv_pos_as_xyz
  1  'x, y, z'
loop_
 _atom_site_type_symbol
 _atom_site_label
 _atom_site_symmetry_multiplicity
 _atom_site_fract_x
 _atom_site_fract_y
 _atom_site_fract_z
 _atom_site_occupancy
  In  In0  1  0.00243491  0.82631832  0.84566021  1
  In  In1  1  0.84092355  0.83201983  0.33769091  1
  In  In2  1  0.00730955  0.80434071  0.52730370  1
  In  In3  1  0.48682902  -0.00978339  0.52258359  1
  In  In4  1  0.84552996  0.66854736  0.51724079  1
  In  In5  1  0.14061514  0.50389814  0.66854569  1
  In  In6  1  0.68164312  0.82369368  0.52766073  1
  In  In7  1  0.67662715  0.50472182  0.81455438  1
  In  In8  1  0.83816324  0.50404603  0.67379087  1
  In  In9  1  0.16287264  -0.00261812  0.49457781  1
  In  In10  1  0.49564260  0.48236073  0.34902027  1
  In  In11  1  0.83942578  0.32851680  0.17669733  1
  In  In12  1  0.66385471  0.01249311  0.32833567  1
  In  In13  1  0.15130280  0.16423165  0.68292986  1
  In  In14  1  -0.01842756  -0.00116846  0.30831865  1
  In  In15  1  0.82211794  0.68100949  0.82316892  1
  In  In16  1  0.66359146  0.68685760  -0.01583062  1
  In  In17  1  0.31749457  0.32578149  0.66740335  1
  In  In18  1  0.51055451  0.82477977  0.33286078  1
  In  In19  1  -0.01662824  0.16847407  0.50675888  1
  In  In20  1  0.83798199  -0.00363337  0.16472213  1
  In  In21  1  0.51534825  0.66282846  0.50691322  1
  In  In22  1  0.35594998  0.84290594  0.15363061  1
  In  In23  1  0.50207438  0.68339324  0.15553001  1
  In  In24  1  0.82637464  0.83267871  0.00487997  1
  In  In25  1  0.82398259  -0.01611277  0.52651934  1
  In  In26  1  0.32393402  0.18073614  0.48644736  1
  In  In27  1  0.32861118  0.49537103  0.85595821  1
  In  In28  1  0.32390574  0.01373424  -0.00946127  1
  In  In29  1  0.68204874  0.33356593  0.33630210  1
  In  In30  1  0.84222830  -0.01505114  0.82524241  1
  In  In31  1  0.34265649  -0.00582620  0.68500820  1
  In  In32  1  0.87315451  0.48050580  -0.01907539  1
  In  In33  1  0.70480717  0.53476974  0.19080978  1
  In  In34  1  0.01617868  0.32737528  0.67678154  1
  In  In35  1  0.64176185  0.15080220  0.50001154  1
  In  In36  1  0.52404500  0.50418192  0.66478076  1
  In  In37  1  0.17894250  0.66726206  0.15100532  1
  In  In38  1  0.48202170  0.31149835  0.84123543  1
  In  In39  1  0.01377303  0.47583128  0.14520702  1
  In  In40  1  0.17313395  0.17413972  0.30793914  1
  In  In41  1  0.30968676  0.48906712  0.14732145  1
  In  In42  1  0.15287496  0.83069767  -0.01540761  1
  In  In43  1  0.31878611  0.01263533  0.31903867  1
  In  In44  1  0.66178610  0.34264576  -0.00147812  1
  In  In45  1  0.82313583  0.34366611  0.50179302  1
  In  In46  1  0.48835439  0.33100103  0.16829692  1
  In  In47  1  0.32523281  0.67834732  0.68079515  1
  In  In48  1  0.82557428  0.15741658  0.65230750  1
  In  In49  1  0.16580923  0.47489894  0.31565664  1
  In  In50  1  0.49524918  0.16066219  0.67043447  1
  In  In51  1  0.66513944  0.51102212  0.49918934  1
  In  In52  1  -0.02088978  0.66453344  0.33515620  1
  In  In53  1  0.84624163  0.15411867  0.30323137  1
  In  In54  1  0.66495291  0.18093156  0.85674744  1
  In  In55  1  0.32632108  0.82868101  0.84460416  1
  In  In56  1  0.50365362  0.83304553  -0.00568905  1
  In  In57  1  0.65916972  -0.01159152  0.00181324  1
  In  In58  1  0.51396916  0.16889926  0.31062436  1
  In  In59  1  0.17389594  0.64949258  0.52939834  1
  In  In60  1  0.35661897  0.66569489  0.32889799  1
  In  In61  1  0.16705487  0.85968527  0.33766412  1
  In  In62  1  -0.00012365  0.15653433  0.83545853  1
  In  In63  1  0.00485760  0.83601865  0.18462190  1
  In  In64  1  0.16420165  0.32540040  0.82601672  1
  In  In65  1  0.84293488  0.18807865  0.00693797  1
  In  In66  1  0.33701952  0.48051830  0.48779981  1
  In  In67  1  0.48174873  0.16082588  -0.00564044  1
  In  In68  1  0.16769612  0.16884886  0.02558783  1
  In  In69  1  0.16908931  0.81593936  0.69907338  1
  In  In70  1  0.47786916  0.51758067  0.00150497  1
  In  In71  1  0.02235674  0.35371032  0.31965033  1
  Te  Te72  1  0.07098594  0.08503303  0.09828913  1
  Te  Te73  1  0.07326842  0.08508724  0.40623998  1
  Te  Te74  1  0.07360692  0.05999199  0.74993736  1
  Te  Te75  1  0.13339104  0.42373006  0.07292254  1
  Te  Te76  1  0.08305670  0.43007331  0.42991848  1
  Te  Te77  1  0.05868080  0.43498654  0.77809801  1
  Te  Te78  1  0.06813505  0.74330605  0.07972878  1
  Te  Te79  1  0.09153149  0.74828867  0.40890980  1
  Te  Te80  1  0.06810088  0.71450184  0.75497492  1
  Te  Te81  1  0.40268438  0.08501241  0.09532445  1
  Te  Te82  1  0.42557827  0.08381929  0.41805245  1
  Te  Te83  1  0.42170903  0.08415384  0.77176632  1
  Te  Te84  1  0.40340063  0.39856031  0.06001666  1
  Te  Te85  1  0.39563937  0.38428723  0.39253775  1
  Te  Te86  1  0.41272208  0.41809316  0.74359500  1
  Te  Te87  1  0.39834190  0.73308599  0.05796997  1
  Te  Te88  1  0.41824987  0.75749717  0.43337423  1
  Te  Te89  1  0.42187006  0.77129185  0.74489507  1
  Te  Te90  1  0.75063305  0.08615837  0.07720851  1
  Te  Te91  1  0.76764183  0.08752625  0.42443158  1
  Te  Te92  1  0.74747016  0.08943464  0.76415546  1
  Te  Te93  1  0.75649580  0.42496834  0.08669463  1
  Te  Te94  1  0.76370385  0.44361950  0.40259531  1
  Te  Te95  1  0.75392518  0.40291689  0.74245516  1
  Te  Te96  1  0.73866347  0.75250074  0.09250945  1
  Te  Te97  1  0.75020735  0.73964988  0.41869267  1
  Te  Te98  1  0.71642962  0.75742926  0.74675021  1
  Te  Te99  1  0.07563276  0.25354604  0.22514508  1
  Te  Te100  1  0.09559029  0.25014267  0.57012320  1
  Te  Te101  1  0.06571343  0.26053701  0.92640090  1
  Te  Te102  1  0.08557595  0.58873411  0.24440731  1
  Te  Te103  1  0.05255950  0.59892493  0.59466438  1
  Te  Te104  1  0.10967963  0.64005679  0.87970331  1
  Te  Te105  1  0.10433365  0.94507156  0.22968702  1
  Te  Te106  1  0.09337572  0.90929941  0.59673445  1
  Te  Te107  1  0.07845233  0.93484492  0.91109745  1
  Te  Te108  1  0.40154499  0.23597774  0.24167711  1
  Te  Te109  1  0.42068268  0.25698249  0.57783326  1
  Te  Te110  1  0.38388207  0.25658589  0.93492975  1
  Te  Te111  1  0.41978752  0.56617431  0.23205028  1
  Te  Te112  1  0.40329518  0.58094327  0.58224780  1
  Te  Te113  1  0.42597108  0.60113504  0.89227695  1
  Te  Te114  1  0.43186297  0.92867256  0.25383236  1
  Te  Te115  1  0.43114771  0.89307413  0.61927028  1
  Te  Te116  1  0.42251612  0.92904130  0.90822481  1
  Te  Te117  1  0.73445749  0.23244857  0.23436813  1
  Te  Te118  1  0.72992735  0.25102141  0.57830369  1
  Te  Te119  1  0.76861269  0.28026188  0.90889621  1
  Te  Te120  1  0.78502987  0.62587987  0.27126326  1
  Te  Te121  1  0.73916425  0.59554716  0.60038297  1
  Te  Te122  1  0.75510229  0.57397910  0.92779176  1
  Te  Te123  1  0.74461353  0.90911941  0.24708043  1
  Te  Te124  1  0.73943775  0.91868981  0.63226751  1
  Te  Te125  1  0.73530600  0.89987562  0.90063152  1
  Te  Te126  1  0.20812247  0.28947526  0.10632503  1
  Te  Te127  1  0.22848902  0.26395621  0.41195664  1
  Te  Te128  1  0.26423078  0.22403999  0.76641146  1
  Te  Te129  1  0.24823144  0.58332725  0.05131487  1
  Te  Te130  1  0.25000086  0.58638746  0.40457600  1
  Te  Te131  1  0.24144445  0.57683441  0.75696467  1
  Te  Te132  1  0.24633231  0.91230637  0.07726634  1
  Te  Te133  1  0.27534616  0.91576896  0.42965670  1
  Te  Te134  1  0.23590584  0.93063925  0.77380001  1
  Te  Te135  1  0.58071016  0.24468192  0.07938862  1
  Te  Te136  1  0.57534670  0.26095734  0.41700776  1
  Te  Te137  1  0.58829112  0.25674082  0.74737161  1
  Te  Te138  1  0.59327120  0.57522240  0.08351761  1
  Te  Te139  1  0.58862025  0.59339839  0.39258187  1
  Te  Te140  1  0.57705619  0.60105278  0.76110139  1
  Te  Te141  1  0.57924410  0.90787553  0.09617390  1
  Te  Te142  1  0.59723506  0.91991333  0.43094173  1
  Te  Te143  1  0.63988830  0.88499378  0.75771674  1
  Te  Te144  1  0.93613447  0.28466927  0.07234385  1
  Te  Te145  1  0.90871090  0.25471788  0.40335542  1
  Te  Te146  1  0.91049576  0.24451093  0.74654175  1
  Te  Te147  1  0.93183126  0.57714871  0.07498817  1
  Te  Te148  1  0.93042408  0.57393425  0.44017505  1
  Te  Te149  1  0.91689371  0.57765023  0.77551048  1
  Te  Te150  1  0.93175243  0.91752075  0.07575315  1
  Te  Te151  1  0.93083108  0.91299251  0.43195184  1
  Te  Te152  1  0.91337729  0.88490726  0.73920146  1
  Te  Te153  1  0.26110327  0.09807147  0.21310055  1
  Te  Te154  1  0.25561185  0.08297588  0.58455090  1
  Te  Te155  1  0.22689291  0.09362408  0.91181434  1
  Te  Te156  1  0.25521799  0.38267790  0.23817087  1
  Te  Te157  1  0.23265284  0.41691623  0.58045348  1
  Te  Te158  1  0.21910748  0.42190290  0.92805807  1
  Te  Te159  1  0.26026520  0.76180173  0.25354213  1
  Te  Te160  1  0.25305869  0.76747582  0.57807210  1
  Te  Te161  1  0.23452132  0.72628380  0.91003817  1
  Te  Te162  1  0.58829917  0.07819444  0.22124720  1
  Te  Te163  1  0.59282343  0.05828244  0.60971848  1
  Te  Te164  1  0.57235282  0.07164756  0.90689456  1
  Te  Te165  1  0.59567037  0.41984822  0.24083744  1
  Te  Te166  1  0.57494413  0.41281997  0.56212827  1
  Te  Te167  1  0.56950585  0.42327176  0.90789821  1
  Te  Te168  1  0.59859983  0.74232090  0.24906479  1
  Te  Te169  1  0.58116661  0.74909720  0.60698803  1
  Te  Te170  1  0.57471554  0.75529351  0.88822523  1
  Te  Te171  1  0.95043037  0.10753124  0.19750928  1
  Te  Te172  1  0.93375801  0.06132742  0.60211816  1
  Te  Te173  1  0.91131636  0.07398960  0.92962091  1
  Te  Te174  1  0.91234959  0.43822594  0.25313933  1
  Te  Te175  1  0.92764514  0.41435748  0.58475954  1
  Te  Te176  1  0.96999227  0.38754253  0.92053706  1
  Te  Te177  1  0.89297249  0.73413873  0.22550888  1
  Te  Te178  1  0.89608151  0.76718566  0.61894434  1
  Te  Te179  1  0.91629081  0.73418470  0.93209805  1
