# generated using pymatgen
data_In2Te3
_symmetry_space_group_name_H-M   'P 1'
_cell_length_a   19.09193841
_cell_length_b   19.05990931
_cell_length_c   19.07912904
_cell_angle_alpha   89.92711247
_cell_angle_beta   90.02898666
_cell_angle_gamma   90.20335671
_symmetry_Int_Tables_number   1
_chemical_formula_structural   In2Te3
_chemical_formula_sum   'In72 Te108'
_cell_volume   6942.66577429
_cell_formula_units_Z   36
loop_
 _symmetry_equiv_pos_site_id
 _symmetry_equiv_pos_as_xyz
  1  'x, y, z'
loop_
 _atom_site_type_symbol
 _atom_site_label
 _atom_site_symmetry_multiplicity
 _atom_site_fract_x
 _atom_site_fract_y
 _atom_site_fract_z
 _atom_site_occupancy
  In  In0  1  0.50896780  0.49020117  0.01301805  1
  In  In1  1  0.81241911  0.51255888  0.39714570  1
  In  In2  1  0.31506938  0.50993625  0.18784777  1
  In  In3  1  0.01111844  0.16529578  0.84335686  1
  In  In4  1  0.50239462  0.16649407  0.66831700  1
  In  In5  1  0.65717719  0.32978009  0.66665221  1
  In  In6  1  0.35861139  0.85106894  0.14984941  1
  In  In7  1  0.14787837  0.33390330  0.17204374  1
  In  In8  1  0.52355455  0.00445010  0.50866509  1
  In  In9  1  0.31560869  0.50401164  0.50233461  1
  In  In10  1  0.84240599  0.66508216  0.18756503  1
  In  In11  1  0.17398221  -0.00966772  0.80541788  1
  In  In12  1  0.32924343  0.83974643  0.81199313  1
  In  In13  1  -0.03414843  0.01289557  0.32513632  1
  In  In14  1  0.17354468  0.17018630  0.66417080  1
  In  In15  1  0.51983057  0.31537073  0.15537761  1
  In  In16  1  0.79171079  0.34650158  0.91267252  1
  In  In17  1  0.80414766  0.68140388  0.83249493  1
  In  In18  1  0.16414559  0.17627888  0.35595152  1
  In  In19  1  0.00382811  0.31354407  0.67237787  1
  In  In20  1  0.16584175  0.85258653  0.34194189  1
  In  In21  1  0.54490829  0.66192802  0.84067781  1
  In  In22  1  0.84297525  0.15915417  0.67919007  1
  In  In23  1  0.17900425  0.67693876  0.16816808  1
  In  In24  1  0.16766832  0.67769416  0.80421637  1
  In  In25  1  0.00553573  0.33064041  0.35341201  1
  In  In26  1  0.00248941  0.68429554  0.67470823  1
  In  In27  1  0.82813945  0.82188964  0.67102856  1
  In  In28  1  0.80867529  0.32375958  0.14628076  1
  In  In29  1  -0.00024194  0.65193242  -0.00587955  1
  In  In30  1  0.18918396  0.32669221  0.51309484  1
  In  In31  1  0.80029862  0.15941944  0.30923834  1
  In  In32  1  0.50793359  0.14662244  -0.00653096  1
  In  In33  1  0.15487559  0.66171141  0.52078710  1
  In  In34  1  0.50247671  0.48625094  0.31479055  1
  In  In35  1  -0.02752651  0.67213851  0.33929787  1
  In  In36  1  0.18499383  0.00162573  0.14293412  1
  In  In37  1  0.33267873  0.69535218  0.65304439  1
  In  In38  1  0.82465240  0.81851224  -0.00566838  1
  In  In39  1  0.50809959  0.85139932  0.67321556  1
  In  In40  1  0.36027933  0.17754687  0.16937971  1
  In  In41  1  0.82816006  -0.00393735  0.48291837  1
  In  In42  1  0.00096140  0.81610283  0.16667575  1
  In  In43  1  0.35007500  0.50125655  0.81859082  1
  In  In44  1  0.02746139  -0.02334016  -0.01337137  1
  In  In45  1  0.34831152  -0.01795239  -0.03726219  1
  In  In46  1  0.53437797  0.17081391  0.34873597  1
  In  In47  1  0.52147863  0.69273261  0.49581516  1
  In  In48  1  0.67742564  0.67260869  0.33626169  1
  In  In49  1  -0.01256711  0.32787699  0.00667824  1
  In  In50  1  0.34296161  0.16307915  0.81815311  1
  In  In51  1  -0.02255959  -0.02775202  0.65011798  1
  In  In52  1  0.64502418  0.47768374  0.82918020  1
  In  In53  1  0.71005036  0.02357618  0.18706067  1
  In  In54  1  0.66858861  0.66649279  0.01243666  1
  In  In55  1  0.67308986  0.84387482  0.49238213  1
  In  In56  1  0.15288167  0.16972726  0.00241025  1
  In  In57  1  0.80540140  0.49286147  0.63351404  1
  In  In58  1  -0.01587468  0.50153726  0.79875668  1
  In  In59  1  0.35876398  0.68900317  0.35150092  1
  In  In60  1  -0.03187230  0.48272611  0.16577954  1
  In  In61  1  0.53102365  -0.02565709  0.13769804  1
  In  In62  1  0.82897251  -0.01228684  0.86144824  1
  In  In63  1  0.48954722  0.50227041  0.67291478  1
  In  In64  1  0.15627523  0.00805175  0.52592117  1
  In  In65  1  0.33266672  0.35223929  -0.01534276  1
  In  In66  1  0.49544831  0.33436017  0.51417940  1
  In  In67  1  0.14043764  0.50643074  0.32248076  1
  In  In68  1  0.82581919  0.31861202  0.49065314  1
  In  In69  1  0.66603242  0.14841864  0.85235382  1
  In  In70  1  0.35682619  0.01737625  0.33707428  1
  In  In71  1  0.52089909  0.70781251  0.15842603  1
  Te  Te72  1  0.06979805  0.08390597  0.09224125  1
  Te  Te73  1  0.07423899  0.07290117  0.41585248  1
  Te  Te74  1  0.06214676  0.07349433  0.73673759  1
  Te  Te75  1  0.08093312  0.43084387  0.08114510  1
  Te  Te76  1  0.09240024  0.42156737  0.43590400  1
  Te  Te77  1  0.08385520  0.42101712  0.72986193  1
  Te  Te78  1  0.09061751  0.74927164  0.06659399  1
  Te  Te79  1  0.08660509  0.74537934  0.40927905  1
  Te  Te80  1  0.10819130  0.77971618  0.71510598  1
  Te  Te81  1  0.40743295  0.06450817  0.08170844  1
  Te  Te82  1  0.43021265  0.10413628  0.43504169  1
  Te  Te83  1  0.42487327  0.06275451  0.74665501  1
  Te  Te84  1  0.40530020  0.41131289  0.10475287  1
  Te  Te85  1  0.41323556  0.42389121  0.41930269  1
  Te  Te86  1  0.43031333  0.39594913  0.75358328  1
  Te  Te87  1  0.41561870  0.74667758  0.06753245  1
  Te  Te88  1  0.44018837  0.78900901  0.42052087  1
  Te  Te89  1  0.44312540  0.73282430  0.75031053  1
  Te  Te90  1  0.71925242  0.11219151  0.06688446  1
  Te  Te91  1  0.72772985  0.07611197  0.40887414  1
  Te  Te92  1  0.75288536  0.06726696  0.75825061  1
  Te  Te93  1  0.73515286  0.39054516  0.03967037  1
  Te  Te94  1  0.72049846  0.39850107  0.42708576  1
  Te  Te95  1  0.75544680  0.39922085  0.76013107  1
  Te  Te96  1  0.74969497  0.75221820  0.10774756  1
  Te  Te97  1  0.76030943  0.73524899  0.44170100  1
  Te  Te98  1  0.72454854  0.78383291  0.76791727  1
  Te  Te99  1  0.06951640  0.23532203  0.25394929  1
  Te  Te100  1  0.07891242  0.23711070  0.56754101  1
  Te  Te101  1  0.09225371  0.27272888  0.91159705  1
  Te  Te102  1  0.06174351  0.59741028  0.22988426  1
  Te  Te103  1  0.08255919  0.57676843  0.61386764  1
  Te  Te104  1  0.07808349  0.58214799  0.88714100  1
  Te  Te105  1  0.08595668  0.92571526  0.23632641  1
  Te  Te106  1  0.08761862  0.89433847  0.59190332  1
  Te  Te107  1  0.10273804  0.89758203  0.89245276  1
  Te  Te108  1  0.43412518  0.25932593  0.26802217  1
  Te  Te109  1  0.41455388  0.27637626  0.62286368  1
  Te  Te110  1  0.41798664  0.24473967  0.92225141  1
  Te  Te111  1  0.42212257  0.60442074  0.24338295  1
  Te  Te112  1  0.42283361  0.59571766  0.56770651  1
  Te  Te113  1  0.44077365  0.57986276  0.91366783  1
  Te  Te114  1  0.43983336  0.92473546  0.25282497  1
  Te  Te115  1  0.43013506  0.90347371  0.56067500  1
  Te  Te116  1  0.44092732  0.88972544  0.89783979  1
  Te  Te117  1  0.72377039  0.27107486  0.25272174  1
  Te  Te118  1  0.74736266  0.23521762  0.59087025  1
  Te  Te119  1  0.76887258  0.20196337  0.94769549  1
  Te  Te120  1  0.75641225  0.56852472  0.26143459  1
  Te  Te121  1  0.77634696  0.58907897  0.52514851  1
  Te  Te122  1  0.73264568  0.57576012  0.91204930  1
  Te  Te123  1  0.69553113  0.90063528  0.27138343  1
  Te  Te124  1  0.74998755  0.92710072  0.59233467  1
  Te  Te125  1  0.73199201  0.93340573  0.96304376  1
  Te  Te126  1  0.25013130  0.25083752  0.08736559  1
  Te  Te127  1  0.27036986  0.24479293  0.42393272  1
  Te  Te128  1  0.23856780  0.24903618  0.76705085  1
  Te  Te129  1  0.24650881  0.58108017  0.08199411  1
  Te  Te130  1  0.24801965  0.59285012  0.39338282  1
  Te  Te131  1  0.26183624  0.58674591  0.72776919  1
  Te  Te132  1  0.25299011  0.90372156  0.05386436  1
  Te  Te133  1  0.25382961  0.94458395  0.42021270  1
  Te  Te134  1  0.27868676  0.93962877  0.71748465  1
  Te  Te135  1  0.60545197  0.21822749  0.08025522  1
  Te  Te136  1  0.60144056  0.27400320  0.43068054  1
  Te  Te137  1  0.58589734  0.24509596  0.76974838  1
  Te  Te138  1  0.58718849  0.57968094  0.10525240  1
  Te  Te139  1  0.57622374  0.58434448  0.40649706  1
  Te  Te140  1  0.60694730  0.58232175  0.72779038  1
  Te  Te141  1  0.61202411  0.88753440  0.05228934  1
  Te  Te142  1  0.61946050  0.94842907  0.39696495  1
  Te  Te143  1  0.53913444  0.95506757  0.77454487  1
  Te  Te144  1  0.92625361  0.24697568  0.10994547  1
  Te  Te145  1  0.90413758  0.22797456  0.39964226  1
  Te  Te146  1  0.90935331  0.25384398  0.77558912  1
  Te  Te147  1  0.89483778  0.57853924  0.07474624  1
  Te  Te148  1  0.93936592  0.57347059  0.43987014  1
  Te  Te149  1  0.87401542  0.58845555  0.73036033  1
  Te  Te150  1  0.92340809  0.90373847  0.07241603  1
  Te  Te151  1  0.92688148  0.91019115  0.41836348  1
  Te  Te152  1  0.91436846  0.90508682  0.76938833  1
  Te  Te153  1  0.25413270  0.09060334  0.24486329  1
  Te  Te154  1  0.26351379  0.08348745  0.59060606  1
  Te  Te155  1  0.24177251  0.08372437  0.91706182  1
  Te  Te156  1  0.23970657  0.40549660  0.26766331  1
  Te  Te157  1  0.26412976  0.41395358  0.60340160  1
  Te  Te158  1  0.24905909  0.43410844  0.90158832  1
  Te  Te159  1  0.26306750  0.77385143  0.25158328  1
  Te  Te160  1  0.26090015  0.75769284  0.54387839  1
  Te  Te161  1  0.25979143  0.74337927  0.89570606  1
  Te  Te162  1  0.57659014  0.08624672  0.23294284  1
  Te  Te163  1  0.60177661  0.08801746  0.59688154  1
  Te  Te164  1  0.57021078  0.04613311  0.90517914  1
  Te  Te165  1  0.59848905  0.40874494  0.23661667  1
  Te  Te166  1  0.59005212  0.43471123  0.58269399  1
  Te  Te167  1  0.57420457  0.39350078  0.92611619  1
  Te  Te168  1  0.59718591  0.77693224  0.26465633  1
  Te  Te169  1  0.60507694  0.75969901  0.60053765  1
  Te  Te170  1  0.59410245  0.76690931  0.93364957  1
  Te  Te171  1  0.86004545  0.04609906  0.22601089  1
  Te  Te172  1  0.91719116  0.08554166  0.57205961  1
  Te  Te173  1  0.92774858  0.07832368  0.93355469  1
  Te  Te174  1  0.90801020  0.42080454  0.28487443  1
  Te  Te175  1  0.91158959  0.40057675  0.58425322  1
  Te  Te176  1  0.91900911  0.42774273  0.91789551  1
  Te  Te177  1  0.89496612  0.78197651  0.26871028  1
  Te  Te178  1  0.92114440  0.75810710  0.57985944  1
  Te  Te179  1  0.92181688  0.74575163  0.90492713  1
