# generated using pymatgen
data_In2Te3
_symmetry_space_group_name_H-M   'P 1'
_cell_length_a   18.75144274
_cell_length_b   18.75071178
_cell_length_c   18.75543567
_cell_angle_alpha   89.95570669
_cell_angle_beta   90.01342681
_cell_angle_gamma   89.99937885
_symmetry_Int_Tables_number   1
_chemical_formula_structural   In2Te3
_chemical_formula_sum   'In72 Te108'
_cell_volume   6594.46338796
_cell_formula_units_Z   36
loop_
 _symmetry_equiv_pos_site_id
 _symmetry_equiv_pos_as_xyz
  1  'x, y, z'
loop_
 _atom_site_type_symbol
 _atom_site_label
 _atom_site_symmetry_multiplicity
 _atom_site_fract_x
 _atom_site_fract_y
 _atom_site_fract_z
 _atom_site_occupancy
  In  In0  1  0.50862683  0.16312755  0.34663288  1
  In  In1  1  0.82846849  0.67179404  0.51492976  1
  In  In2  1  0.15660072  0.00637325  0.18593741  1
  In  In3  1  0.65287802  0.48590776  0.15345565  1
  In  In4  1  0.49105060  0.82907262  0.63903021  1
  In  In5  1  0.00762209  0.00207933  0.00389057  1
  In  In6  1  0.33282526  0.82395839  0.17568917  1
  In  In7  1  0.00981434  0.31313457  0.66219532  1
  In  In8  1  -0.02334994  0.51016369  0.81229149  1
  In  In9  1  -0.00250129  0.14953467  0.81979943  1
  In  In10  1  0.00592858  0.50107074  0.48469785  1
  In  In11  1  0.50233695  0.84293253  0.34107339  1
  In  In12  1  -0.00345234  0.67472761  0.00673348  1
  In  In13  1  0.35227349  0.16788410  0.83245566  1
  In  In14  1  0.82916299  0.67887547  0.17747084  1
  In  In15  1  0.84308907  0.01515326  0.16281238  1
  In  In16  1  0.51069254  0.67139379  0.83001340  1
  In  In17  1  0.18643126  0.31226267  0.82528496  1
  In  In18  1  0.84297522  0.32131709  0.17838298  1
  In  In19  1  0.32435153  0.14903882  0.51768258  1
  In  In20  1  0.51574872  0.48510613  0.00033202  1
  In  In21  1  0.18992274  0.16640013  0.01033916  1
  In  In22  1  0.33728040  0.50693745  0.50121003  1
  In  In23  1  0.49860160  0.65001990  0.16562332  1
  In  In24  1  0.84687413  0.84855143  0.34645938  1
  In  In25  1  0.32615672  0.46978613  0.82861353  1
  In  In26  1  0.31370537  0.87575224  0.80304092  1
  In  In27  1  0.68220352  0.84364287  0.16323082  1
  In  In28  1  0.67019156  0.33154163  0.35025815  1
  In  In29  1  0.83439293  0.01512395  0.80615117  1
  In  In30  1  0.00038172  0.69182316  0.65401042  1
  In  In31  1  0.00844873  0.48300867  0.14715909  1
  In  In32  1  0.18470394  0.66234345  0.18199188  1
  In  In33  1  0.81658248  0.14198744  0.35723660  1
  In  In34  1  0.33549673  0.70029954  0.35905516  1
  In  In35  1  0.35231249  0.01705846  -0.00345936  1
  In  In36  1  0.00683559  -0.01154959  0.35509547  1
  In  In37  1  0.78637018  0.52729928  -0.04266646  1
  In  In38  1  0.65817228  0.32241265  0.66028322  1
  In  In39  1  0.52068196  0.30971769  0.18787425  1
  In  In40  1  0.83218469  0.85393190  0.00366781  1
  In  In41  1  0.67181880  0.81233846  0.82086359  1
  In  In42  1  0.67888345  0.00359711  0.65775472  1
  In  In43  1  0.14691927  0.67084399  0.81204417  1
  In  In44  1  0.15828280  0.84170521  -0.00840059  1
  In  In45  1  0.62880670  0.64218055  0.36779478  1
  In  In46  1  0.83970205  0.31725659  0.83453861  1
  In  In47  1  0.50344559  0.17005604  0.66699089  1
  In  In48  1  0.66460749  0.32335139  -0.00187279  1
  In  In49  1  0.00832213  0.14994617  0.50699901  1
  In  In50  1  0.33580046  0.66876676  0.01269925  1
  In  In51  1  0.82800083  0.47717713  0.31770056  1
  In  In52  1  0.16273230  0.50274171  0.64732656  1
  In  In53  1  0.16682928  0.48951225  0.34349011  1
  In  In54  1  0.49042387  0.01811963  0.17671966  1
  In  In55  1  0.00916214  -0.00914994  0.64376543  1
  In  In56  1  0.80488491  0.50657166  0.65314755  1
  In  In57  1  0.15910431  0.18167897  0.31048349  1
  In  In58  1  0.31499738  0.69298927  0.63840346  1
  In  In59  1  0.34680978  0.49847121  0.17612217  1
  In  In60  1  0.66042884  0.83714415  0.50703663  1
  In  In61  1  0.83042249  0.32384960  0.50085951  1
  In  In62  1  0.02178628  0.69403382  0.36683642  1
  In  In63  1  0.15228526  0.45415748  -0.01153144  1
  In  In64  1  0.35360315  0.32619228  0.35555467  1
  In  In65  1  0.50307436  0.00757112  0.84101377  1
  In  In66  1  -0.01301107  0.32521217  0.01787631  1
  In  In67  1  0.00214343  0.82977321  0.82834479  1
  In  In68  1  0.34240293  0.33647101  0.66343630  1
  In  In69  1  0.50049449  0.49385610  0.67471750  1
  In  In70  1  0.65118252  0.02478605  -0.00077282  1
  In  In71  1  0.48716754  0.00175434  0.51064803  1
  Te  Te72  1  0.07901613  0.10247462  0.09390869  1
  Te  Te73  1  0.11293251  0.07953541  0.41774502  1
  Te  Te74  1  0.09460161  0.07792670  0.73277061  1
  Te  Te75  1  0.11104141  0.36380045  0.11336090  1
  Te  Te76  1  0.08840603  0.39463064  0.42580166  1
  Te  Te77  1  0.09267655  0.42199322  0.75872970  1
  Te  Te78  1  0.09032710  0.75326660  0.09647610  1
  Te  Te79  1  0.09174446  0.79765643  0.44891321  1
  Te  Te80  1  0.10507871  0.78341770  0.72082951  1
  Te  Te81  1  0.42883236  0.11249967  0.07778898  1
  Te  Te82  1  0.39833866  0.07162086  0.40821039  1
  Te  Te83  1  0.41265964  0.06704843  0.73297634  1
  Te  Te84  1  0.43328300  0.40195044  0.09666390  1
  Te  Te85  1  0.44167890  0.42635673  0.42571082  1
  Te  Te86  1  0.44052955  0.38649355  0.76982446  1
  Te  Te87  1  0.43538293  0.76231837  0.08056880  1
  Te  Te88  1  0.43667646  0.76307596  0.44721020  1
  Te  Te89  1  0.40133669  0.75306331  0.75241250  1
  Te  Te90  1  0.75312271  0.09806223  0.07946346  1
  Te  Te91  1  0.71475441  0.05110524  0.41293327  1
  Te  Te92  1  0.72413861  0.10277388  0.75986870  1
  Te  Te93  1  0.76857345  0.41854817  0.08216732  1
  Te  Te94  1  0.74556638  0.43419072  0.43803874  1
  Te  Te95  1  0.74754658  0.41244162  0.75714562  1
  Te  Te96  1  0.74563388  0.74332143  0.06622763  1
  Te  Te97  1  0.74151406  0.74584463  0.39954857  1
  Te  Te98  1  0.75738142  0.72334670  0.74132132  1
  Te  Te99  1  0.06943883  0.27075667  0.23375658  1
  Te  Te100  1  0.10534307  0.23579290  0.58294494  1
  Te  Te101  1  0.07490456  0.24975624  0.90999343  1
  Te  Te102  1  0.07370601  0.58125690  0.25200676  1
  Te  Te103  1  0.08934065  0.60490890  0.56349697  1
  Te  Te104  1  0.08548337  0.58038439  0.92317694  1
  Te  Te105  1  0.07991329  0.90298411  0.25668313  1
  Te  Te106  1  0.09917430  0.92984146  0.53749685  1
  Te  Te107  1  0.09009036  0.93690629  0.89347146  1
  Te  Te108  1  0.40640551  0.23045088  0.25046855  1
  Te  Te109  1  0.42594362  0.25460033  0.56503132  1
  Te  Te110  1  0.40479019  0.27355462  0.91865660  1
  Te  Te111  1  0.41418187  0.59045678  0.27674658  1
  Te  Te112  1  0.42325592  0.59791950  0.58853777  1
  Te  Te113  1  0.41030450  0.57263876  0.91861258  1
  Te  Te114  1  0.39961817  0.92714751  0.26552893  1
  Te  Te115  1  0.38345951  0.92008899  0.58496302  1
  Te  Te116  1  0.41528031  0.90451013  0.91424604  1
  Te  Te117  1  0.74298363  0.23661495  0.25603297  1
  Te  Te118  1  0.75126384  0.23334137  0.58443023  1
  Te  Te119  1  0.76139764  0.23419562  0.92733876  1
  Te  Te120  1  0.73469070  0.58160792  0.25129816  1
  Te  Te121  1  0.71471833  0.59714124  0.57538664  1
  Te  Te122  1  0.72722798  0.62446147  0.85973329  1
  Te  Te123  1  0.75375342  0.93584436  0.26022457  1
  Te  Te124  1  0.76493680  0.90571121  0.58683066  1
  Te  Te125  1  0.74238807  0.92994023  0.90657885  1
  Te  Te126  1  0.26214290  0.27336089  0.07738212  1
  Te  Te127  1  0.24661602  0.24420128  0.42458215  1
  Te  Te128  1  0.25263560  0.22657092  0.72219799  1
  Te  Te129  1  0.23926953  0.56090890  0.07670566  1
  Te  Te130  1  0.24008704  0.59694321  0.42436588  1
  Te  Te131  1  0.25844569  0.57955806  0.74320663  1
  Te  Te132  1  0.25610031  0.92053781  0.08033358  1
  Te  Te133  1  0.22204175  0.89336743  0.44103265  1
  Te  Te134  1  0.21954483  0.95441097  0.72291689  1
  Te  Te135  1  0.58505276  0.22901247  0.08237954  1
  Te  Te136  1  0.58584764  0.24936803  0.43964368  1
  Te  Te137  1  0.59282871  0.23662146  0.76573104  1
  Te  Te138  1  0.59939082  0.59767292  0.06293675  1
  Te  Te139  1  0.55150297  0.54117588  0.44029221  1
  Te  Te140  1  0.59823275  0.57427368  0.75874377  1
  Te  Te141  1  0.57715319  0.92346040  0.08664602  1
  Te  Te142  1  0.59863927  0.94307986  0.40898759  1
  Te  Te143  1  0.57516550  0.91267740  0.73835086  1
  Te  Te144  1  0.90657342  0.22272184  0.08714530  1
  Te  Te145  1  0.92221173  0.24109553  0.41453750  1
  Te  Te146  1  0.90236468  0.22722724  0.72726827  1
  Te  Te147  1  0.90315851  0.58057497  0.08320185  1
  Te  Te148  1  0.90529665  0.58515751  0.40412259  1
  Te  Te149  1  0.89636108  0.61113405  0.73382440  1
  Te  Te150  1  0.93593003  0.90782184  0.10069593  1
  Te  Te151  1  0.90534867  0.93485798  0.45313756  1
  Te  Te152  1  0.90963233  0.90548462  0.73381738  1
  Te  Te153  1  0.25944867  0.09271467  0.24466244  1
  Te  Te154  1  0.26818870  0.03422658  0.59484045  1
  Te  Te155  1  0.24734630  0.07747683  0.90256184  1
  Te  Te156  1  0.26074562  0.40401106  0.25950740  1
  Te  Te157  1  0.24361481  0.40386144  0.56629071  1
  Te  Te158  1  0.28174034  0.36794251  0.94634134  1
  Te  Te159  1  0.22816224  0.77433445  0.27620676  1
  Te  Te160  1  0.23683293  0.78114811  0.54939025  1
  Te  Te161  1  0.24654553  0.74472308  0.91148364  1
  Te  Te162  1  0.59693317  0.08465675  0.25618520  1
  Te  Te163  1  0.59409788  0.09440762  0.56759655  1
  Te  Te164  1  0.57099483  0.11734477  0.91285094  1
  Te  Te165  1  0.57649687  0.42611822  0.26901322  1
  Te  Te166  1  0.58128469  0.41851008  0.57418959  1
  Te  Te167  1  0.60215773  0.41819236  0.90177570  1
  Te  Te168  1  0.58727802  0.75163421  0.24799977  1
  Te  Te169  1  0.59378995  0.73305099  0.59121824  1
  Te  Te170  1  0.57548110  0.76579921  0.92326013  1
  Te  Te171  1  0.92829873  0.08852180  0.26610970  1
  Te  Te172  1  0.90294818  0.07535656  0.58123957  1
  Te  Te173  1  0.90619763  0.08334403  0.92364660  1
  Te  Te174  1  0.94665375  0.39685561  0.26505768  1
  Te  Te175  1  0.92702097  0.42590742  0.59584561  1
  Te  Te176  1  0.91391990  0.42862003  0.92470369  1
  Te  Te177  1  0.93186904  0.75824908  0.25551983  1
  Te  Te178  1  0.91995216  0.77787321  0.56201300  1
  Te  Te179  1  0.90307065  0.74964605  0.91279236  1
