# generated using pymatgen
data_In2Te3
_symmetry_space_group_name_H-M   'P 1'
_cell_length_a   18.79298980
_cell_length_b   18.77686179
_cell_length_c   18.78318391
_cell_angle_alpha   90.01378885
_cell_angle_beta   90.09212405
_cell_angle_gamma   89.95244361
_symmetry_Int_Tables_number   1
_chemical_formula_structural   In2Te3
_chemical_formula_sum   'In72 Te108'
_cell_volume   6628.07440532
_cell_formula_units_Z   36
loop_
 _symmetry_equiv_pos_site_id
 _symmetry_equiv_pos_as_xyz
  1  'x, y, z'
loop_
 _atom_site_type_symbol
 _atom_site_label
 _atom_site_symmetry_multiplicity
 _atom_site_fract_x
 _atom_site_fract_y
 _atom_site_fract_z
 _atom_site_occupancy
  In  In0  1  0.51141937  -0.00355815  0.49860895  1
  In  In1  1  0.82825736  0.15004078  0.32681575  1
  In  In2  1  0.00273481  0.17526087  0.18530431  1
  In  In3  1  0.18840653  0.84205946  0.01764946  1
  In  In4  1  0.49413034  0.84780843  0.31289350  1
  In  In5  1  0.35849026  0.19336920  0.53418666  1
  In  In6  1  0.31040125  0.48711701  0.19842179  1
  In  In7  1  0.19011860  0.67434636  0.17460060  1
  In  In8  1  0.49427364  0.45606922  0.69451869  1
  In  In9  1  0.86213773  0.85987269  0.35270275  1
  In  In10  1  0.34754100  0.66023823  0.01186012  1
  In  In11  1  0.48795022  0.88249013  0.00418420  1
  In  In12  1  0.48373872  0.49841681  0.32929827  1
  In  In13  1  0.17624223  -0.01538150  0.17516585  1
  In  In14  1  0.66832250  0.50235983  0.15395622  1
  In  In15  1  0.03164367  0.15966029  0.83411018  1
  In  In16  1  0.81877927  0.33698190  0.17361034  1
  In  In17  1  0.68347688  0.66669762  0.00774516  1
  In  In18  1  0.17961856  0.15239462  0.70411763  1
  In  In19  1  0.66239807  0.83820404  0.48012138  1
  In  In20  1  0.34363835  0.01837827  0.70295859  1
  In  In21  1  0.18295446  0.31706512  0.84485357  1
  In  In22  1  0.01057106  0.84387499  0.17013122  1
  In  In23  1  0.00494484  0.33898512  0.65986420  1
  In  In24  1  -0.01283136  0.51528174  0.83680048  1
  In  In25  1  0.81550240  0.16930963  0.00075953  1
  In  In26  1  0.17308247  0.50938441  0.65820045  1
  In  In27  1  0.79976488  0.83920561  -0.01830176  1
  In  In28  1  0.16218728  0.18740932  0.34019005  1
  In  In29  1  0.82408450  0.32562694  0.83830921  1
  In  In30  1  0.65113356  0.32139715  0.67922347  1
  In  In31  1  0.63822452  0.47371038  0.84709387  1
  In  In32  1  0.81733584  0.15189882  0.66042719  1
  In  In33  1  0.80986511  0.68559282  0.15959201  1
  In  In34  1  0.65173147  -0.00243408  0.68729517  1
  In  In35  1  0.67052622  0.85992422  0.84333841  1
  In  In36  1  0.16211761  0.66613723  0.83449145  1
  In  In37  1  -0.00104594  0.64892628  -0.02217140  1
  In  In38  1  0.51382368  0.14790814  0.29541707  1
  In  In39  1  0.81514723  0.00749290  0.17367936  1
  In  In40  1  0.66658019  0.32241340  0.34442137  1
  In  In41  1  0.03589897  0.47364037  0.15383430  1
  In  In42  1  0.48573745  0.64547374  0.48560345  1
  In  In43  1  -0.01465607  0.15761773  0.50281504  1
  In  In44  1  0.66970058  0.69053893  0.32659134  1
  In  In45  1  0.49057471  0.13232149  0.01051428  1
  In  In46  1  -0.00814804  0.01358361  -0.00377457  1
  In  In47  1  0.48001945  0.68055423  0.84075400  1
  In  In48  1  0.67397010  0.16411557  0.49100457  1
  In  In49  1  0.20628098  0.15623346  -0.00908796  1
  In  In50  1  0.00487225  0.84482648  0.80023149  1
  In  In51  1  0.15217272  -0.01119848  0.51632475  1
  In  In52  1  0.51945192  0.82820629  0.68453729  1
  In  In53  1  0.51647202  0.48741555  -0.01175074  1
  In  In54  1  0.00080954  0.50262167  0.48929212  1
  In  In55  1  0.85969258  0.50777663  0.66534095  1
  In  In56  1  0.85537092  0.83650701  0.63882566  1
  In  In57  1  0.33522559  0.00128192  0.32900110  1
  In  In58  1  0.33190577  0.33131535  0.00398637  1
  In  In59  1  0.83723007  0.48216213  0.01859895  1
  In  In60  1  0.49575695  0.30615407  0.14889470  1
  In  In61  1  0.30378052  0.67701206  0.32973014  1
  In  In62  1  0.01868029  0.67173059  0.35397995  1
  In  In63  1  0.16531731  0.33507346  0.49694226  1
  In  In64  1  0.00658356  0.32594725  0.33211241  1
  In  In65  1  0.67794187  0.64390798  0.65818291  1
  In  In66  1  0.31519865  0.83815592  0.52018943  1
  In  In67  1  0.69363677  0.48869773  0.51401001  1
  In  In68  1  0.32615910  0.49516034  0.48097325  1
  In  In69  1  0.83255182  0.66092815  0.81140379  1
  In  In70  1  0.17885456  0.01163813  0.83078679  1
  In  In71  1  0.33036597  0.67732206  0.66314549  1
  Te  Te72  1  0.08992053  0.08646714  0.08742638  1
  Te  Te73  1  0.08184024  0.08095928  0.41289882  1
  Te  Te74  1  0.06543096  0.05490056  0.72928383  1
  Te  Te75  1  0.07516960  0.38803887  0.04416525  1
  Te  Te76  1  0.10492955  0.43057146  0.39484869  1
  Te  Te77  1  0.08800089  0.41679320  0.75926017  1
  Te  Te78  1  0.08020049  0.74451926  0.07185435  1
  Te  Te79  1  0.05862698  0.78871102  0.43862198  1
  Te  Te80  1  0.10329863  0.75879369  0.73424442  1
  Te  Te81  1  0.40258192  0.05297483  0.10465589  1
  Te  Te82  1  0.41339047  0.09015736  0.42691633  1
  Te  Te83  1  0.45447084  0.10030608  0.75886069  1
  Te  Te84  1  0.42113875  0.43393269  0.09886768  1
  Te  Te85  1  0.42213535  0.40146094  0.42050915  1
  Te  Te86  1  0.39351705  0.37246361  0.76073360  1
  Te  Te87  1  0.42385974  0.76915840  0.07684576  1
  Te  Te88  1  0.41713461  0.76639976  0.42275556  1
  Te  Te89  1  0.39497127  0.77774485  0.75992332  1
  Te  Te90  1  0.72449367  0.06938667  0.07009004  1
  Te  Te91  1  0.75014924  0.06256415  0.41590484  1
  Te  Te92  1  0.72607670  0.10105016  0.76454430  1
  Te  Te93  1  0.72351787  0.39256064  0.06341233  1
  Te  Te94  1  0.76287017  0.41409045  0.40743016  1
  Te  Te95  1  0.75110720  0.43207029  0.74210027  1
  Te  Te96  1  0.71495296  0.78798964  0.09799978  1
  Te  Te97  1  0.77263899  0.75190185  0.42122518  1
  Te  Te98  1  0.73749417  0.75944016  0.74113716  1
  Te  Te99  1  0.11015547  0.27881733  0.22515152  1
  Te  Te100  1  0.09520229  0.23429909  0.59121880  1
  Te  Te101  1  0.08541404  0.25131671  0.94520790  1
  Te  Te102  1  0.08889311  0.58682214  0.24543937  1
  Te  Te103  1  0.08111390  0.59114269  0.57720286  1
  Te  Te104  1  0.10575532  0.55587807  0.92704157  1
  Te  Te105  1  0.08767451  0.91618404  0.27180962  1
  Te  Te106  1  0.04881141  0.89280563  0.57288168  1
  Te  Te107  1  0.08825509  0.91676321  0.92339113  1
  Te  Te108  1  0.40834941  0.23888604  0.24665007  1
  Te  Te109  1  0.43403123  0.27603484  0.63490251  1
  Te  Te110  1  0.44017200  0.25654861  0.93151892  1
  Te  Te111  1  0.40560053  0.59926762  0.24673653  1
  Te  Te112  1  0.42099314  0.56875138  0.59890288  1
  Te  Te113  1  0.41111517  0.56262170  0.90645579  1
  Te  Te114  1  0.42726102  0.94835925  0.22055881  1
  Te  Te115  1  0.42230844  0.92033303  0.59594837  1
  Te  Te116  1  0.37259376  0.94189947  0.92947423  1
  Te  Te117  1  0.73213339  0.23068848  0.23987283  1
  Te  Te118  1  0.75150724  0.26352259  0.57917735  1
  Te  Te119  1  0.72564975  0.23703637  0.90207766  1
  Te  Te120  1  0.75317552  0.57911884  0.25345569  1
  Te  Te121  1  0.78780311  0.60088179  0.56447628  1
  Te  Te122  1  0.75868520  0.57102030  0.91174934  1
  Te  Te123  1  0.75454078  0.90408948  0.26022869  1
  Te  Te124  1  0.73713642  0.91933619  0.58462343  1
  Te  Te125  1  0.74166712  0.96276318  0.92407872  1
  Te  Te126  1  0.26974990  0.23561767  0.09835122  1
  Te  Te127  1  0.27234867  0.25667162  0.42111298  1
  Te  Te128  1  0.28399603  0.23972289  0.76536319  1
  Te  Te129  1  0.24661185  0.56783164  0.08286370  1
  Te  Te130  1  0.23189831  0.59648141  0.42925803  1
  Te  Te131  1  0.26411058  0.57800107  0.75933221  1
  Te  Te132  1  0.28179796  0.95412364  0.06491395  1
  Te  Te133  1  0.23950346  0.91508339  0.41223753  1
  Te  Te134  1  0.23607205  0.92060026  0.72763623  1
  Te  Te135  1  0.59246133  0.21746584  0.08219644  1
  Te  Te136  1  0.56315195  0.23803429  0.41623488  1
  Te  Te137  1  0.54629069  0.23510990  0.73840194  1
  Te  Te138  1  0.57130359  0.59648235  0.08346475  1
  Te  Te139  1  0.59891932  0.57359766  0.41319069  1
  Te  Te140  1  0.57500025  0.58911086  0.75575639  1
  Te  Te141  1  0.58129664  0.96381319  0.08856196  1
  Te  Te142  1  0.59497465  0.93821594  0.38600598  1
  Te  Te143  1  0.54478377  0.93837981  0.79251049  1
  Te  Te144  1  0.91201789  0.25041521  0.08799748  1
  Te  Te145  1  0.90243461  0.25099056  0.41489014  1
  Te  Te146  1  0.92409728  0.24530357  0.74896361  1
  Te  Te147  1  0.91651130  0.58963149  0.09249981  1
  Te  Te148  1  0.91263839  0.57953817  0.39809440  1
  Te  Te149  1  0.94982347  0.61624481  0.72583443  1
  Te  Te150  1  0.90841156  0.91302288  0.07722588  1
  Te  Te151  1  0.93886763  0.92702851  0.46528855  1
  Te  Te152  1  0.88737009  0.91994485  0.75665140  1
  Te  Te153  1  0.24804887  0.09845625  0.24900732  1
  Te  Te154  1  0.25778548  0.08529710  0.57880554  1
  Te  Te155  1  0.29768618  0.07891363  0.89828722  1
  Te  Te156  1  0.21773975  0.40431243  0.27321744  1
  Te  Te157  1  0.26095667  0.40457489  0.59237484  1
  Te  Te158  1  0.25487300  0.42381186  0.91756212  1
  Te  Te159  1  0.25787152  0.78678031  0.24136622  1
  Te  Te160  1  0.22608948  0.73380327  0.57385058  1
  Te  Te161  1  0.25935563  0.74998715  0.92021878  1
  Te  Te162  1  0.59743330  0.05954028  0.21241828  1
  Te  Te163  1  0.58030094  0.09491593  0.59088657  1
  Te  Te164  1  0.54656382  0.07142401  0.88376075  1
  Te  Te165  1  0.58206057  0.41230697  0.24480136  1
  Te  Te166  1  0.57847196  0.40971957  0.57361013  1
  Te  Te167  1  0.55772356  0.36504534  0.90969550  1
  Te  Te168  1  0.56695461  0.74376157  0.23603921  1
  Te  Te169  1  0.58097542  0.73979830  0.57316625  1
  Te  Te170  1  0.58541892  0.75519084  0.92115505  1
  Te  Te171  1  0.93311714  0.06139194  0.25745992  1
  Te  Te172  1  0.90005608  0.06031970  0.57631111  1
  Te  Te173  1  0.90870664  0.09431797  0.90039645  1
  Te  Te174  1  0.92288354  0.42181428  0.24609298  1
  Te  Te175  1  0.90867937  0.40342188  0.56432973  1
  Te  Te176  1  0.92611355  0.40271557  0.92337788  1
  Te  Te177  1  0.91776047  0.74922591  0.24984524  1
  Te  Te178  1  0.94812792  0.76212676  0.54752228  1
  Te  Te179  1  0.91172350  0.75464338  0.91008231  1
