# generated using pymatgen
data_In2Te3
_symmetry_space_group_name_H-M   'P 1'
_cell_length_a   18.84573272
_cell_length_b   18.83890696
_cell_length_c   18.84138339
_cell_angle_alpha   90.07271367
_cell_angle_beta   90.00709977
_cell_angle_gamma   89.99106707
_symmetry_Int_Tables_number   1
_chemical_formula_structural   In2Te3
_chemical_formula_sum   'In72 Te108'
_cell_volume   6689.30745433
_cell_formula_units_Z   36
loop_
 _symmetry_equiv_pos_site_id
 _symmetry_equiv_pos_as_xyz
  1  'x, y, z'
loop_
 _atom_site_type_symbol
 _atom_site_label
 _atom_site_symmetry_multiplicity
 _atom_site_fract_x
 _atom_site_fract_y
 _atom_site_fract_z
 _atom_site_occupancy
  In  In0  1  0.49071199  0.18430808  0.34175130  1
  In  In1  1  0.83929822  0.35138442  0.17311180  1
  In  In2  1  0.65404972  0.52271084  0.86255293  1
  In  In3  1  0.00443993  0.50681842  0.85620423  1
  In  In4  1  0.18384562  0.51864366  0.33978922  1
  In  In5  1  0.02359164  0.49181331  0.14760185  1
  In  In6  1  0.18045106  0.81742799  0.29447918  1
  In  In7  1  0.67489527  0.31088895  0.67291501  1
  In  In8  1  0.31896148  -0.01262190  0.32226916  1
  In  In9  1  -0.00503436  0.83543207  0.48909279  1
  In  In10  1  0.17655055  -0.00561767  0.15626269  1
  In  In11  1  0.64479205  0.32553428  0.01655379  1
  In  In12  1  0.64971833  0.82245617  0.50256624  1
  In  In13  1  0.00384378  -0.01454113  0.02289973  1
  In  In14  1  0.50469609  0.84135159  0.66017831  1
  In  In15  1  0.01512236  0.02524959  0.68379806  1
  In  In16  1  0.82820750  0.15371693  0.34374583  1
  In  In17  1  0.20605008  0.83719530  0.67096072  1
  In  In18  1  0.84940249  0.34643305  0.82811768  1
  In  In19  1  0.16487404  0.35295261  0.85117296  1
  In  In20  1  0.49472851  0.50310357  -0.00645796  1
  In  In21  1  0.17547402  0.82130791  0.02065784  1
  In  In22  1  0.83085046  0.82927032  0.31112500  1
  In  In23  1  0.50433625  0.51262078  0.68893974  1
  In  In24  1  0.34843004  0.87356328  0.85197831  1
  In  In25  1  0.66538537  -0.03268113  0.00646821  1
  In  In26  1  0.62690137  0.03031023  0.66199112  1
  In  In27  1  0.48798728  0.51726842  0.31055251  1
  In  In28  1  0.64254459  0.18045995  0.16561142  1
  In  In29  1  0.17791962  -0.01262711  0.48580019  1
  In  In30  1  0.48597160  0.32845193  0.49714657  1
  In  In31  1  0.17349213  0.33647900  0.51170370  1
  In  In32  1  0.02231313  0.16239151  0.48878968  1
  In  In33  1  0.68704729  0.65312040  0.32342979  1
  In  In34  1  0.32011967  0.65436908  0.00945902  1
  In  In35  1  0.35639586  0.67570221  0.65725956  1
  In  In36  1  0.81325852  0.36377138  0.51213470  1
  In  In37  1  0.32182923  0.34070324  0.65740197  1
  In  In38  1  0.16257403  0.49101289  0.65922825  1
  In  In39  1  -0.01259811  0.66593773  0.33797175  1
  In  In40  1  -0.00287422  0.50097456  0.47928741  1
  In  In41  1  0.32779884  0.34391182  0.29308766  1
  In  In42  1  0.48719594  0.01142982  0.14303618  1
  In  In43  1  0.84927889  -0.01927034  0.15514302  1
  In  In44  1  0.49197815  0.68709122  0.14869628  1
  In  In45  1  0.79421726  0.00057754  0.83106832  1
  In  In46  1  0.33423725  0.49862758  0.83824878  1
  In  In47  1  0.33617808  0.17884156  0.49280216  1
  In  In48  1  0.65157868  0.82457334  0.84183404  1
  In  In49  1  0.82546815  0.51319096  0.66038658  1
  In  In50  1  0.37730704  0.00669708  0.69680359  1
  In  In51  1  -0.00191234  0.66815887  0.01767333  1
  In  In52  1  0.65817010  0.33357936  0.37180563  1
  In  In53  1  0.33015025  0.29948347  0.00061211  1
  In  In54  1  0.82829571  0.81348376  0.68995309  1
  In  In55  1  0.66573023  0.50787540  0.50034197  1
  In  In56  1  0.68454255  0.49320847  0.18687855  1
  In  In57  1  0.83700621  0.16529618  0.00291330  1
  In  In58  1  0.50386250  0.31852551  0.13843910  1
  In  In59  1  -0.00388802  0.83609028  0.85731741  1
  In  In60  1  0.02675721  0.15849751  0.15184109  1
  In  In61  1  0.16371852  0.15990999  0.68007205  1
  In  In62  1  -0.00436421  0.19209110  0.85035827  1
  In  In63  1  0.66794677  -0.02551213  0.34601154  1
  In  In64  1  0.65192861  0.15220917  0.83637967  1
  In  In65  1  0.83505086  -0.03314978  0.51726127  1
  In  In66  1  0.48627196  0.80972021  0.33431981  1
  In  In67  1  0.13986779  0.67192026  0.83336886  1
  In  In68  1  0.00343923  0.64720146  0.65569524  1
  In  In69  1  0.67665504  0.69688505  0.02040220  1
  In  In70  1  0.00435363  0.30413896  0.30043470  1
  In  In71  1  0.13078295  0.17770696  0.30741244  1
  Te  Te72  1  0.11429550  0.08949097  0.04913822  1
  Te  Te73  1  0.08051340  0.05922161  0.39354144  1
  Te  Te74  1  0.09626691  0.08927780  0.79697407  1
  Te  Te75  1  0.08463103  0.37899614  0.07133745  1
  Te  Te76  1  0.09066459  0.40209210  0.40074779  1
  Te  Te77  1  0.06858796  0.41462553  0.74996651  1
  Te  Te78  1  0.09465931  0.73655971  0.10810840  1
  Te  Te79  1  0.09190699  0.75370834  0.40875006  1
  Te  Te80  1  0.07443615  0.76655420  0.73231692  1
  Te  Te81  1  0.37106840  0.06077996  0.06033539  1
  Te  Te82  1  0.41087474  0.07496065  0.41156506  1
  Te  Te83  1  0.41855092  0.11610175  0.78723439  1
  Te  Te84  1  0.40627678  0.41631143  0.07974176  1
  Te  Te85  1  0.40972033  0.41840991  0.39908068  1
  Te  Te86  1  0.41959927  0.40394726  0.75628346  1
  Te  Te87  1  0.40514031  0.76695939  0.05863303  1
  Te  Te88  1  0.40248338  0.71813243  0.41103601  1
  Te  Te89  1  0.41675772  0.76759326  0.76269900  1
  Te  Te90  1  0.74276816  0.08425335  0.09072659  1
  Te  Te91  1  0.74600517  0.06680859  0.43868659  1
  Te  Te92  1  0.74996324  0.09914616  0.72712513  1
  Te  Te93  1  0.75118276  0.42055157  0.06955500  1
  Te  Te94  1  0.75997708  0.44353641  0.39499105  1
  Te  Te95  1  0.73605990  0.43120388  0.75493083  1
  Te  Te96  1  0.78482364  0.78359804  0.07164113  1
  Te  Te97  1  0.75539031  0.75167768  0.41869198  1
  Te  Te98  1  0.72819920  0.72881841  0.75695524  1
  Te  Te99  1  0.12613803  0.29389218  0.19505375  1
  Te  Te100  1  0.07766392  0.25562326  0.59767739  1
  Te  Te101  1  0.08211324  0.26917547  0.94448282  1
  Te  Te102  1  0.08715608  0.59021672  0.24779873  1
  Te  Te103  1  0.10017556  0.58518749  0.55549613  1
  Te  Te104  1  0.10593453  0.57689388  0.94490940  1
  Te  Te105  1  0.08472109  0.91442947  0.23920163  1
  Te  Te106  1  0.08131184  0.92227247  0.58667916  1
  Te  Te107  1  0.10288700  0.91732498  0.92533457  1
  Te  Te108  1  0.40886301  0.23315118  0.22450438  1
  Te  Te109  1  0.42413673  0.23391173  0.60489737  1
  Te  Te110  1  0.40906244  0.22867950  0.89785081  1
  Te  Te111  1  0.39419827  0.59270264  0.21859068  1
  Te  Te112  1  0.42365608  0.57017195  0.57977574  1
  Te  Te113  1  0.42332851  0.60203213  0.90435376  1
  Te  Te114  1  0.42058961  0.91094425  0.24035855  1
  Te  Te115  1  0.40010880  0.91409439  0.58513150  1
  Te  Te116  1  0.42841660  0.97143182  0.93464341  1
  Te  Te117  1  0.74673140  0.25329654  0.25565057  1
  Te  Te118  1  0.75684892  0.24281545  0.57140174  1
  Te  Te119  1  0.74584550  0.25223563  0.91843625  1
  Te  Te120  1  0.77873471  0.60401013  0.21653490  1
  Te  Te121  1  0.74203839  0.60406621  0.58113328  1
  Te  Te122  1  0.75128675  0.59308485  0.94625564  1
  Te  Te123  1  0.73305970  0.90910814  0.22566397  1
  Te  Te124  1  0.72848216  0.90921230  0.60959955  1
  Te  Te125  1  0.76979916  0.88686393  0.92778047  1
  Te  Te126  1  0.23899399  0.24037629  0.09873740  1
  Te  Te127  1  0.24302673  0.25312271  0.39827262  1
  Te  Te128  1  0.24635460  0.25899126  0.76111790  1
  Te  Te129  1  0.26089140  0.58072882  0.12287386  1
  Te  Te130  1  0.27852651  0.62374414  0.38893547  1
  Te  Te131  1  0.24126479  0.58470259  0.75078105  1
  Te  Te132  1  0.27735261  0.90598529  0.08938857  1
  Te  Te133  1  0.26140765  0.88367087  0.41634395  1
  Te  Te134  1  0.24863556  0.94840546  0.76123858  1
  Te  Te135  1  0.55112081  0.20615625  0.04617739  1
  Te  Te136  1  0.59198688  0.22111347  0.45079198  1
  Te  Te137  1  0.57233701  0.24722054  0.75681671  1
  Te  Te138  1  0.58425368  0.56927574  0.09799802  1
  Te  Te139  1  0.57538356  0.59267936  0.40913619  1
  Te  Te140  1  0.58908003  0.60972241  0.76124770  1
  Te  Te141  1  0.56943497  0.89799355  0.09446382  1
  Te  Te142  1  0.55604569  0.91590673  0.42837084  1
  Te  Te143  1  0.57342536  0.93134711  0.76377766  1
  Te  Te144  1  0.92317103  0.25451896  0.08882055  1
  Te  Te145  1  0.91595998  0.25567441  0.41982664  1
  Te  Te146  1  0.90769118  0.24101881  0.74442709  1
  Te  Te147  1  0.91107936  0.57446343  0.09514936  1
  Te  Te148  1  0.89612356  0.59514782  0.43036255  1
  Te  Te149  1  0.91255338  0.58921317  0.76247169  1
  Te  Te150  1  0.91628535  0.87199704  0.07447921  1
  Te  Te151  1  0.91610220  0.92585307  0.39479644  1
  Te  Te152  1  0.91467881  0.92706947  0.75037171  1
  Te  Te153  1  0.24770035  0.09735357  0.24611767  1
  Te  Te154  1  0.25120250  0.08468215  0.57984863  1
  Te  Te155  1  0.31991511  0.08790496  0.91362152  1
  Te  Te156  1  0.25333104  0.45281508  0.22096707  1
  Te  Te157  1  0.27019570  0.44483460  0.55860770  1
  Te  Te158  1  0.25564714  0.42926046  0.94598737  1
  Te  Te159  1  0.29476315  0.72302017  0.26891971  1
  Te  Te160  1  0.24223435  0.72987099  0.57978846  1
  Te  Te161  1  0.25085297  0.75449844  0.89730752  1
  Te  Te162  1  0.58210306  0.07911900  0.26262237  1
  Te  Te163  1  0.53616947  0.10874209  0.58078815  1
  Te  Te164  1  0.57689338  0.05319893  0.92056118  1
  Te  Te165  1  0.57730754  0.39330535  0.25581828  1
  Te  Te166  1  0.58124674  0.41116351  0.58479011  1
  Te  Te167  1  0.56941701  0.40154738  0.90815281  1
  Te  Te168  1  0.59329897  0.74718569  0.24640362  1
  Te  Te169  1  0.57003465  0.73149136  0.58530004  1
  Te  Te170  1  0.56650674  0.76419763  0.94711206  1
  Te  Te171  1  0.91883318  0.08936265  0.23713421  1
  Te  Te172  1  0.92458113  0.08024864  0.57328087  1
  Te  Te173  1  0.91170790  0.06239827  0.91985094  1
  Te  Te174  1  0.93080208  0.43182969  0.26182314  1
  Te  Te175  1  0.92797316  0.42246357  0.59165132  1
  Te  Te176  1  0.91921747  0.41674297  0.93539598  1
  Te  Te177  1  0.92788620  0.75217137  0.23278471  1
  Te  Te178  1  0.91212934  0.74534332  0.58103434  1
  Te  Te179  1  0.92063354  0.71896678  0.90006545  1
