# generated using pymatgen
data_In2Te3
_symmetry_space_group_name_H-M   'P 1'
_cell_length_a   18.84717990
_cell_length_b   18.87840653
_cell_length_c   18.86803714
_cell_angle_alpha   89.97094619
_cell_angle_beta   90.03916082
_cell_angle_gamma   89.93514121
_symmetry_Int_Tables_number   1
_chemical_formula_structural   In2Te3
_chemical_formula_sum   'In72 Te108'
_cell_volume   6713.33001192
_cell_formula_units_Z   36
loop_
 _symmetry_equiv_pos_site_id
 _symmetry_equiv_pos_as_xyz
  1  'x, y, z'
loop_
 _atom_site_type_symbol
 _atom_site_label
 _atom_site_symmetry_multiplicity
 _atom_site_fract_x
 _atom_site_fract_y
 _atom_site_fract_z
 _atom_site_occupancy
  In  In0  1  0.68359491  0.51971508  0.14636259  1
  In  In1  1  0.34482010  0.81643308  0.17324789  1
  In  In2  1  0.00278929  0.48994215  0.50567213  1
  In  In3  1  0.32859316  0.15253499  0.16045014  1
  In  In4  1  0.33822157  0.16982725  0.84855419  1
  In  In5  1  0.84624046  0.48232665  0.32465441  1
  In  In6  1  -0.02412871  0.51085534  0.15215876  1
  In  In7  1  0.14235047  0.46170507  0.69633859  1
  In  In8  1  0.70839568  0.52803468  0.86181934  1
  In  In9  1  0.15860973  0.52004912  0.31935273  1
  In  In10  1  0.33501652  0.16187263  0.47652080  1
  In  In11  1  0.82400064  0.15418692  0.66517311  1
  In  In12  1  0.51882944  -0.01159586  0.83595332  1
  In  In13  1  0.51733565  0.50394595  -0.00140257  1
  In  In14  1  0.66893651  0.68585469  0.65931159  1
  In  In15  1  0.17943591  0.01166229  0.82318227  1
  In  In16  1  0.32832092  0.35051909  0.34334843  1
  In  In17  1  0.48692074  0.49877616  0.67711411  1
  In  In18  1  0.16083211  0.67433936  0.49016363  1
  In  In19  1  0.15756303  0.14832957  0.69010749  1
  In  In20  1  -0.01673687  0.14440952  0.49447911  1
  In  In21  1  0.34895809  0.36674284  0.67249344  1
  In  In22  1  0.83806192  -0.00042041  0.80511752  1
  In  In23  1  0.66179818  0.84526345  0.48720083  1
  In  In24  1  0.12731747  -0.03577887  0.52498988  1
  In  In25  1  0.81885298  -0.03669157  0.17586380  1
  In  In26  1  0.12823835  0.31976680  0.19271362  1
  In  In27  1  0.14095328  0.32481052  0.83072085  1
  In  In28  1  0.16892114  0.31907752  0.48485086  1
  In  In29  1  0.83069703  0.50557287  0.67717132  1
  In  In30  1  0.66508974  0.34078057  0.68521944  1
  In  In31  1  0.17744091  0.50971357  0.00593225  1
  In  In32  1  0.34329095  0.83173295  0.49204087  1
  In  In33  1  0.65646791  0.16788007  0.15384879  1
  In  In34  1  0.32270794  0.32987247  0.00605653  1
  In  In35  1  0.84714194  0.30726242  0.11534634  1
  In  In36  1  0.80827047  0.34038466  0.93168287  1
  In  In37  1  0.34474260  0.69240256  0.67134130  1
  In  In38  1  0.68577347  0.12790550  0.48975818  1
  In  In39  1  0.83268242  0.15316561  0.34176796  1
  In  In40  1  0.33303937  -0.01427988  0.64662729  1
  In  In41  1  -0.00869432  0.67261181  0.67737832  1
  In  In42  1  0.65843836  -0.00225108  0.02022908  1
  In  In43  1  0.48662420  0.14692346  0.31588776  1
  In  In44  1  -0.01256196  0.83611173  0.85080212  1
  In  In45  1  0.81692429  0.71206622  0.50320702  1
  In  In46  1  0.67244114  0.82300108  0.82783515  1
  In  In47  1  0.15754436  0.00985330  0.16085743  1
  In  In48  1  0.36036067  0.53823609  0.18903493  1
  In  In49  1  0.50840854  0.67039391  0.82819982  1
  In  In50  1  0.82437892  0.82579425  0.01083591  1
  In  In51  1  0.02335134  0.33692028  0.69716072  1
  In  In52  1  0.49931249  -0.01165140  0.16063590  1
  In  In53  1  0.65724125  0.34334812  0.32101820  1
  In  In54  1  0.83382011  0.68510115  0.16617221  1
  In  In55  1  -0.01419384  0.01547289  -0.00099405  1
  In  In56  1  0.18808522  0.84062394  0.32451832  1
  In  In57  1  -0.01869262  -0.03409025  0.33782991  1
  In  In58  1  0.52760293  0.33321638  0.14913544  1
  In  In59  1  0.14593773  0.81037902  0.02500504  1
  In  In60  1  0.35038198  0.68909645  0.00447178  1
  In  In61  1  0.52071666  0.15923260  0.66237758  1
  In  In62  1  0.34425524  0.00655989  -0.00460871  1
  In  In63  1  0.35566991  0.51343129  0.50125465  1
  In  In64  1  0.16231482  0.64979794  0.85417089  1
  In  In65  1  0.63674645  0.54282481  0.46345745  1
  In  In66  1  0.84832642  0.31055518  0.47638584  1
  In  In67  1  0.34861425  0.48686253  0.79646559  1
  In  In68  1  0.50978004  0.83732702  0.31652934  1
  In  In69  1  0.00910008  0.15664967  0.83637958  1
  In  In70  1  -0.02350288  0.68544616  0.32813561  1
  In  In71  1  0.50130296  0.33512534  0.48748026  1
  Te  Te72  1  0.06359289  0.10570396  0.09125416  1
  Te  Te73  1  0.07903277  0.05703295  0.41444534  1
  Te  Te74  1  0.05377938  0.04938200  0.73637737  1
  Te  Te75  1  0.08263823  0.42224756  0.08756840  1
  Te  Te76  1  0.08127330  0.41512662  0.40029946  1
  Te  Te77  1  0.03414907  0.44864142  0.80864806  1
  Te  Te78  1  0.05033439  0.71288235  0.07821291  1
  Te  Te79  1  0.07699323  0.76900395  0.40682452  1
  Te  Te80  1  0.08625122  0.75003609  0.76768376  1
  Te  Te81  1  0.43935351  0.09918829  0.07369108  1
  Te  Te82  1  0.43923684  0.06756348  0.43127300  1
  Te  Te83  1  0.40761583  0.08329628  0.74581957  1
  Te  Te84  1  0.41248922  0.42722403  0.08689176  1
  Te  Te85  1  0.43990143  0.44186099  0.39602281  1
  Te  Te86  1  0.46088462  0.38324987  0.77587934  1
  Te  Te87  1  0.44572833  0.78063658  0.07063784  1
  Te  Te88  1  0.41331981  0.74519918  0.39215246  1
  Te  Te89  1  0.42661232  0.77291892  0.76242921  1
  Te  Te90  1  0.76539847  0.08026113  0.09338703  1
  Te  Te91  1  0.75601530  0.03591776  0.39461376  1
  Te  Te92  1  0.72556075  0.06961862  0.73716272  1
  Te  Te93  1  0.74861806  0.41126200  0.06273413  1
  Te  Te94  1  0.74465123  0.41697335  0.42375265  1
  Te  Te95  1  0.77121123  0.40389537  0.77500061  1
  Te  Te96  1  0.72546152  0.77282794  0.10982312  1
  Te  Te97  1  0.75148166  0.77084871  0.38027355  1
  Te  Te98  1  0.77366584  0.75474961  0.74038769  1
  Te  Te99  1  0.07162646  0.21876919  0.27995767  1
  Te  Te100  1  0.07373238  0.24518579  0.57842243  1
  Te  Te101  1  0.06299621  0.25417304  0.93717409  1
  Te  Te102  1  0.06670039  0.60588271  0.23374607  1
  Te  Te103  1  0.08879144  0.57801299  0.59442320  1
  Te  Te104  1  0.06890895  0.60949386  0.96633503  1
  Te  Te105  1  0.08009310  0.90143012  0.23465577  1
  Te  Te106  1  0.04948177  0.87338389  0.60732693  1
  Te  Te107  1  0.08981410  0.92585270  0.92544576  1
  Te  Te108  1  0.42563530  0.26954724  0.24826216  1
  Te  Te109  1  0.40932351  0.25482969  0.57939565  1
  Te  Te110  1  0.42444391  0.25736867  0.92859822  1
  Te  Te111  1  0.45582197  0.63005946  0.25208362  1
  Te  Te112  1  0.43911813  0.60962397  0.58332120  1
  Te  Te113  1  0.40461023  0.57867439  0.90785366  1
  Te  Te114  1  0.39761937  0.93135500  0.25660647  1
  Te  Te115  1  0.43513030  0.89521236  0.58978526  1
  Te  Te116  1  0.42691961  0.90987433  0.92167148  1
  Te  Te117  1  0.75275491  0.25256283  0.24626598  1
  Te  Te118  1  0.74118313  0.25187177  0.57448033  1
  Te  Te119  1  0.72679239  0.22012294  0.94926952  1
  Te  Te120  1  0.75731316  0.58705950  0.26277180  1
  Te  Te121  1  0.74910721  0.58334987  0.57267434  1
  Te  Te122  1  0.78833646  0.62335520  0.94160685  1
  Te  Te123  1  0.74173168  0.88576289  0.27515342  1
  Te  Te124  1  0.77497595  0.91575386  0.55579997  1
  Te  Te125  1  0.75487338  0.92692160  0.91941556  1
  Te  Te126  1  0.23177513  0.25088893  0.09771163  1
  Te  Te127  1  0.23907942  0.23167710  0.37965870  1
  Te  Te128  1  0.25066535  0.26207953  0.74007658  1
  Te  Te129  1  0.26068556  0.60369872  0.09374755  1
  Te  Te130  1  0.26067625  0.59215882  0.40850397  1
  Te  Te131  1  0.24710480  0.58572178  0.73808600  1
  Te  Te132  1  0.25080059  0.91500237  0.07909007  1
  Te  Te133  1  0.24558813  0.93214422  0.43065880  1
  Te  Te134  1  0.25099425  0.91222292  0.74396529  1
  Te  Te135  1  0.60982735  0.26308221  0.04492785  1
  Te  Te136  1  0.59211965  0.23772566  0.41252804  1
  Te  Te137  1  0.60478413  0.23007592  0.76049071  1
  Te  Te138  1  0.60211432  0.60850736  0.05878941  1
  Te  Te139  1  0.55910301  0.65063359  0.39799590  1
  Te  Te140  1  0.60540886  0.57389480  0.74886661  1
  Te  Te141  1  0.59447377  0.88963361  0.10102492  1
  Te  Te142  1  0.55542357  0.92921776  0.42415312  1
  Te  Te143  1  0.61165463  0.92524233  0.73938635  1
  Te  Te144  1  0.96130920  0.22946725  0.06475538  1
  Te  Te145  1  0.95534658  0.25105107  0.38041085  1
  Te  Te146  1  0.91414727  0.24169534  0.75044796  1
  Te  Te147  1  0.86820427  0.57242480  0.06710536  1
  Te  Te148  1  0.91288346  0.58354610  0.42540044  1
  Te  Te149  1  0.90253266  0.59614201  0.76725132  1
  Te  Te150  1  0.93078798  0.90502084  0.08639886  1
  Te  Te151  1  0.88305882  0.93780934  0.45049808  1
  Te  Te152  1  0.88959611  0.87459275  0.74240842  1
  Te  Te153  1  0.25822836  0.06612576  0.25466583  1
  Te  Te154  1  0.23506105  0.09026587  0.57366596  1
  Te  Te155  1  0.23534861  0.10004712  0.93430598  1
  Te  Te156  1  0.24932755  0.42769670  0.23766859  1
  Te  Te157  1  0.24513156  0.42649188  0.57084594  1
  Te  Te158  1  0.24818303  0.41925618  0.90136369  1
  Te  Te159  1  0.24410138  0.73312135  0.24094836  1
  Te  Te160  1  0.24004973  0.76231387  0.58515964  1
  Te  Te161  1  0.24603462  0.76013612  0.91921977  1
  Te  Te162  1  0.59766192  0.06736416  0.25085818  1
  Te  Te163  1  0.59197805  0.06035510  0.58064103  1
  Te  Te164  1  0.58451490  0.08458559  0.92623205  1
  Te  Te165  1  0.58225746  0.44510103  0.23761027  1
  Te  Te166  1  0.58290145  0.42660277  0.57749518  1
  Te  Te167  1  0.60329162  0.43214138  0.90310392  1
  Te  Te168  1  0.58446147  0.71887882  0.25754820  1
  Te  Te169  1  0.57513997  0.76465410  0.57865862  1
  Te  Te170  1  0.60861618  0.72660544  0.92143258  1
  Te  Te171  1  0.91243826  0.06607704  0.24567627  1
  Te  Te172  1  0.89293121  0.05487456  0.57353193  1
  Te  Te173  1  0.89098594  0.09539524  0.91133685  1
  Te  Te174  1  0.91675595  0.39224549  0.22752914  1
  Te  Te175  1  0.91258189  0.40018074  0.58771379  1
  Te  Te176  1  0.93851699  0.40558969  0.92604755  1
  Te  Te177  1  0.88885066  0.78834911  0.26256142  1
  Te  Te178  1  0.94657407  0.76340144  0.56378923  1
  Te  Te179  1  0.91108964  0.73322367  0.92974799  1
