# generated using pymatgen
data_In2Te3
_symmetry_space_group_name_H-M   'P 1'
_cell_length_a   18.99532774
_cell_length_b   18.98633881
_cell_length_c   18.97611518
_cell_angle_alpha   90.03578519
_cell_angle_beta   89.86541484
_cell_angle_gamma   90.00642813
_symmetry_Int_Tables_number   1
_chemical_formula_structural   In2Te3
_chemical_formula_sum   'In72 Te108'
_cell_volume   6843.74847946
_cell_formula_units_Z   36
loop_
 _symmetry_equiv_pos_site_id
 _symmetry_equiv_pos_as_xyz
  1  'x, y, z'
loop_
 _atom_site_type_symbol
 _atom_site_label
 _atom_site_symmetry_multiplicity
 _atom_site_fract_x
 _atom_site_fract_y
 _atom_site_fract_z
 _atom_site_occupancy
  In  In0  1  0.31635335  0.15557364  0.50902938  1
  In  In1  1  0.16973179  0.01361139  0.84006470  1
  In  In2  1  0.68329659  0.36304698  0.34706477  1
  In  In3  1  0.84870303  0.34451212  0.16481783  1
  In  In4  1  0.49480148  0.14708925  0.00873999  1
  In  In5  1  0.51362398  0.53658579  -0.00489935  1
  In  In6  1  0.19877511  0.33922820  0.50794570  1
  In  In7  1  0.84220091  -0.02535485  0.18726674  1
  In  In8  1  0.16063432  -0.01890038  0.48483640  1
  In  In9  1  0.45397200  0.19208488  0.31550896  1
  In  In10  1  -0.00624866  0.17675491  0.51522610  1
  In  In11  1  0.68466987  0.68705223  0.02837433  1
  In  In12  1  0.82686169  -0.00355560  0.81599011  1
  In  In13  1  0.85802586  0.17322549  -0.00875604  1
  In  In14  1  0.69005367  0.64010581  0.29476168  1
  In  In15  1  0.02171170  0.00456415  0.03322736  1
  In  In16  1  0.67464329  -0.01572441  -0.00638474  1
  In  In17  1  0.63965805  0.83904581  0.84070805  1
  In  In18  1  0.82762176  0.15687642  0.32860314  1
  In  In19  1  0.47966067  0.65627004  0.50043376  1
  In  In20  1  0.66104599  0.50676420  0.81631843  1
  In  In21  1  0.32792758  0.49150443  0.15437268  1
  In  In22  1  0.16694850  0.84095630  0.68034003  1
  In  In23  1  0.49195532  0.03036935  0.82546120  1
  In  In24  1  0.84498093  0.64856251  0.49200819  1
  In  In25  1  0.14501863  0.36384452  0.81685669  1
  In  In26  1  0.48829269  0.66664516  0.83296827  1
  In  In27  1  0.66208273  0.14411990  0.15761939  1
  In  In28  1  0.31880847  0.67204898  0.01926465  1
  In  In29  1  0.29347864  0.68604096  0.29494301  1
  In  In30  1  0.00321710  0.00531667  0.66453343  1
  In  In31  1  0.68561159  0.16795798  0.48402819  1
  In  In32  1  0.83612643  0.50836204  0.00269603  1
  In  In33  1  -0.00031677  0.49849321  0.51531864  1
  In  In34  1  0.82959706  0.49575663  0.66287744  1
  In  In35  1  0.00471961  0.19428116  0.85239241  1
  In  In36  1  0.48875124  0.31264382  0.49349571  1
  In  In37  1  0.03288814  0.34065900  0.02714950  1
  In  In38  1  0.82896226  0.34586346  0.83723700  1
  In  In39  1  0.81110451  0.83020167  0.65898194  1
  In  In40  1  0.83692729  0.17263616  0.65257814  1
  In  In41  1  0.35112347  0.34669861  -0.00194791  1
  In  In42  1  0.18142063  0.18365228  0.64497850  1
  In  In43  1  0.50399480  0.65914490  0.16676089  1
  In  In44  1  0.16946045  0.35628783  0.16553920  1
  In  In45  1  0.49783983  0.84055858  0.68189636  1
  In  In46  1  0.33158631  -0.01656450  0.00193806  1
  In  In47  1  0.52210049  0.00103820  0.50730167  1
  In  In48  1  0.66090104  0.50531574  0.50895035  1
  In  In49  1  -0.01797028  -0.01002262  0.35066541  1
  In  In50  1  0.34371527  0.83615580  0.49445703  1
  In  In51  1  0.33376123  0.34665247  0.67102894  1
  In  In52  1  0.19532322  0.00709827  0.16245080  1
  In  In53  1  -0.02747775  0.65342391  0.66953148  1
  In  In54  1  0.16092294  0.49135832  0.00055103  1
  In  In55  1  0.49912254  -0.02039136  0.15306270  1
  In  In56  1  0.14337560  0.53244799  0.31694387  1
  In  In57  1  0.50839117  0.26104232  0.78864825  1
  In  In58  1  0.84241108  0.67145649  0.80935209  1
  In  In59  1  0.65905765  -0.02797301  0.31709923  1
  In  In60  1  0.48308634  0.45859773  0.33858981  1
  In  In61  1  0.01468059  0.82757738  0.86173862  1
  In  In62  1  0.66534452  0.83004412  0.49493686  1
  In  In63  1  0.00104727  0.66459081  0.03234665  1
  In  In64  1  0.00399203  0.34186677  0.32081150  1
  In  In65  1  0.48803524  0.48603644  0.64365888  1
  In  In66  1  -0.00115072  0.83833159  0.18123612  1
  In  In67  1  0.64390028  0.30812591  -0.00082747  1
  In  In68  1  0.14899749  0.70872020  0.47855084  1
  In  In69  1  0.34452699  -0.01606346  0.31800132  1
  In  In70  1  0.33899482  0.83348332  0.86227824  1
  In  In71  1  0.17633191  0.62111379  0.81576831  1
  Te  Te72  1  0.12492190  0.09866782  0.07001005  1
  Te  Te73  1  0.07687283  0.09023268  0.42257266  1
  Te  Te74  1  0.08103471  0.10673199  0.74482803  1
  Te  Te75  1  0.06530983  0.45789762  0.11524990  1
  Te  Te76  1  0.09774594  0.42005028  0.42039658  1
  Te  Te77  1  0.05724668  0.46082766  0.75492972  1
  Te  Te78  1  0.09616433  0.75790974  0.09827613  1
  Te  Te79  1  0.05574118  0.77463891  0.38177503  1
  Te  Te80  1  0.07781749  0.73790456  0.75349774  1
  Te  Te81  1  0.39890328  0.08017661  0.10210248  1
  Te  Te82  1  0.42477701  0.08469070  0.42280687  1
  Te  Te83  1  0.43863816  0.13445126  0.73630902  1
  Te  Te84  1  0.44515806  0.43069271  0.08116124  1
  Te  Te85  1  0.39299786  0.41101224  0.44301360  1
  Te  Te86  1  0.44404918  0.39888226  0.76096758  1
  Te  Te87  1  0.42689308  0.74914907  0.07960394  1
  Te  Te88  1  0.40057935  0.73513031  0.39790840  1
  Te  Te89  1  0.39568633  0.75021561  0.74778203  1
  Te  Te90  1  0.77299281  0.07516048  0.07936856  1
  Te  Te91  1  0.75199896  0.05233176  0.40727022  1
  Te  Te92  1  0.74731387  0.09996184  0.74838056  1
  Te  Te93  1  0.74904486  0.39843760  0.06489471  1
  Te  Te94  1  0.76888404  0.45201056  0.42344893  1
  Te  Te95  1  0.73137720  0.40075373  0.73592979  1
  Te  Te96  1  0.72487595  0.78770528  0.12826738  1
  Te  Te97  1  0.73835641  0.72248493  0.41474933  1
  Te  Te98  1  0.72496850  0.74746532  0.75122133  1
  Te  Te99  1  0.09086884  0.25752695  0.24009142  1
  Te  Te100  1  0.07966101  0.27791372  0.58763541  1
  Te  Te101  1  0.11483939  0.25841616  0.93101028  1
  Te  Te102  1  0.04502067  0.63961881  0.28348837  1
  Te  Te103  1  0.08330300  0.60855742  0.57730302  1
  Te  Te104  1  0.07238590  0.58481620  0.92245857  1
  Te  Te105  1  0.08372701  0.94286652  0.24921226  1
  Te  Te106  1  0.07133251  0.90103722  0.57784408  1
  Te  Te107  1  0.10745366  0.91677387  0.93880001  1
  Te  Te108  1  0.38145329  0.28507133  0.23336328  1
  Te  Te109  1  0.41126212  0.23364769  0.59791434  1
  Te  Te110  1  0.42138817  0.24079202  0.91607772  1
  Te  Te111  1  0.40519098  0.57814860  0.25311605  1
  Te  Te112  1  0.39184674  0.58802415  0.59808889  1
  Te  Te113  1  0.39418071  0.58288257  0.91620970  1
  Te  Te114  1  0.42332435  0.88945252  0.23907018  1
  Te  Te115  1  0.41627916  0.92934894  0.59012398  1
  Te  Te116  1  0.44653952  0.92173559  0.92310927  1
  Te  Te117  1  0.74793655  0.24539914  0.23490252  1
  Te  Te118  1  0.77079980  0.26240772  0.55660659  1
  Te  Te119  1  0.74883535  0.23984974  0.91123745  1
  Te  Te120  1  0.79130182  0.56027011  0.22555070  1
  Te  Te121  1  0.74385995  0.59918371  0.59648460  1
  Te  Te122  1  0.74360329  0.59200233  0.91145963  1
  Te  Te123  1  0.76150807  0.87690812  0.26428818  1
  Te  Te124  1  0.73395920  0.92589936  0.58245820  1
  Te  Te125  1  0.76306630  0.89497773  0.90926732  1
  Te  Te126  1  0.28521763  0.27285016  0.11115926  1
  Te  Te127  1  0.24549059  0.23884260  0.41324458  1
  Te  Te128  1  0.24504328  0.25925467  0.75747558  1
  Te  Te129  1  0.22404890  0.58666057  0.10086177  1
  Te  Te130  1  0.23727338  0.60464145  0.41182347  1
  Te  Te131  1  0.26382433  0.54899316  0.72364733  1
  Te  Te132  1  0.26604265  0.89028132  0.09966383  1
  Te  Te133  1  0.24557914  0.89529630  0.39495739  1
  Te  Te134  1  0.26408906  0.92321788  0.76235889  1
  Te  Te135  1  0.55958438  0.24392620  0.10717228  1
  Te  Te136  1  0.58495292  0.24762354  0.39339451  1
  Te  Te137  1  0.61739225  0.19819370  0.71279562  1
  Te  Te138  1  0.61517809  0.57442894  0.10032471  1
  Te  Te139  1  0.56753981  0.57058410  0.41011513  1
  Te  Te140  1  0.56743848  0.58731812  0.73154252  1
  Te  Te141  1  0.61636049  0.89908321  0.10082277  1
  Te  Te142  1  0.56156061  0.89614685  0.40540226  1
  Te  Te143  1  0.58947051  0.94379821  0.74431050  1
  Te  Te144  1  0.93961280  0.24232057  0.09675364  1
  Te  Te145  1  0.91523960  0.25071504  0.40772324  1
  Te  Te146  1  0.92022296  0.26233057  0.74894786  1
  Te  Te147  1  0.88416312  0.60537353  0.10762512  1
  Te  Te148  1  0.94607251  0.58355645  0.40468726  1
  Te  Te149  1  0.92722707  0.54537116  0.77458461  1
  Te  Te150  1  0.91438686  0.90511115  0.07238362  1
  Te  Te151  1  0.92179000  0.86248155  0.39428546  1
  Te  Te152  1  0.92868829  0.90101131  0.75100515  1
  Te  Te153  1  0.25782893  0.08887843  0.26789314  1
  Te  Te154  1  0.24077668  0.05409936  0.59228740  1
  Te  Te155  1  0.26917000  0.08618190  0.91768223  1
  Te  Te156  1  0.24829620  0.43341569  0.27047220  1
  Te  Te157  1  0.23250109  0.44173006  0.61414448  1
  Te  Te158  1  0.25698381  0.42261005  0.90781863  1
  Te  Te159  1  0.21869026  0.77283846  0.20293006  1
  Te  Te160  1  0.24915581  0.75706428  0.58403610  1
  Te  Te161  1  0.23500946  0.73421133  0.90842082  1
  Te  Te162  1  0.56814956  0.07845469  0.25667583  1
  Te  Te163  1  0.59240231  0.10785088  0.58593836  1
  Te  Te164  1  0.60095501  0.09012547  0.91714186  1
  Te  Te165  1  0.58961083  0.41454371  0.24905394  1
  Te  Te166  1  0.58722440  0.39115449  0.57796924  1
  Te  Te167  1  0.58567499  0.42465799  0.91909449  1
  Te  Te168  1  0.58933627  0.73835179  0.25744216  1
  Te  Te169  1  0.56813521  0.75096246  0.58213959  1
  Te  Te170  1  0.57516750  0.74020734  0.93424351  1
  Te  Te171  1  0.92890673  0.08571780  0.24214685  1
  Te  Te172  1  0.90526242  0.06332289  0.56681200  1
  Te  Te173  1  0.93355092  0.06647648  0.90569309  1
  Te  Te174  1  0.91240373  0.44061212  0.25647210  1
  Te  Te175  1  0.89701081  0.40658857  0.56788525  1
  Te  Te176  1  0.92537081  0.40439000  0.93791681  1
  Te  Te177  1  0.92770040  0.75179565  0.28251574  1
  Te  Te178  1  0.91349749  0.75670129  0.57567020  1
  Te  Te179  1  0.91206999  0.73695136  0.92624416  1
