# generated using pymatgen
data_In2Te3
_symmetry_space_group_name_H-M   'P 1'
_cell_length_a   18.76638084
_cell_length_b   18.78912592
_cell_length_c   18.77520064
_cell_angle_alpha   89.94068575
_cell_angle_beta   89.99450762
_cell_angle_gamma   89.92818364
_symmetry_Int_Tables_number   1
_chemical_formula_structural   In2Te3
_chemical_formula_sum   'In72 Te108'
_cell_volume   6620.20005326
_cell_formula_units_Z   36
loop_
 _symmetry_equiv_pos_site_id
 _symmetry_equiv_pos_as_xyz
  1  'x, y, z'
loop_
 _atom_site_type_symbol
 _atom_site_label
 _atom_site_symmetry_multiplicity
 _atom_site_fract_x
 _atom_site_fract_y
 _atom_site_fract_z
 _atom_site_occupancy
  In  In0  1  0.84319393  0.54289716  0.64880749  1
  In  In1  1  0.84271942  0.16709601  0.33590231  1
  In  In2  1  0.18004572  0.83485498  0.01889049  1
  In  In3  1  0.64294979  0.34778717  0.33621583  1
  In  In4  1  0.84346752  0.81507511  0.36312796  1
  In  In5  1  0.16216485  0.65134537  0.83553820  1
  In  In6  1  0.30072829  0.30693241  0.69102941  1
  In  In7  1  0.82607847  0.65796747  0.16235185  1
  In  In8  1  0.19723953  0.66719548  0.51566722  1
  In  In9  1  0.35227449  -0.02751693  0.64393002  1
  In  In10  1  0.02984230  0.14013323  0.48646969  1
  In  In11  1  0.81403870  0.32528131  0.50012761  1
  In  In12  1  0.49535941  0.81818911  0.35096296  1
  In  In13  1  0.46350877  0.31081983  0.19637881  1
  In  In14  1  0.81972496  0.66612040  0.50458946  1
  In  In15  1  -0.01147076  0.84362683  0.83577492  1
  In  In16  1  0.64999065  0.81140815  0.81957917  1
  In  In17  1  0.03576736  0.84958953  0.18612304  1
  In  In18  1  0.46741849  0.33051108  0.47995778  1
  In  In19  1  -0.01930611  0.65994751  0.67955264  1
  In  In20  1  0.64397145  0.86038861  0.16636252  1
  In  In21  1  0.17336092  0.00250739  0.18904743  1
  In  In22  1  0.50438432  0.50380863  0.66897151  1
  In  In23  1  0.46279676  0.63785233  0.18311674  1
  In  In24  1  0.63632148  -0.00557607  0.33778132  1
  In  In25  1  0.32979980  0.65388440  0.01407421  1
  In  In26  1  0.86028199  -0.01585312  0.82729896  1
  In  In27  1  0.67311820  0.00216521  0.02865971  1
  In  In28  1  0.67092971  0.51400716  0.48199587  1
  In  In29  1  0.02132791  0.66704098  0.33873698  1
  In  In30  1  0.66843174  0.17634931  0.82809196  1
  In  In31  1  0.81212898  0.84815074  0.68121146  1
  In  In32  1  0.32505126  0.50646239  0.83706678  1
  In  In33  1  0.32085048  0.84461941  0.17455307  1
  In  In34  1  0.01912258  0.85785039  0.50235875  1
  In  In35  1  0.03138529  0.32231122  0.02006054  1
  In  In36  1  0.49454395  0.02347265  0.16555114  1
  In  In37  1  0.64846909  0.32802058  0.67220206  1
  In  In38  1  0.87505948  0.14655966  0.66376230  1
  In  In39  1  0.49097801  0.50639296  0.00924609  1
  In  In40  1  0.83961320  0.83468329  -0.00885957  1
  In  In41  1  0.00151156  0.65348708  -0.02369858  1
  In  In42  1  0.66237257  0.00940850  0.63698614  1
  In  In43  1  0.84137649  0.33563856  0.17740238  1
  In  In44  1  0.64810559  0.33868104  0.00792693  1
  In  In45  1  0.01504700  0.33560424  0.31404343  1
  In  In46  1  0.67049066  0.66048473  0.33837337  1
  In  In47  1  0.31906256  0.32655179  -0.00065074  1
  In  In48  1  0.01582366  0.17857391  0.17363203  1
  In  In49  1  0.16774323  0.30303091  0.48252457  1
  In  In50  1  0.65580873  0.16432578  0.48646589  1
  In  In51  1  0.32895057  0.13864840  0.48044234  1
  In  In52  1  0.49894791  0.68406347  0.49489726  1
  In  In53  1  0.83225706  0.01455051  0.18082623  1
  In  In54  1  0.83682646  0.48563775  0.00764054  1
  In  In55  1  0.17920985  0.50161961  0.67614492  1
  In  In56  1  0.36675596  0.82075021  0.80577527  1
  In  In57  1  0.64228197  0.66671668  -0.01227183  1
  In  In58  1  0.81871971  0.35243915  0.84276956  1
  In  In59  1  0.20175366  0.33517081  0.18141510  1
  In  In60  1  0.64604897  0.50884735  0.83487038  1
  In  In61  1  0.19645617  0.65118228  0.18032159  1
  In  In62  1  0.33295759  0.49658373  0.47505783  1
  In  In63  1  0.00744412  0.16318692  0.84489036  1
  In  In64  1  0.48355995  -0.00488054  0.83307442  1
  In  In65  1  0.50784195  0.15560903  0.67718768  1
  In  In66  1  0.18955988  0.04368673  0.82129248  1
  In  In67  1  0.03308268  0.33592472  0.66415856  1
  In  In68  1  0.01229438  0.01728805  0.00429390  1
  In  In69  1  0.17908294  0.83428741  0.63986939  1
  In  In70  1  0.48049453  0.17399266  0.00069729  1
  In  In71  1  0.00040497  0.49112187  0.48239963  1
  Te  Te72  1  0.11083393  0.09938636  0.08292911  1
  Te  Te73  1  0.13794168  0.08184037  0.40181775  1
  Te  Te74  1  0.06442775  0.06736431  0.74668406  1
  Te  Te75  1  0.08503842  0.41052443  0.12513356  1
  Te  Te76  1  0.10857635  0.42051220  0.40193949  1
  Te  Te77  1  0.09881787  0.41731388  0.76666545  1
  Te  Te78  1  0.07543796  0.74367504  0.08109390  1
  Te  Te79  1  0.10623479  0.75714125  0.42663624  1
  Te  Te80  1  0.08573263  0.75397421  0.74567153  1
  Te  Te81  1  0.38766740  0.10241945  0.09405556  1
  Te  Te82  1  0.42068880  0.08723750  0.37231989  1
  Te  Te83  1  0.39388270  0.08171635  0.74549173  1
  Te  Te84  1  0.40727400  0.41309780  0.09265686  1
  Te  Te85  1  0.41148813  0.41875323  0.36989827  1
  Te  Te86  1  0.40136271  0.41526977  0.73965574  1
  Te  Te87  1  0.41476177  0.75181333  0.09339060  1
  Te  Te88  1  0.38493343  0.73913543  0.41177311  1
  Te  Te89  1  0.45454880  0.73760256  0.72191479  1
  Te  Te90  1  0.75219297  0.10533825  0.09703645  1
  Te  Te91  1  0.75067921  0.07175569  0.41226280  1
  Te  Te92  1  0.75824071  0.07906389  0.74995478  1
  Te  Te93  1  0.73591147  0.42105870  0.10108833  1
  Te  Te94  1  0.76293092  0.42536021  0.39848189  1
  Te  Te95  1  0.74217003  0.43119496  0.73385825  1
  Te  Te96  1  0.73831485  0.76231276  0.08065929  1
  Te  Te97  1  0.71962939  0.76393947  0.43798386  1
  Te  Te98  1  0.75497844  0.73219146  0.75086536  1
  Te  Te99  1  0.11854071  0.23337882  0.27038407  1
  Te  Te100  1  0.10524945  0.22185978  0.59669918  1
  Te  Te101  1  0.10931156  0.24602167  0.91638594  1
  Te  Te102  1  0.08700929  0.57423252  0.24583541  1
  Te  Te103  1  0.07907201  0.58173574  0.57893223  1
  Te  Te104  1  0.10844775  0.55703187  0.93795371  1
  Te  Te105  1  0.10523251  0.91962977  0.29724608  1
  Te  Te106  1  0.12153397  0.94880106  0.56302588  1
  Te  Te107  1  0.09281464  0.91881371  0.91915215  1
  Te  Te108  1  0.38781222  0.20740422  0.27679322  1
  Te  Te109  1  0.40796948  0.24535662  0.59367248  1
  Te  Te110  1  0.40203440  0.25026534  0.89958935  1
  Te  Te111  1  0.35017968  0.57442150  0.25529876  1
  Te  Te112  1  0.41344671  0.58129927  0.57393892  1
  Te  Te113  1  0.42478386  0.59842957  0.90747340  1
  Te  Te114  1  0.42775670  0.91779606  0.25683560  1
  Te  Te115  1  0.43664701  0.89700120  0.54792930  1
  Te  Te116  1  0.38751714  0.91916841  0.91541180  1
  Te  Te117  1  0.74314294  0.25310481  0.26140883  1
  Te  Te118  1  0.74256804  0.22999364  0.60000224  1
  Te  Te119  1  0.74999683  0.25077986  0.93383072  1
  Te  Te120  1  0.74639620  0.57070081  0.24970419  1
  Te  Te121  1  0.71088958  0.60639409  0.59490866  1
  Te  Te122  1  0.74984039  0.57994461  0.92118990  1
  Te  Te123  1  0.75496390  0.90688330  0.26131248  1
  Te  Te124  1  0.74998495  0.91424329  0.56566156  1
  Te  Te125  1  0.74360217  0.92231280  0.91025803  1
  Te  Te126  1  0.26978016  0.22743443  0.10182611  1
  Te  Te127  1  0.28494123  0.25994737  0.39961031  1
  Te  Te128  1  0.22385109  0.21430886  0.78296196  1
  Te  Te129  1  0.23779742  0.55605328  0.07395780  1
  Te  Te130  1  0.24049187  0.58578534  0.39856163  1
  Te  Te131  1  0.26813120  0.61030944  0.73313584  1
  Te  Te132  1  0.26472065  0.94743891  0.07489720  1
  Te  Te133  1  0.24390575  0.97042279  0.38948233  1
  Te  Te134  1  0.24932983  0.91002299  0.75460866  1
  Te  Te135  1  0.56946662  0.24780947  0.10068182  1
  Te  Te136  1  0.55680143  0.23647718  0.39666434  1
  Te  Te137  1  0.55527499  0.26475053  0.77349822  1
  Te  Te138  1  0.58471045  0.58296993  0.10108577  1
  Te  Te139  1  0.55832746  0.57633878  0.40044997  1
  Te  Te140  1  0.56747697  0.60884587  0.75442936  1
  Te  Te141  1  0.55031005  0.91779226  0.06179866  1
  Te  Te142  1  0.56752615  0.91387430  0.44289150  1
  Te  Te143  1  0.58410667  0.92670812  0.74004275  1
  Te  Te144  1  0.91441191  0.24277281  0.08018387  1
  Te  Te145  1  0.93294041  0.25738225  0.42826049  1
  Te  Te146  1  0.91450492  0.26290213  0.75413400  1
  Te  Te147  1  0.93067858  0.57456865  0.08847218  1
  Te  Te148  1  0.90729804  0.58717814  0.40753051  1
  Te  Te149  1  0.93140522  0.55297721  0.76788025  1
  Te  Te150  1  0.92255716  0.91906229  0.08729409  1
  Te  Te151  1  0.92614792  0.92778400  0.40911842  1
  Te  Te152  1  0.94196252  0.92309689  0.71258578  1
  Te  Te153  1  0.28080605  0.06591118  0.27888330  1
  Te  Te154  1  0.25299372  0.06944506  0.58802316  1
  Te  Te155  1  0.26388902  0.13510179  0.91000511  1
  Te  Te156  1  0.28926762  0.42973277  0.26062705  1
  Te  Te157  1  0.24736512  0.40683953  0.57558350  1
  Te  Te158  1  0.23449518  0.42278813  0.92005752  1
  Te  Te159  1  0.23977670  0.76280299  0.26658916  1
  Te  Te160  1  0.29130141  0.77644446  0.55872854  1
  Te  Te161  1  0.25263873  0.75030776  0.91439851  1
  Te  Te162  1  0.60600373  0.09396932  0.23399727  1
  Te  Te163  1  0.55053128  0.07672158  0.55512045  1
  Te  Te164  1  0.58480827  0.08444933  0.91796425  1
  Te  Te165  1  0.55541772  0.42016943  0.24220438  1
  Te  Te166  1  0.58258789  0.40746303  0.55948869  1
  Te  Te167  1  0.55672773  0.41038638  0.90890730  1
  Te  Te168  1  0.57783561  0.74413511  0.24135560  1
  Te  Te169  1  0.53872603  0.78803098  0.59875242  1
  Te  Te170  1  0.55516949  0.76601943  0.92290011  1
  Te  Te171  1  0.94452475  0.07774636  0.26352929  1
  Te  Te172  1  0.91581677  0.06746166  0.54737556  1
  Te  Te173  1  0.90102709  0.09013440  0.92957694  1
  Te  Te174  1  0.92184374  0.43245763  0.25394206  1
  Te  Te175  1  0.91459169  0.41199803  0.58501609  1
  Te  Te176  1  0.93553550  0.40492465  0.92514645  1
  Te  Te177  1  0.92053861  0.75357138  0.24314460  1
  Te  Te178  1  0.92278497  0.75485749  0.57453920  1
  Te  Te179  1  0.89942867  0.73321269  0.89432194  1
