# generated using pymatgen
data_In2Te3
_symmetry_space_group_name_H-M   'P 1'
_cell_length_a   18.96916087
_cell_length_b   18.94800398
_cell_length_c   18.96631083
_cell_angle_alpha   90.07546231
_cell_angle_beta   89.87382320
_cell_angle_gamma   90.08925089
_symmetry_Int_Tables_number   1
_chemical_formula_structural   In2Te3
_chemical_formula_sum   'In72 Te108'
_cell_volume   6816.98747422
_cell_formula_units_Z   36
loop_
 _symmetry_equiv_pos_site_id
 _symmetry_equiv_pos_as_xyz
  1  'x, y, z'
loop_
 _atom_site_type_symbol
 _atom_site_label
 _atom_site_symmetry_multiplicity
 _atom_site_fract_x
 _atom_site_fract_y
 _atom_site_fract_z
 _atom_site_occupancy
  In  In0  1  0.42939585  -0.01462099  0.75043888  1
  In  In1  1  0.65706873  0.18533886  0.50741892  1
  In  In2  1  0.84311675  0.33787579  0.16989984  1
  In  In3  1  0.82618522  0.79730122  0.69079941  1
  In  In4  1  0.85953169  0.81634091  -0.03833185  1
  In  In5  1  0.01347070  -0.00708361  0.00437273  1
  In  In6  1  0.83334125  0.47216911  -0.02009638  1
  In  In7  1  0.15242461  0.63401714  0.85696658  1
  In  In8  1  0.67857783  0.50504707  0.50665903  1
  In  In9  1  0.61923751  0.50609451  0.15306983  1
  In  In10  1  0.83141877  0.66626506  0.52227849  1
  In  In11  1  0.66329882  0.34298163  0.66640096  1
  In  In12  1  0.64812068  0.65440314  0.00494909  1
  In  In13  1  -0.00343201  0.78536973  0.83958504  1
  In  In14  1  0.31986809  0.00889652  0.32945394  1
  In  In15  1  0.82573335  0.50578052  0.31446889  1
  In  In16  1  0.48218352  0.02344073  0.16001938  1
  In  In17  1  0.82633883  0.64057908  0.13025326  1
  In  In18  1  0.19875055  0.81681292  0.66116574  1
  In  In19  1  0.64542998  0.15530471  0.15128246  1
  In  In20  1  0.01476997  0.36304847  0.68734041  1
  In  In21  1  0.00790444  0.65608249  0.35630255  1
  In  In22  1  0.19386105  0.31749356  0.16365859  1
  In  In23  1  0.15733877  0.15011989  0.31706852  1
  In  In24  1  0.31846139  0.65341267  0.35371188  1
  In  In25  1  0.34794580  0.81462382  0.81151068  1
  In  In26  1  0.49439678  0.36103765  0.50032398  1
  In  In27  1  0.65354872  0.01216768  0.66983584  1
  In  In28  1  0.66625109  0.81753337  0.18372795  1
  In  In29  1  0.49274097  0.82163669  -0.01394386  1
  In  In30  1  0.83877625  -0.00301407  0.48942747  1
  In  In31  1  0.32246109  0.20019354  0.49660774  1
  In  In32  1  0.02555555  0.80786843  0.18200939  1
  In  In33  1  0.17346351  0.35106101  0.84999822  1
  In  In34  1  0.48231887  -0.02781822  0.48736428  1
  In  In35  1  -0.03808271  0.00826148  0.33295738  1
  In  In36  1  0.64306263  0.35076143  0.31248719  1
  In  In37  1  0.35649462  0.83488657  0.15015372  1
  In  In38  1  0.00153602  0.18132709  0.13632892  1
  In  In39  1  0.64645547  -0.00330367  -0.00969945  1
  In  In40  1  0.83156182  0.33586181  0.83461100  1
  In  In41  1  0.14148191  0.80377388  0.35094998  1
  In  In42  1  0.18867513  0.65809013  0.17283319  1
  In  In43  1  0.82043327  0.19279847  0.36588691  1
  In  In44  1  -0.00958437  0.58442956  0.65240601  1
  In  In45  1  -0.01681105  0.18544343  0.82609866  1
  In  In46  1  0.34765682  0.32631908  0.31756366  1
  In  In47  1  0.17006537  0.80994108  0.01050198  1
  In  In48  1  0.33719663  0.50391634  0.16648665  1
  In  In49  1  0.33758772  0.49196808  0.86571583  1
  In  In50  1  0.18502555  0.02144065  0.52477055  1
  In  In51  1  0.17337178  0.19236615  0.69761911  1
  In  In52  1  0.15088764  0.37430812  0.50334587  1
  In  In53  1  0.50553273  0.18214612  -0.00940614  1
  In  In54  1  0.63944538  0.68208280  0.34199918  1
  In  In55  1  0.30379147  0.79852730  0.50163646  1
  In  In56  1  0.48083017  0.64634104  0.50139044  1
  In  In57  1  0.18287638  0.01622811  0.85535280  1
  In  In58  1  -0.01341376  0.18350601  0.49341452  1
  In  In59  1  0.21101292  0.18900647  0.01282401  1
  In  In60  1  0.84626311  0.83606685  0.31972886  1
  In  In61  1  0.66724931  0.32876325  -0.01537860  1
  In  In62  1  0.83363796  0.00760879  0.81571401  1
  In  In63  1  0.81913597  -0.00399563  0.14097271  1
  In  In64  1  0.49069756  0.81986497  0.64377424  1
  In  In65  1  0.65914698  0.84909312  0.51155307  1
  In  In66  1  0.50965341  0.33748787  0.81823812  1
  In  In67  1  0.64037368  0.64276302  0.70891511  1
  In  In68  1  0.32847639  0.33641509  0.66366096  1
  In  In69  1  0.19765875  -0.01040211  0.18085318  1
  In  In70  1  0.01374039  0.35329869  -0.00253351  1
  In  In71  1  -0.00417148  -0.00402506  0.64907750  1
  Te  Te72  1  0.10765010  0.08134779  0.08654676  1
  Te  Te73  1  0.07148503  0.07306234  0.42764381  1
  Te  Te74  1  0.07767635  0.07956540  0.75154203  1
  Te  Te75  1  0.11263614  0.41565390  0.08563617  1
  Te  Te76  1  0.09816805  0.47469804  0.41004666  1
  Te  Te77  1  0.13705094  0.43650157  0.73315604  1
  Te  Te78  1  0.04657887  0.73107034  0.05013254  1
  Te  Te79  1  0.09431385  0.71839617  0.46702497  1
  Te  Te80  1  0.10532026  0.73390383  0.74758637  1
  Te  Te81  1  0.40966544  0.08251643  0.04784123  1
  Te  Te82  1  0.40224609  0.09009566  0.42691892  1
  Te  Te83  1  0.47367478  0.12142690  0.77976906  1
  Te  Te84  1  0.40890922  0.40096374  0.08568155  1
  Te  Te85  1  0.39035958  0.42543677  0.41727064  1
  Te  Te86  1  0.41416617  0.43055348  0.74484759  1
  Te  Te87  1  0.39906128  0.73285853  0.05487237  1
  Te  Te88  1  0.41969194  0.75555232  0.41596347  1
  Te  Te89  1  0.43272041  0.72054975  0.73629710  1
  Te  Te90  1  0.74561949  0.09534903  0.05518882  1
  Te  Te91  1  0.73659074  0.08023948  0.41759855  1
  Te  Te92  1  0.74826722  0.09775830  0.73982758  1
  Te  Te93  1  0.73774888  0.42201269  0.09705401  1
  Te  Te94  1  0.74548640  0.41301120  0.40531714  1
  Te  Te95  1  0.73804387  0.42653795  0.76496186  1
  Te  Te96  1  0.76298483  0.76792184  0.07706213  1
  Te  Te97  1  0.75775451  0.75030565  0.41481200  1
  Te  Te98  1  0.71166377  0.75689021  0.77405582  1
  Te  Te99  1  0.07494342  0.25530063  0.24442360  1
  Te  Te100  1  0.08551619  0.25330327  0.59086094  1
  Te  Te101  1  0.09203952  0.23357292  0.92141613  1
  Te  Te102  1  0.07554217  0.59450231  0.24014117  1
  Te  Te103  1  0.10610220  0.58554670  0.55370834  1
  Te  Te104  1  0.05734801  0.60381524  0.96672206  1
  Te  Te105  1  0.07952087  0.93151629  0.25983172  1
  Te  Te106  1  0.10054459  0.90898734  0.58402220  1
  Te  Te107  1  0.08810059  0.90213265  0.90840396  1
  Te  Te108  1  0.40512324  0.20700903  0.25856580  1
  Te  Te109  1  0.43079563  0.25333002  0.58829333  1
  Te  Te110  1  0.42852662  0.30038290  0.93912787  1
  Te  Te111  1  0.40933819  0.60311586  0.25147979  1
  Te  Te112  1  0.36365355  0.57813052  0.55753569  1
  Te  Te113  1  0.44393659  0.58764299  0.90719889  1
  Te  Te114  1  0.42036215  0.92163846  0.25694936  1
  Te  Te115  1  0.38419312  0.90830108  0.58280218  1
  Te  Te116  1  0.42547607  0.91845646  0.89074767  1
  Te  Te117  1  0.74249753  0.24372154  0.24573898  1
  Te  Te118  1  0.75187897  0.27764595  0.56780625  1
  Te  Te119  1  0.74842599  0.23719124  0.90462292  1
  Te  Te120  1  0.72398818  0.59278855  0.23961547  1
  Te  Te121  1  0.74946964  0.58128140  0.61793727  1
  Te  Te122  1  0.74681176  0.57799549  0.92542147  1
  Te  Te123  1  0.74634921  0.92913570  0.25582062  1
  Te  Te124  1  0.76845501  0.91029298  0.59706411  1
  Te  Te125  1  0.75991909  0.92141933  0.91605653  1
  Te  Te126  1  0.31563529  0.28302587  0.07837652  1
  Te  Te127  1  0.20673225  0.25453300  0.41624160  1
  Te  Te128  1  0.27584495  0.25850627  0.78518582  1
  Te  Te129  1  0.25909551  0.58448523  0.06804284  1
  Te  Te130  1  0.20271026  0.59018354  0.42364017  1
  Te  Te131  1  0.24174694  0.55548925  0.76643242  1
  Te  Te132  1  0.26290624  0.91888927  0.06341580  1
  Te  Te133  1  0.23695128  0.91702378  0.41797088  1
  Te  Te134  1  0.25366951  0.92809416  0.75341759  1
  Te  Te135  1  0.57460801  0.27428713  0.09243021  1
  Te  Te136  1  0.56811621  0.26221857  0.41083379  1
  Te  Te137  1  0.58091808  0.23643508  0.73343956  1
  Te  Te138  1  0.53420220  0.56665487  0.04668200  1
  Te  Te139  1  0.57454988  0.56494469  0.41258817  1
  Te  Te140  1  0.56480836  0.56580193  0.81222206  1
  Te  Te141  1  0.57868708  0.91140525  0.09532367  1
  Te  Te142  1  0.58323308  0.90721600  0.40270226  1
  Te  Te143  1  0.56450503  0.91435217  0.74020924  1
  Te  Te144  1  0.90499886  0.26247851  0.05256152  1
  Te  Te145  1  0.92879881  0.28277716  0.40364541  1
  Te  Te146  1  0.90567383  0.25983997  0.72352191  1
  Te  Te147  1  0.92685616  0.55525295  0.06378908  1
  Te  Te148  1  0.90445459  0.57168569  0.42942628  1
  Te  Te149  1  0.95365602  0.57472172  0.79683339  1
  Te  Te150  1  0.93221106  0.90455123  0.09744910  1
  Te  Te151  1  0.93334771  0.89266490  0.43067156  1
  Te  Te152  1  0.93253527  0.90344327  0.75325013  1
  Te  Te153  1  0.28067929  0.11957381  0.22691043  1
  Te  Te154  1  0.26910410  0.10863090  0.61261263  1
  Te  Te155  1  0.28588777  0.09700932  0.92220988  1
  Te  Te156  1  0.24572779  0.42226144  0.26080100  1
  Te  Te157  1  0.27699385  0.43187817  0.56045825  1
  Te  Te158  1  0.23026510  0.43749470  0.95602037  1
  Te  Te159  1  0.25219944  0.77145030  0.25022530  1
  Te  Te160  1  0.28758357  0.70152646  0.61557054  1
  Te  Te161  1  0.25297771  0.73971303  0.90589629  1
  Te  Te162  1  0.56684152  0.09341763  0.25744543  1
  Te  Te163  1  0.56758682  0.07471395  0.56507984  1
  Te  Te164  1  0.57872653  0.08922371  0.89546455  1
  Te  Te165  1  0.53676960  0.42133065  0.24061808  1
  Te  Te166  1  0.57218078  0.44657778  0.59784731  1
  Te  Te167  1  0.61155447  0.42862704  0.88568082  1
  Te  Te168  1  0.55700228  0.73087799  0.23084919  1
  Te  Te169  1  0.59813404  0.72661126  0.57596446  1
  Te  Te170  1  0.60586102  0.76247623  0.91231308  1
  Te  Te171  1  0.90624098  0.09652254  0.22416997  1
  Te  Te172  1  0.90236733  0.09636356  0.58522918  1
  Te  Te173  1  0.92368846  0.07974291  0.91984780  1
  Te  Te174  1  0.92920078  0.42916350  0.24388632  1
  Te  Te175  1  0.93347523  0.45544234  0.60957177  1
  Te  Te176  1  0.95129286  0.42805729  0.88089895  1
  Te  Te177  1  0.90969691  0.72068357  0.24443263  1
  Te  Te178  1  0.93375227  0.73006615  0.61201579  1
  Te  Te179  1  0.88622491  0.68947211  0.87857243  1
