# generated using pymatgen
data_In2Te3
_symmetry_space_group_name_H-M   'P 1'
_cell_length_a   18.95993477
_cell_length_b   18.96371961
_cell_length_c   18.97437030
_cell_angle_alpha   90.19958467
_cell_angle_beta   89.91539705
_cell_angle_gamma   90.03146777
_symmetry_Int_Tables_number   1
_chemical_formula_structural   In2Te3
_chemical_formula_sum   'In72 Te108'
_cell_volume   6822.20183155
_cell_formula_units_Z   36
loop_
 _symmetry_equiv_pos_site_id
 _symmetry_equiv_pos_as_xyz
  1  'x, y, z'
loop_
 _atom_site_type_symbol
 _atom_site_label
 _atom_site_symmetry_multiplicity
 _atom_site_fract_x
 _atom_site_fract_y
 _atom_site_fract_z
 _atom_site_occupancy
  In  In0  1  -0.01361353  0.18112636  0.15648638  1
  In  In1  1  0.31364775  0.84444277  0.83392192  1
  In  In2  1  0.85128377  0.33380399  0.80951772  1
  In  In3  1  0.16578631  0.17467703  0.64475866  1
  In  In4  1  0.49165663  -0.00861025  0.50717066  1
  In  In5  1  0.81615769  0.33771485  0.16728244  1
  In  In6  1  0.02583763  0.32845739  0.34458448  1
  In  In7  1  0.83935846  0.66547653  0.83269730  1
  In  In8  1  0.22065350  0.14456069  0.40563210  1
  In  In9  1  0.69320005  0.50636954  0.83147365  1
  In  In10  1  0.66049745  0.17448658  0.79750772  1
  In  In11  1  0.85468900  0.12968337  0.35106420  1
  In  In12  1  0.66661997  0.81607480  0.49560033  1
  In  In13  1  0.46120260  0.65156874  0.86762360  1
  In  In14  1  0.00333005  0.14117159  0.82579354  1
  In  In15  1  0.33587397  0.40388578  -0.02139746  1
  In  In16  1  -0.00535248  0.67672460  0.67726833  1
  In  In17  1  0.83097790  0.68272733  0.16579937  1
  In  In18  1  0.50772101  -0.01056779  0.84675193  1
  In  In19  1  0.83245340  0.80978958  -0.00760111  1
  In  In20  1  0.34145318  0.15881031  0.85728505  1
  In  In21  1  0.66554498  0.14161960  0.17808494  1
  In  In22  1  0.66672377  -0.02695819  -0.00173136  1
  In  In23  1  0.51417807  0.80404880  0.29647650  1
  In  In24  1  0.33104054  0.47471799  0.49118144  1
  In  In25  1  0.33305865  0.81976819  0.16481050  1
  In  In26  1  0.00465375  0.52681034  0.15539458  1
  In  In27  1  0.82837296  0.67011119  0.49191176  1
  In  In28  1  0.15648661  0.68274149  0.82035124  1
  In  In29  1  0.34265550  0.33730819  0.65883792  1
  In  In30  1  -0.00617494  0.34862864  0.00074504  1
  In  In31  1  0.01918153  -0.04632416  0.41206937  1
  In  In32  1  -0.00078063  -0.01457613  0.00082706  1
  In  In33  1  0.49104878  0.51225968  0.66941550  1
  In  In34  1  0.00093237  0.67243891  0.31543630  1
  In  In35  1  -0.01607902  0.46858578  0.52598070  1
  In  In36  1  0.01228045  0.18132798  0.50727210  1
  In  In37  1  0.85275067  0.83915612  0.65357422  1
  In  In38  1  0.33323856  0.50281866  0.17946403  1
  In  In39  1  0.14009379  -0.01710674  0.20179822  1
  In  In40  1  0.67172687  0.49832386  0.48586228  1
  In  In41  1  0.49986035  0.34220578  0.49408559  1
  In  In42  1  0.66246113  0.81083915  0.84116278  1
  In  In43  1  0.17951100  0.35383108  0.82861739  1
  In  In44  1  0.32997435  0.66796176  0.32894754  1
  In  In45  1  0.01642356  0.51102497  0.82571576  1
  In  In46  1  0.67100338  -0.00467741  0.66282240  1
  In  In47  1  0.33110319  0.01963865  0.01774558  1
  In  In48  1  0.01206213  -0.01336839  0.63188226  1
  In  In49  1  0.83336090  0.17991617  0.66109759  1
  In  In50  1  0.16837686  0.66528832  0.17816649  1
  In  In51  1  0.50710112  0.82288065  0.04162928  1
  In  In52  1  0.65321550  0.52249977  0.14264926  1
  In  In53  1  0.46545521  0.15499775  0.64569632  1
  In  In54  1  0.84776915  0.49940079  0.31157749  1
  In  In55  1  0.30953302  0.69374692  0.67284494  1
  In  In56  1  0.67404971  0.01186325  0.34459138  1
  In  In57  1  0.17658594  0.35008153  0.16032804  1
  In  In58  1  0.33183832  -0.04005879  0.36239683  1
  In  In59  1  0.68349408  0.35159844  -0.02028763  1
  In  In60  1  0.16470363  0.67056468  0.50921742  1
  In  In61  1  0.14769054  0.81422841  0.00998748  1
  In  In62  1  0.66250596  0.32788496  0.33811120  1
  In  In63  1  0.66190705  0.64538818  0.64762327  1
  In  In64  1  0.29678264  -0.02117488  0.63668363  1
  In  In65  1  0.50324933  0.66059366  0.49019395  1
  In  In66  1  0.81048780  -0.01864663  0.16131950  1
  In  In67  1  0.50265487  0.18717639  0.01682759  1
  In  In68  1  0.52903613  0.35864494  0.83125141  1
  In  In69  1  0.49521141  0.31425201  0.19064560  1
  In  In70  1  0.32099723  0.18093176  0.19066802  1
  In  In71  1  0.17678202  0.16741984  -0.00715644  1
  Te  Te72  1  0.09374504  0.08883876  0.09089014  1
  Te  Te73  1  0.07841224  0.09763649  0.39999323  1
  Te  Te74  1  0.09758202  0.07170338  0.73116284  1
  Te  Te75  1  0.09479992  0.43850632  0.06843406  1
  Te  Te76  1  0.09555574  0.41166077  0.44437816  1
  Te  Te77  1  0.08004138  0.41023191  0.73927810  1
  Te  Te78  1  0.06601324  0.74241120  0.10683566  1
  Te  Te79  1  0.08907210  0.74586118  0.40752379  1
  Te  Te80  1  0.09492571  0.77612503  0.72116636  1
  Te  Te81  1  0.42467559  0.09680688  0.10848240  1
  Te  Te82  1  0.41013820  0.07247089  0.41523389  1
  Te  Te83  1  0.41011473  0.06548788  0.75663263  1
  Te  Te84  1  0.42932284  0.41291981  0.09913570  1
  Te  Te85  1  0.44802284  0.44877223  0.40552094  1
  Te  Te86  1  0.41007788  0.42575739  0.76255243  1
  Te  Te87  1  0.40507031  0.72231488  0.08084354  1
  Te  Te88  1  0.42184719  0.75919858  0.40966801  1
  Te  Te89  1  0.41575939  0.75420316  0.76578524  1
  Te  Te90  1  0.74841925  0.08219573  0.06537308  1
  Te  Te91  1  0.74999099  0.09067061  0.44381751  1
  Te  Te92  1  0.76516236  0.07494157  0.75072445  1
  Te  Te93  1  0.76392941  0.44226336  0.07264692  1
  Te  Te94  1  0.76914442  0.41137723  0.40744956  1
  Te  Te95  1  0.73533062  0.39844388  0.73917186  1
  Te  Te96  1  0.72898582  0.76240470  0.08907625  1
  Te  Te97  1  0.72755994  0.72270686  0.40064230  1
  Te  Te98  1  0.75067073  0.74820626  0.72715939  1
  Te  Te99  1  0.09641223  0.24576890  0.23788990  1
  Te  Te100  1  0.11287457  0.27988993  0.55616771  1
  Te  Te101  1  0.08395153  0.25759976  0.91477996  1
  Te  Te102  1  0.09761726  0.56204378  0.26641518  1
  Te  Te103  1  0.07196243  0.58080940  0.59038443  1
  Te  Te104  1  0.05057813  0.62847959  0.91066579  1
  Te  Te105  1  0.05224972  0.89642127  0.27889605  1
  Te  Te106  1  0.10406327  0.91948347  0.53306167  1
  Te  Te107  1  0.08809298  0.90785050  0.91568600  1
  Te  Te108  1  0.40630295  0.25104814  0.29134661  1
  Te  Te109  1  0.39276149  0.24623379  0.54942512  1
  Te  Te110  1  0.42700750  0.27018846  0.91480808  1
  Te  Te111  1  0.43033583  0.59539370  0.24650805  1
  Te  Te112  1  0.40069985  0.59502776  0.58270885  1
  Te  Te113  1  0.39153101  0.54135214  0.93428242  1
  Te  Te114  1  0.42013741  0.91281371  0.24570178  1
  Te  Te115  1  0.42035609  0.90879779  0.60442283  1
  Te  Te116  1  0.41426361  0.91523308  0.94056489  1
  Te  Te117  1  0.76408618  0.22853376  0.25827141  1
  Te  Te118  1  0.76215136  0.29648603  0.60672105  1
  Te  Te119  1  0.75321600  0.24911495  0.89262159  1
  Te  Te120  1  0.74280438  0.58472810  0.24960612  1
  Te  Te121  1  0.77011418  0.56318863  0.58381327  1
  Te  Te122  1  0.74214082  0.60696426  0.92503560  1
  Te  Te123  1  0.75789000  0.91129939  0.27753974  1
  Te  Te124  1  0.75774273  0.91926341  0.56286770  1
  Te  Te125  1  0.76064546  0.90986721  0.89896090  1
  Te  Te126  1  0.26815849  0.26027562  0.07082518  1
  Te  Te127  1  0.25869276  0.28255787  0.36890481  1
  Te  Te128  1  0.26007172  0.23662571  0.75441426  1
  Te  Te129  1  0.25300775  0.58556071  0.08886553  1
  Te  Te130  1  0.24706701  0.57781925  0.41704773  1
  Te  Te131  1  0.23966709  0.58834935  0.74390992  1
  Te  Te132  1  0.24092267  0.92451553  0.09444066  1
  Te  Te133  1  0.23605741  0.89331314  0.45234564  1
  Te  Te134  1  0.21922052  0.89346243  0.73051767  1
  Te  Te135  1  0.61205837  0.26608614  0.08618736  1
  Te  Te136  1  0.59081545  0.24405016  0.43243909  1
  Te  Te137  1  0.55567755  0.25324756  0.72430613  1
  Te  Te138  1  0.53994279  0.61907492  0.12097584  1
  Te  Te139  1  0.57571392  0.56973063  0.39944209  1
  Te  Te140  1  0.57675387  0.59636072  0.76377368  1
  Te  Te141  1  0.57954651  0.93217037  0.10642244  1
  Te  Te142  1  0.57442010  0.90020860  0.40761512  1
  Te  Te143  1  0.58508487  0.90430736  0.74892229  1
  Te  Te144  1  0.89261375  0.25429063  0.06360171  1
  Te  Te145  1  0.91398146  0.25472328  0.41575280  1
  Te  Te146  1  0.95106637  0.24758243  0.73266897  1
  Te  Te147  1  0.91315032  0.60257553  0.07319409  1
  Te  Te148  1  0.92845653  0.57113414  0.41825346  1
  Te  Te149  1  0.90556315  0.56961413  0.73675955  1
  Te  Te150  1  0.91352144  0.89645205  0.08745600  1
  Te  Te151  1  0.89707241  0.88704159  0.46349742  1
  Te  Te152  1  0.93745772  0.92087600  0.73972520  1
  Te  Te153  1  0.24954247  0.06668258  0.26712627  1
  Te  Te154  1  0.24838031  0.09082231  0.54993177  1
  Te  Te155  1  0.23592882  0.05913602  0.90453116  1
  Te  Te156  1  0.26189390  0.40434259  0.27070810  1
  Te  Te157  1  0.24610897  0.42981634  0.60169462  1
  Te  Te158  1  0.22409295  0.46983613  0.90964670  1
  Te  Te159  1  0.23568091  0.76936081  0.26790117  1
  Te  Te160  1  0.26870221  0.77233354  0.55231706  1
  Te  Te161  1  0.25288929  0.74339094  0.92692851  1
  Te  Te162  1  0.57231311  0.09613290  0.27898562  1
  Te  Te163  1  0.58646767  0.08887129  0.58021407  1
  Te  Te164  1  0.58200547  0.10219441  0.91621436  1
  Te  Te165  1  0.59358967  0.41890196  0.24101893  1
  Te  Te166  1  0.58479744  0.42614875  0.58958792  1
  Te  Te167  1  0.58381123  0.45452837  0.93357199  1
  Te  Te168  1  0.60252145  0.74026698  0.19307837  1
  Te  Te169  1  0.56932543  0.75138248  0.59339993  1
  Te  Te170  1  0.57182817  0.73501032  0.93440826  1
  Te  Te171  1  0.91965481  0.06765650  0.23049615  1
  Te  Te172  1  0.91341077  0.08690872  0.57227978  1
  Te  Te173  1  0.91899174  0.08544649  0.92954783  1
  Te  Te174  1  0.93809892  0.40153662  0.23353778  1
  Te  Te175  1  0.89840001  0.36812984  0.58859026  1
  Te  Te176  1  0.90993036  0.43263718  0.90886508  1
  Te  Te177  1  0.88991568  0.75982897  0.27692377  1
  Te  Te178  1  0.93647966  0.76422226  0.54803686  1
  Te  Te179  1  0.93689594  0.75279659  0.90210350  1
