# generated using pymatgen
data_In2Te3
_symmetry_space_group_name_H-M   'P 1'
_cell_length_a   18.96448900
_cell_length_b   18.94814961
_cell_length_c   18.94387134
_cell_angle_alpha   89.94882206
_cell_angle_beta   89.97795808
_cell_angle_gamma   89.86858660
_symmetry_Int_Tables_number   1
_chemical_formula_structural   In2Te3
_chemical_formula_sum   'In72 Te108'
_cell_volume   6807.30701868
_cell_formula_units_Z   36
loop_
 _symmetry_equiv_pos_site_id
 _symmetry_equiv_pos_as_xyz
  1  'x, y, z'
loop_
 _atom_site_type_symbol
 _atom_site_label
 _atom_site_symmetry_multiplicity
 _atom_site_fract_x
 _atom_site_fract_y
 _atom_site_fract_z
 _atom_site_occupancy
  In  In0  1  0.69071195  -0.01763403  0.70011013  1
  In  In1  1  -0.01195137  0.34831159  0.64949296  1
  In  In2  1  0.70010807  0.35484491  0.82917490  1
  In  In3  1  0.49593273  0.17177570  0.01337448  1
  In  In4  1  -0.00990667  0.67652742  0.32151268  1
  In  In5  1  0.84750337  0.81305321  0.69078874  1
  In  In6  1  0.79892161  0.46485076  0.00411955  1
  In  In7  1  0.50482241  0.35349152  0.49716968  1
  In  In8  1  0.18101640  0.13689206  0.68706828  1
  In  In9  1  0.67692809  0.61503584  0.68456134  1
  In  In10  1  0.46891836  0.66915517  0.50595868  1
  In  In11  1  0.03542889  0.02517787  0.66747512  1
  In  In12  1  0.50829459  0.49981165  0.01702196  1
  In  In13  1  0.35131054  0.66700629  0.67885934  1
  In  In14  1  0.33572884  0.67003082  0.00690922  1
  In  In15  1  0.81866608  0.48775710  0.31575485  1
  In  In16  1  -0.01413721  0.34373808  0.32198773  1
  In  In17  1  0.34779678  0.65008439  0.32988132  1
  In  In18  1  0.81671383  0.65206473  0.83771416  1
  In  In19  1  0.17773517  0.50475328  0.34722134  1
  In  In20  1  0.33699751  0.00008863  -0.05697755  1
  In  In21  1  0.17265436  0.01578883  0.15942731  1
  In  In22  1  0.81423310  0.00468301  0.47766499  1
  In  In23  1  -0.02072781  0.51278750  0.85677477  1
  In  In24  1  0.65136977  0.01561607  -0.00298770  1
  In  In25  1  0.49818991  0.32044918  0.83419916  1
  In  In26  1  0.16040392  0.17524402  0.32283388  1
  In  In27  1  0.00094263  0.20272972  0.50617006  1
  In  In28  1  -0.00714406  0.01903491  0.31955637  1
  In  In29  1  0.63822645  0.80162439  0.88060274  1
  In  In30  1  0.51449065  0.82511150  0.69260853  1
  In  In31  1  0.17951865  0.83088791  0.32800857  1
  In  In32  1  0.34443882  0.32410561  0.32586754  1
  In  In33  1  0.01265956  0.67609813  0.68309939  1
  In  In34  1  0.33988568  0.16967135  0.16758862  1
  In  In35  1  0.00386261  0.67915837  -0.00360778  1
  In  In36  1  0.17089247  0.34272711  0.48971645  1
  In  In37  1  0.03358182  0.84544559  0.83364581  1
  In  In38  1  0.64708281  0.18859359  0.51227364  1
  In  In39  1  0.16673217  0.80775775  0.01867794  1
  In  In40  1  0.01024779  0.86390319  0.49563384  1
  In  In41  1  0.66398952  0.01329050  0.30589830  1
  In  In42  1  0.49966396  0.01952965  0.51109646  1
  In  In43  1  0.51785378  0.47577967  0.30758900  1
  In  In44  1  -0.01263562  0.16493756  0.15470154  1
  In  In45  1  0.84342872  0.65387762  0.17018951  1
  In  In46  1  0.16386228  0.01442097  0.54065826  1
  In  In47  1  0.68878222  0.80705349  0.48389710  1
  In  In48  1  0.66460817  0.83350577  0.12880774  1
  In  In49  1  0.83345666  0.33863175  0.48476771  1
  In  In50  1  0.17579966  0.33568719  0.84059510  1
  In  In51  1  0.67552599  0.66407672  0.32243831  1
  In  In52  1  0.66849141  0.18299663  0.15831937  1
  In  In53  1  0.36130248  -0.00604881  0.37119188  1
  In  In54  1  0.01335793  0.16443774  0.82867589  1
  In  In55  1  0.82669311  0.13236832  0.66850251  1
  In  In56  1  -0.00239227  0.51189216  0.16712878  1
  In  In57  1  0.32103096  0.32602787  0.01461589  1
  In  In58  1  0.84340979  0.00622783  0.84541805  1
  In  In59  1  0.49139753  0.17106284  0.69037854  1
  In  In60  1  0.52446157  0.83654321  0.33496030  1
  In  In61  1  0.32726634  0.50285323  0.16505661  1
  In  In62  1  0.81433630  -0.00517702  0.15239704  1
  In  In63  1  0.16137131  0.50623065  0.67259079  1
  In  In64  1  0.35409109  0.83245257  0.17577065  1
  In  In65  1  0.31916965  0.82338670  0.53843816  1
  In  In66  1  0.66869760  0.52612444  0.49845553  1
  In  In67  1  0.85779520  0.84264021  0.00924209  1
  In  In68  1  0.32871817  0.32615811  0.65338512  1
  In  In69  1  0.33773403  0.46100385  0.83668673  1
  In  In70  1  0.32235745  -0.02000875  0.71126756  1
  In  In71  1  -0.02165193  0.35176852  -0.00099178  1
  Te  Te72  1  0.09602818  0.10540546  0.07349647  1
  Te  Te73  1  0.08399065  0.08832488  0.42680597  1
  Te  Te74  1  0.12049377  0.04710425  0.79762045  1
  Te  Te75  1  0.07575389  0.43568799  0.06965083  1
  Te  Te76  1  0.06631584  0.42600609  0.42065315  1
  Te  Te77  1  0.06864753  0.41535061  0.76524686  1
  Te  Te78  1  0.06390569  0.74960189  0.11124550  1
  Te  Te79  1  0.08401152  0.75593135  0.41784960  1
  Te  Te80  1  0.11267978  0.73296912  0.77754926  1
  Te  Te81  1  0.39561734  0.07016157  0.06568733  1
  Te  Te82  1  0.45220282  0.10562953  0.40153672  1
  Te  Te83  1  0.41952795  0.07185290  0.77340985  1
  Te  Te84  1  0.42165050  0.40277826  0.09732407  1
  Te  Te85  1  0.41056098  0.43415289  0.40738074  1
  Te  Te86  1  0.43102050  0.40899691  0.72927782  1
  Te  Te87  1  0.43757656  0.75165510  0.08206976  1
  Te  Te88  1  0.40564691  0.77596594  0.41023013  1
  Te  Te89  1  0.42094491  0.75330595  0.78199842  1
  Te  Te90  1  0.75788100  0.10002623  0.06013999  1
  Te  Te91  1  0.72820172  0.10605229  0.40713590  1
  Te  Te92  1  0.73886598  0.10985364  0.79405538  1
  Te  Te93  1  0.71314197  0.37994184  0.09468055  1
  Te  Te94  1  0.72596315  0.41382489  0.40982648  1
  Te  Te95  1  0.71110650  0.47010593  0.73083308  1
  Te  Te96  1  0.76631777  0.73863840  0.06786533  1
  Te  Te97  1  0.78069705  0.73783001  0.39402662  1
  Te  Te98  1  0.72379043  0.75294079  0.75665224  1
  Te  Te99  1  0.08000717  0.26399674  0.23416349  1
  Te  Te100  1  0.10970070  0.24962807  0.60176915  1
  Te  Te101  1  0.07957088  0.25844283  0.92631221  1
  Te  Te102  1  0.09563462  0.58989435  0.25221264  1
  Te  Te103  1  0.06635236  0.57738567  0.58795000  1
  Te  Te104  1  0.08683079  0.60447835  0.89882948  1
  Te  Te105  1  0.08865276  0.92454911  0.24897758  1
  Te  Te106  1  0.10780926  0.89105031  0.61674140  1
  Te  Te107  1  0.07185974  0.90749544  0.96057646  1
  Te  Te108  1  0.43550548  0.26179457  0.22881163  1
  Te  Te109  1  0.42631564  0.24214936  0.57441469  1
  Te  Te110  1  0.39929925  0.24212749  0.91627061  1
  Te  Te111  1  0.44017898  0.58246075  0.23017888  1
  Te  Te112  1  0.45685855  0.58089465  0.62120139  1
  Te  Te113  1  0.40990096  0.56434076  0.92064713  1
  Te  Te114  1  0.43862170  0.93281364  0.25455391  1
  Te  Te115  1  0.42844953  0.91315666  0.59781213  1
  Te  Te116  1  0.39011284  0.87382664  0.88825462  1
  Te  Te117  1  0.71920220  0.29334174  0.24350168  1
  Te  Te118  1  0.76470365  0.24582325  0.58760133  1
  Te  Te119  1  0.75020031  0.23145588  0.88660345  1
  Te  Te120  1  0.72918579  0.56619149  0.21965969  1
  Te  Te121  1  0.75409243  0.62886139  0.55955239  1
  Te  Te122  1  0.72404001  0.57803637  0.93079725  1
  Te  Te123  1  0.74210177  0.89948614  0.24579460  1
  Te  Te124  1  0.76635650  0.90614585  0.58775384  1
  Te  Te125  1  0.75091532  0.90689531  0.91830487  1
  Te  Te126  1  0.23358541  0.23709734  0.09293181  1
  Te  Te127  1  0.25643442  0.23886953  0.42200619  1
  Te  Te128  1  0.26456286  0.24233612  0.76149213  1
  Te  Te129  1  0.24108899  0.59416569  0.09007550  1
  Te  Te130  1  0.25570992  0.59730225  0.43268378  1
  Te  Te131  1  0.26317714  0.57089614  0.76217791  1
  Te  Te132  1  0.25794436  0.91108253  0.08821519  1
  Te  Te133  1  0.24036610  0.91921981  0.43857657  1
  Te  Te134  1  0.21969081  0.87764401  0.72353160  1
  Te  Te135  1  0.60829456  0.26447360  0.04572165  1
  Te  Te136  1  0.56584701  0.25194802  0.40777064  1
  Te  Te137  1  0.60035506  0.26093497  0.74083819  1
  Te  Te138  1  0.61400857  0.59889081  0.05112339  1
  Te  Te139  1  0.56373090  0.59542021  0.40441779  1
  Te  Te140  1  0.61791289  0.56805059  0.81137988  1
  Te  Te141  1  0.56479125  0.91733022  0.06268995  1
  Te  Te142  1  0.59833766  0.92734280  0.43370378  1
  Te  Te143  1  0.58703456  0.91762847  0.78736118  1
  Te  Te144  1  0.90009453  0.25790210  0.08009743  1
  Te  Te145  1  0.90536334  0.23784099  0.39455700  1
  Te  Te146  1  0.92408487  0.23441983  0.72833053  1
  Te  Te147  1  0.90498212  0.57152701  0.05230117  1
  Te  Te148  1  0.90688142  0.57813434  0.39133062  1
  Te  Te149  1  0.90644153  0.57882227  0.74176574  1
  Te  Te150  1  0.93409077  0.94425723  0.08079394  1
  Te  Te151  1  0.90804092  0.91724304  0.39581319  1
  Te  Te152  1  0.92936894  0.93301816  0.73974439  1
  Te  Te153  1  0.26150916  0.07053649  0.27579291  1
  Te  Te154  1  0.28693173  0.08009606  0.59450515  1
  Te  Te155  1  0.23387891  0.08907918  0.89454963  1
  Te  Te156  1  0.24240160  0.40846975  0.24999942  1
  Te  Te157  1  0.25667360  0.43365952  0.57482601  1
  Te  Te158  1  0.23464745  0.42959220  0.94380082  1
  Te  Te159  1  0.25754095  0.73461956  0.24076113  1
  Te  Te160  1  0.24835791  0.70109537  0.57620631  1
  Te  Te161  1  0.26917078  0.77104587  0.91541617  1
  Te  Te162  1  0.57670969  0.08167508  0.21200135  1
  Te  Te163  1  0.60244639  0.07343704  0.61383277  1
  Te  Te164  1  0.55852952  0.08805236  0.90842733  1
  Te  Te165  1  0.61627484  0.40731575  0.21733370  1
  Te  Te166  1  0.60844687  0.41853973  0.57968557  1
  Te  Te167  1  0.58507654  0.40830063  0.92058435  1
  Te  Te168  1  0.58586947  0.74657280  0.23154354  1
  Te  Te169  1  0.57663279  0.75600778  0.57143514  1
  Te  Te170  1  0.55522002  0.71644696  0.97069706  1
  Te  Te171  1  0.88542440  0.09379672  0.24584638  1
  Te  Te172  1  0.92559098  0.07393877  0.56097687  1
  Te  Te173  1  0.93198342  0.08979629  0.92446610  1
  Te  Te174  1  0.89926557  0.40653286  0.21560813  1
  Te  Te175  1  0.89603250  0.43370438  0.57660565  1
  Te  Te176  1  0.87596948  0.40430307  0.88798729  1
  Te  Te177  1  0.93208747  0.76367856  0.21542050  1
  Te  Te178  1  0.93148242  0.76067217  0.57840936  1
  Te  Te179  1  0.91423681  0.75645349  0.88929342  1
