# generated using pymatgen
data_In2Te3
_symmetry_space_group_name_H-M   'P 1'
_cell_length_a   18.93950862
_cell_length_b   18.95183246
_cell_length_c   18.94397057
_cell_angle_alpha   90.04231807
_cell_angle_beta   89.99344024
_cell_angle_gamma   89.94335821
_symmetry_Int_Tables_number   1
_chemical_formula_structural   In2Te3
_chemical_formula_sum   'In72 Te108'
_cell_volume   6799.71315373
_cell_formula_units_Z   36
loop_
 _symmetry_equiv_pos_site_id
 _symmetry_equiv_pos_as_xyz
  1  'x, y, z'
loop_
 _atom_site_type_symbol
 _atom_site_label
 _atom_site_symmetry_multiplicity
 _atom_site_fract_x
 _atom_site_fract_y
 _atom_site_fract_z
 _atom_site_occupancy
  In  In0  1  0.68085231  0.50644982  0.49914949  1
  In  In1  1  0.66121414  0.15623742  0.86458829  1
  In  In2  1  0.63307579  0.81570968  0.52177789  1
  In  In3  1  0.80772499  0.52894786  -0.01643568  1
  In  In4  1  0.66957365  0.18686776  0.49398849  1
  In  In5  1  0.01499403  0.00071822  0.63249803  1
  In  In6  1  0.65182707  0.35818960  0.66044614  1
  In  In7  1  0.49678302  0.35657484  0.87002482  1
  In  In8  1  0.23053007  -0.02131533  0.48343632  1
  In  In9  1  0.80721704  -0.00792882  0.80434636  1
  In  In10  1  0.80957504  0.32566430  0.84961896  1
  In  In11  1  0.32748178  0.66704566  0.00603509  1
  In  In12  1  0.47889561  0.81036278  0.32326807  1
  In  In13  1  -0.00609341  0.34519612  0.70373152  1
  In  In14  1  0.49512608  -0.00252285  0.47804406  1
  In  In15  1  0.48690929  0.66267360  0.16587060  1
  In  In16  1  0.33173510  0.52067338  0.81699043  1
  In  In17  1  0.63615077  0.82552041  0.83870072  1
  In  In18  1  0.80340140  0.86369055  0.32924797  1
  In  In19  1  0.34066091  -0.02014962  0.32538850  1
  In  In20  1  0.17119688  0.49650474  0.01013859  1
  In  In21  1  0.00742350  0.65553136  0.66850354  1
  In  In22  1  0.34636965  0.03425127  0.68250423  1
  In  In23  1  0.14825674  0.31125200  0.14749109  1
  In  In24  1  0.18824073  0.36721495  0.82378092  1
  In  In25  1  0.64820568  0.85073993  0.11536725  1
  In  In26  1  0.01445077  0.15001414  0.49891801  1
  In  In27  1  -0.02132213  0.82210007  0.84947633  1
  In  In28  1  0.66991634  0.67905149  0.34635509  1
  In  In29  1  0.86484013  0.47685262  0.32591710  1
  In  In30  1  -0.02816209  0.15989661  0.14263977  1
  In  In31  1  0.00394672  0.50787329  0.83697129  1
  In  In32  1  0.01458563  0.81130559  0.46963026  1
  In  In33  1  0.51605475  0.32434503  0.15237911  1
  In  In34  1  0.51227992  0.17238402  0.68205039  1
  In  In35  1  0.82714232  0.84730354  0.64151183  1
  In  In36  1  0.34487126  0.32410802  0.34449115  1
  In  In37  1  0.64895829  -0.01022550  0.69878073  1
  In  In38  1  0.47906004  0.37079606  0.53113048  1
  In  In39  1  0.36384947  0.81383816  0.49641406  1
  In  In40  1  0.33227385  0.83151855  0.15636816  1
  In  In41  1  0.16308838  0.49701147  0.32984610  1
  In  In42  1  0.64393260  0.30348783  0.31223122  1
  In  In43  1  0.20114308  0.16526827  0.32793852  1
  In  In44  1  0.34349562  -0.03441850  -0.01082609  1
  In  In45  1  0.14993977  0.16876920  -0.01258370  1
  In  In46  1  0.36769982  0.77447838  0.82689775  1
  In  In47  1  0.81144059  0.02987791  0.46968928  1
  In  In48  1  -0.00673048  0.66327389  0.00281532  1
  In  In49  1  0.14802101  -0.01671422  0.84251746  1
  In  In50  1  -0.00190716  0.64669411  0.31983592  1
  In  In51  1  0.65816845  0.13067750  0.14364442  1
  In  In52  1  0.18445674  0.82220758  0.67215711  1
  In  In53  1  0.00761045  0.00009762  0.31495479  1
  In  In54  1  -0.00943322  0.83265021  0.15503160  1
  In  In55  1  0.33695118  0.49941571  0.18249422  1
  In  In56  1  0.02582074  0.51755546  0.49056284  1
  In  In57  1  0.66076088  0.67180794  0.69347049  1
  In  In58  1  0.00038352  0.34852079  0.31409393  1
  In  In59  1  0.85343978  0.34751147  0.49486834  1
  In  In60  1  -0.00903531  -0.01475395  0.00177568  1
  In  In61  1  0.80274411  0.18201119  0.31822104  1
  In  In62  1  0.81798937  0.68455338  0.16014623  1
  In  In63  1  0.28295077  0.48250696  0.50368857  1
  In  In64  1  0.67433206  0.48404688  0.17544119  1
  In  In65  1  0.82653310  0.52021384  0.69134127  1
  In  In66  1  0.33798964  0.14545083  0.14908435  1
  In  In67  1  0.35890216  0.17583421  0.85009124  1
  In  In68  1  0.33958581  0.14833003  0.50500160  1
  In  In69  1  0.52358638  0.51474123  0.00669366  1
  In  In70  1  0.14641893  0.18213613  0.70264788  1
  In  In71  1  -0.03567641  0.19184162  0.89626547  1
  Te  Te72  1  0.08290906  0.07412453  0.08522830  1
  Te  Te73  1  0.11234004  0.06720075  0.41548395  1
  Te  Te74  1  0.05814904  0.07451112  0.76083670  1
  Te  Te75  1  0.07099332  0.40871282  0.07229983  1
  Te  Te76  1  0.08775795  0.39633943  0.42624364  1
  Te  Te77  1  0.10042333  0.45061426  0.73316576  1
  Te  Te78  1  0.07918576  0.72975218  0.10162322  1
  Te  Te79  1  0.10234390  0.71636907  0.40036330  1
  Te  Te80  1  0.08261720  0.75238637  0.75880944  1
  Te  Te81  1  0.42981202  0.05870623  0.07004493  1
  Te  Te82  1  0.42058110  0.09524711  0.38939613  1
  Te  Te83  1  0.45284563  0.07608431  0.78301231  1
  Te  Te84  1  0.42344862  0.42593120  0.08481314  1
  Te  Te85  1  0.40614220  0.44020615  0.41782386  1
  Te  Te86  1  0.42133654  0.41544613  0.75627331  1
  Te  Te87  1  0.43291150  0.76058554  0.06590854  1
  Te  Te88  1  0.44694379  0.71211217  0.42862445  1
  Te  Te89  1  0.46454965  0.74265657  0.71947944  1
  Te  Te90  1  0.76454368  0.03404782  0.10615343  1
  Te  Te91  1  0.69573570  0.08138567  0.37703556  1
  Te  Te92  1  0.73518102  0.10616095  0.73621118  1
  Te  Te93  1  0.73799154  0.41876812  0.05839944  1
  Te  Te94  1  0.74592724  0.40115708  0.40140835  1
  Te  Te95  1  0.73343226  0.43021019  0.76691986  1
  Te  Te96  1  0.75609005  0.76682423  0.05335399  1
  Te  Te97  1  0.75279485  0.76724393  0.43738153  1
  Te  Te98  1  0.75653175  0.77420257  0.75187298  1
  Te  Te99  1  0.07939384  0.22356230  0.25602101  1
  Te  Te100  1  0.06458391  0.25519239  0.59792116  1
  Te  Te101  1  0.08992916  0.27804950  0.90179556  1
  Te  Te102  1  0.05989524  0.54417822  0.23598380  1
  Te  Te103  1  0.10927666  0.59291019  0.58312931  1
  Te  Te104  1  0.10096144  0.59211624  0.91543269  1
  Te  Te105  1  0.08403534  0.89430594  0.25196456  1
  Te  Te106  1  0.10735522  0.90189926  0.56170774  1
  Te  Te107  1  0.08596197  0.88432410  0.93831429  1
  Te  Te108  1  0.41644462  0.24385725  0.23743762  1
  Te  Te109  1  0.41373199  0.24692994  0.59509411  1
  Te  Te110  1  0.44534726  0.24188276  0.95025163  1
  Te  Te111  1  0.38832604  0.61248482  0.26627569  1
  Te  Te112  1  0.36339075  0.56374814  0.60666259  1
  Te  Te113  1  0.42379706  0.58791803  0.91814151  1
  Te  Te114  1  0.44044006  0.92164402  0.22968055  1
  Te  Te115  1  0.40655528  0.93322278  0.58205489  1
  Te  Te116  1  0.42816263  0.88983303  0.89648260  1
  Te  Te117  1  0.73848595  0.25576121  0.20523276  1
  Te  Te118  1  0.75438368  0.27289849  0.58626170  1
  Te  Te119  1  0.75802558  0.22785009  0.95021112  1
  Te  Te120  1  0.76103539  0.57898079  0.26518504  1
  Te  Te121  1  0.75372797  0.60463587  0.58949427  1
  Te  Te122  1  0.71336264  0.61153932  0.90341412  1
  Te  Te123  1  0.72608382  0.93153982  0.22125950  1
  Te  Te124  1  0.72997054  0.94024314  0.57084878  1
  Te  Te125  1  0.72939713  0.92083236  0.91006840  1
  Te  Te126  1  0.25687705  0.24468397  0.06508644  1
  Te  Te127  1  0.24966911  0.25489358  0.44138864  1
  Te  Te128  1  0.26744618  0.25456860  0.75694191  1
  Te  Te129  1  0.24253524  0.59040033  0.10645422  1
  Te  Te130  1  0.23510014  0.59072148  0.41580319  1
  Te  Te131  1  0.28341070  0.62776269  0.72454055  1
  Te  Te132  1  0.23938611  0.91208869  0.07634391  1
  Te  Te133  1  0.26029404  0.86386346  0.38510023  1
  Te  Te134  1  0.25711444  0.92913766  0.75136623  1
  Te  Te135  1  0.57302481  0.22252706  0.06053913  1
  Te  Te136  1  0.56267264  0.27696324  0.43818939  1
  Te  Te137  1  0.59130399  0.26726049  0.76934421  1
  Te  Te138  1  0.60793270  0.59922234  0.09996502  1
  Te  Te139  1  0.58561779  0.57919962  0.41289429  1
  Te  Te140  1  0.59496643  0.59275292  0.80104766  1
  Te  Te141  1  0.56745163  0.96304546  0.05852315  1
  Te  Te142  1  0.58048509  0.89780085  0.40584101  1
  Te  Te143  1  0.55126415  0.88244260  0.72778157  1
  Te  Te144  1  0.91479702  0.23668673  0.03185993  1
  Te  Te145  1  0.91612551  0.23569872  0.41226775  1
  Te  Te146  1  0.90213800  0.24279471  0.76109694  1
  Te  Te147  1  0.90206402  0.57845533  0.09255212  1
  Te  Te148  1  0.90661038  0.58227071  0.42729266  1
  Te  Te149  1  0.90934273  0.61157427  0.77811451  1
  Te  Te150  1  0.89165831  0.92967938  0.09886809  1
  Te  Te151  1  0.91689743  0.92744859  0.42523830  1
  Te  Te152  1  0.93154312  0.91540293  0.73472002  1
  Te  Te153  1  0.24596464  0.05725648  0.23308734  1
  Te  Te154  1  0.22840950  0.09291080  0.60228706  1
  Te  Te155  1  0.24664573  0.08319033  0.90560492  1
  Te  Te156  1  0.24493308  0.38851748  0.24574538  1
  Te  Te157  1  0.30218933  0.42822288  0.64209864  1
  Te  Te158  1  0.27751065  0.42494063  0.92891945  1
  Te  Te159  1  0.29607909  0.74813417  0.27068454  1
  Te  Te160  1  0.27563308  0.73769099  0.59056785  1
  Te  Te161  1  0.24995380  0.74275192  0.90708152  1
  Te  Te162  1  0.58901207  0.11464116  0.27165629  1
  Te  Te163  1  0.57839455  0.08772294  0.57434180  1
  Te  Te164  1  0.61501782  0.02990816  0.92661334  1
  Te  Te165  1  0.56396550  0.42325766  0.25930607  1
  Te  Te166  1  0.56920032  0.47065413  0.60196841  1
  Te  Te167  1  0.61211843  0.41147452  0.94602639  1
  Te  Te168  1  0.59844195  0.75492926  0.23516026  1
  Te  Te169  1  0.55329456  0.71022061  0.59275772  1
  Te  Te170  1  0.58846804  0.70596725  0.91180049  1
  Te  Te171  1  0.89800823  0.08167965  0.25015409  1
  Te  Te172  1  0.90104948  0.08811421  0.58054048  1
  Te  Te173  1  0.89316063  0.05865506  0.91338674  1
  Te  Te174  1  0.89549690  0.38111406  0.21898360  1
  Te  Te175  1  0.91897185  0.43636375  0.59970406  1
  Te  Te176  1  0.90453545  0.42789676  0.91498311  1
  Te  Te177  1  0.89695221  0.75814628  0.26986531  1
  Te  Te178  1  0.92784077  0.75155595  0.57897168  1
  Te  Te179  1  0.89076813  0.75839709  0.94914233  1
