# generated using pymatgen
data_In2Te3
_symmetry_space_group_name_H-M   'P 1'
_cell_length_a   19.00414695
_cell_length_b   19.00789540
_cell_length_c   19.00826222
_cell_angle_alpha   89.76671570
_cell_angle_beta   90.03472388
_cell_angle_gamma   89.90619981
_symmetry_Int_Tables_number   1
_chemical_formula_structural   In2Te3
_chemical_formula_sum   'In72 Te108'
_cell_volume   6866.26505908
_cell_formula_units_Z   36
loop_
 _symmetry_equiv_pos_site_id
 _symmetry_equiv_pos_as_xyz
  1  'x, y, z'
loop_
 _atom_site_type_symbol
 _atom_site_label
 _atom_site_symmetry_multiplicity
 _atom_site_fract_x
 _atom_site_fract_y
 _atom_site_fract_z
 _atom_site_occupancy
  In  In0  1  0.18053689  0.84186474  -0.00155587  1
  In  In1  1  0.15230058  0.80956660  0.33069915  1
  In  In2  1  0.84117001  0.67927582  0.48491702  1
  In  In3  1  0.65985713  0.01511506  0.32509946  1
  In  In4  1  0.63688625  0.32066339  0.66978005  1
  In  In5  1  0.33404179  0.82683693  0.18954228  1
  In  In6  1  0.15574661  0.00458794  0.49721716  1
  In  In7  1  0.64158278  0.15240378  0.15446149  1
  In  In8  1  0.33658006  0.49204825  0.18922001  1
  In  In9  1  0.89066497  0.52265992  0.60775439  1
  In  In10  1  0.16833658  0.34020907  0.81858651  1
  In  In11  1  0.18436037  0.63999501  0.81129146  1
  In  In12  1  0.66679690  0.83110970  0.83906375  1
  In  In13  1  0.37088263  0.00880493  0.00791519  1
  In  In14  1  0.32957148  0.23067855  0.50238110  1
  In  In15  1  0.66078939  -0.00791499  0.65535557  1
  In  In16  1  0.01087996  0.82501780  0.49650044  1
  In  In17  1  0.18743172  0.48465164  -0.00061235  1
  In  In18  1  0.14760462  0.51190023  0.32876421  1
  In  In19  1  0.33707386  0.81383016  0.52594879  1
  In  In20  1  0.48284686  0.32041590  0.19155000  1
  In  In21  1  0.01881186  0.64287000  0.63893471  1
  In  In22  1  -0.03521413  0.09822594  0.76309435  1
  In  In23  1  0.48086536  0.64622501  0.17458352  1
  In  In24  1  0.65370717  0.50658606  0.82294476  1
  In  In25  1  0.32596017  0.66548380  0.00176162  1
  In  In26  1  0.65283368  0.85388594  0.16516808  1
  In  In27  1  0.32284634  0.63491727  0.65128089  1
  In  In28  1  0.52279672  0.84724460  -0.00687994  1
  In  In29  1  0.00023493  -0.02937166  0.33348894  1
  In  In30  1  0.65754142  0.17775569  0.49196995  1
  In  In31  1  0.48661093  0.03019696  0.49227596  1
  In  In32  1  0.85046784  0.55038201  0.03154686  1
  In  In33  1  0.17808362  0.16876349  0.33645452  1
  In  In34  1  0.85582410  0.31147422  0.19229215  1
  In  In35  1  0.51315792  0.67690116  0.49504962  1
  In  In36  1  0.01077545  0.19382057  0.52490425  1
  In  In37  1  0.67605337  0.36962838  -0.00670258  1
  In  In38  1  0.68041538  0.68619646  0.00041445  1
  In  In39  1  0.67812229  0.82123624  0.52113007  1
  In  In40  1  0.32912587  -0.00920834  0.33908193  1
  In  In41  1  0.85773456  0.71012693  0.82264168  1
  In  In42  1  0.18501265  0.17878700  -0.00345147  1
  In  In43  1  0.85446740  0.83187997  -0.00611344  1
  In  In44  1  0.47465274  0.47384497  0.65969222  1
  In  In45  1  0.51313093  0.83036807  0.33713923  1
  In  In46  1  0.82900257  0.14946238  0.34397882  1
  In  In47  1  0.17562067  0.31407396  0.15535469  1
  In  In48  1  -0.00484303  0.01788195  -0.02106768  1
  In  In49  1  0.49388281  0.17934798  -0.01466371  1
  In  In50  1  0.15266000  0.00675556  0.81928866  1
  In  In51  1  0.01235946  0.14018026  0.17172031  1
  In  In52  1  0.63711378  0.33228842  0.33769943  1
  In  In53  1  0.01282778  0.50195603  0.82519941  1
  In  In54  1  -0.00018212  0.37920280  0.40053452  1
  In  In55  1  0.15772068  0.81951970  0.65886188  1
  In  In56  1  0.83417908  0.32884869  0.81707552  1
  In  In57  1  0.80396919  -0.01643556  0.81556375  1
  In  In58  1  0.49673993  0.51238947  0.00846608  1
  In  In59  1  0.33720510  0.17479335  0.82763099  1
  In  In60  1  0.50287926  0.01541642  0.84304016  1
  In  In61  1  0.32104081  0.45152829  0.48320408  1
  In  In62  1  0.30877973  0.00598696  0.65169619  1
  In  In63  1  0.82176264  0.16801842  0.65518771  1
  In  In64  1  0.66873050  0.50553114  0.48963278  1
  In  In65  1  0.01689373  0.83306822  0.16438056  1
  In  In66  1  0.02105377  0.34506583  -0.01202506  1
  In  In67  1  0.87279234  0.68154728  0.19906841  1
  In  In68  1  0.84735160  0.51029854  0.35444481  1
  In  In69  1  0.68491459  0.47950306  0.18499065  1
  In  In70  1  0.81008208  0.18802627  0.00232922  1
  In  In71  1  0.46230885  0.65352864  0.80721109  1
  Te  Te72  1  0.10187888  0.07337326  0.07162770  1
  Te  Te73  1  0.06345201  0.08780889  0.41007410  1
  Te  Te74  1  0.10691407  0.10821025  0.72100963  1
  Te  Te75  1  0.08599676  0.42389099  0.09668556  1
  Te  Te76  1  0.09165797  0.47804286  0.47194438  1
  Te  Te77  1  0.07873015  0.41600790  0.72507990  1
  Te  Te78  1  0.11841105  0.75173810  0.09693338  1
  Te  Te79  1  0.08534652  0.71814716  0.42661545  1
  Te  Te80  1  0.07728350  0.73013934  0.75018597  1
  Te  Te81  1  0.41827801  0.11680672  0.09574841  1
  Te  Te82  1  0.38634638  0.10926769  0.41510597  1
  Te  Te83  1  0.41088732  0.07771563  0.73859494  1
  Te  Te84  1  0.41560754  0.41309261  0.08814577  1
  Te  Te85  1  0.41888301  0.36406607  0.40686513  1
  Te  Te86  1  0.42441057  0.36626213  0.74987523  1
  Te  Te87  1  0.42704985  0.75183962  0.07772001  1
  Te  Te88  1  0.40668724  0.75015755  0.40875172  1
  Te  Te89  1  0.39081265  0.74574022  0.72001245  1
  Te  Te90  1  0.76128797  0.09145278  0.09947496  1
  Te  Te91  1  0.74717187  0.06798538  0.44038856  1
  Te  Te92  1  0.72731169  0.09414324  0.74806184  1
  Te  Te93  1  0.79053047  0.41427480  0.09005488  1
  Te  Te94  1  0.74992366  0.40735102  0.40831439  1
  Te  Te95  1  0.73871254  0.41592022  0.73670818  1
  Te  Te96  1  0.77189749  0.75385155  0.09852628  1
  Te  Te97  1  0.72657429  0.73557214  0.41077806  1
  Te  Te98  1  0.73838159  0.74274297  0.74923332  1
  Te  Te99  1  0.07812919  0.24746319  0.25186712  1
  Te  Te100  1  0.12361927  0.28190404  0.55642077  1
  Te  Te101  1  0.08222698  0.23948308  0.90294831  1
  Te  Te102  1  0.03830592  0.59842393  0.27587823  1
  Te  Te103  1  0.11557585  0.53352757  0.61287975  1
  Te  Te104  1  0.09740057  0.57902432  0.92302774  1
  Te  Te105  1  0.11148843  0.92613283  0.24338108  1
  Te  Te106  1  0.07094119  0.92562218  0.59395986  1
  Te  Te107  1  0.07611368  0.91098691  0.90870610  1
  Te  Te108  1  0.37253726  0.29166039  0.28569586  1
  Te  Te109  1  0.41487092  0.27030401  0.62310077  1
  Te  Te110  1  0.39478623  0.27041433  0.92489005  1
  Te  Te111  1  0.40994879  0.57892534  0.28173986  1
  Te  Te112  1  0.41592250  0.56296308  0.54774148  1
  Te  Te113  1  0.39385573  0.56559202  0.90986996  1
  Te  Te114  1  0.43277511  0.92520785  0.24971243  1
  Te  Te115  1  0.41813642  0.92620554  0.58223092  1
  Te  Te116  1  0.41523756  0.90494756  0.90539363  1
  Te  Te117  1  0.73875941  0.24376110  0.25982819  1
  Te  Te118  1  0.74541963  0.26972254  0.57293168  1
  Te  Te119  1  0.72579114  0.26187947  0.89910944  1
  Te  Te120  1  0.76348886  0.58655303  0.25393806  1
  Te  Te121  1  0.75694938  0.58855760  0.57903930  1
  Te  Te122  1  0.75119013  0.57770211  0.92064477  1
  Te  Te123  1  0.74411928  0.91841783  0.25705985  1
  Te  Te124  1  0.76518254  0.90679249  0.60141536  1
  Te  Te125  1  0.74270078  0.91724541  0.93630138  1
  Te  Te126  1  0.27913514  0.22455855  0.10068804  1
  Te  Te127  1  0.20467038  0.28553222  0.42939360  1
  Te  Te128  1  0.22367214  0.22314269  0.74474703  1
  Te  Te129  1  0.24869727  0.58008306  0.09914711  1
  Te  Te130  1  0.25459026  0.56516341  0.41477464  1
  Te  Te131  1  0.26422115  0.53759851  0.74437871  1
  Te  Te132  1  0.27393824  0.92136232  0.08753988  1
  Te  Te133  1  0.24244680  0.89946749  0.43124806  1
  Te  Te134  1  0.24311256  0.90783240  0.74639258  1
  Te  Te135  1  0.59650841  0.28541478  0.09027645  1
  Te  Te136  1  0.54793646  0.25445363  0.42586159  1
  Te  Te137  1  0.52891783  0.25212398  0.74343295  1
  Te  Te138  1  0.60821695  0.57780491  0.08770327  1
  Te  Te139  1  0.60802106  0.60931130  0.40356032  1
  Te  Te140  1  0.56473121  0.57844714  0.72400893  1
  Te  Te141  1  0.57548787  0.94721127  0.08369109  1
  Te  Te142  1  0.57992608  0.92536197  0.43358481  1
  Te  Te143  1  0.57445657  0.91442597  0.75407660  1
  Te  Te144  1  0.93749413  0.24472956  0.07998650  1
  Te  Te145  1  0.91945032  0.24722696  0.41012101  1
  Te  Te146  1  0.92607200  0.24934714  0.73142813  1
  Te  Te147  1  0.96094111  0.59447987  0.11813401  1
  Te  Te148  1  0.94997097  0.61196646  0.40127727  1
  Te  Te149  1  0.90405757  0.57843391  0.75091670  1
  Te  Te150  1  0.92810565  0.92890624  0.08191335  1
  Te  Te151  1  0.90663881  0.89473580  0.41738370  1
  Te  Te152  1  0.93298621  0.95424033  0.75674588  1
  Te  Te153  1  0.24844298  0.07516263  0.24960982  1
  Te  Te154  1  0.24978310  0.10533750  0.55610563  1
  Te  Te155  1  0.25800031  0.06604998  0.91489432  1
  Te  Te156  1  0.23680868  0.40389547  0.26206419  1
  Te  Te157  1  0.28405028  0.35468316  0.59405198  1
  Te  Te158  1  0.26132464  0.38067198  0.92696611  1
  Te  Te159  1  0.23970334  0.72994650  0.24374312  1
  Te  Te160  1  0.22654403  0.72059442  0.56878964  1
  Te  Te161  1  0.25049344  0.74719197  0.90117172  1
  Te  Te162  1  0.56396530  0.11062475  0.27002703  1
  Te  Te163  1  0.57341422  0.10103485  0.59271735  1
  Te  Te164  1  0.59368571  0.09113972  0.92764689  1
  Te  Te165  1  0.56200544  0.43720942  0.25853412  1
  Te  Te166  1  0.57515431  0.41204575  0.56434190  1
  Te  Te167  1  0.56261505  0.42016537  0.90621789  1
  Te  Te168  1  0.58277865  0.74077824  0.23705231  1
  Te  Te169  1  0.57249477  0.75752540  0.59933096  1
  Te  Te170  1  0.56691613  0.72228092  0.90555202  1
  Te  Te171  1  0.90896399  0.06317984  0.24962344  1
  Te  Te172  1  0.91782106  0.09188437  0.57320291  1
  Te  Te173  1  0.89451540  0.10491813  0.90585497  1
  Te  Te174  1  0.93163174  0.41727185  0.26623845  1
  Te  Te175  1  0.93541485  0.40400008  0.53728855  1
  Te  Te176  1  0.91294466  0.41865223  0.91119436  1
  Te  Te177  1  0.92543577  0.79538304  0.27614945  1
  Te  Te178  1  0.92008166  0.74901038  0.59314416  1
  Te  Te179  1  0.94123702  0.72792085  0.93846093  1
