# generated using pymatgen
data_In2Te3
_symmetry_space_group_name_H-M   'P 1'
_cell_length_a   18.91154779
_cell_length_b   18.90955335
_cell_length_c   18.91931669
_cell_angle_alpha   89.99196874
_cell_angle_beta   89.93640334
_cell_angle_gamma   90.02993279
_symmetry_Int_Tables_number   1
_chemical_formula_structural   In2Te3
_chemical_formula_sum   'In72 Te108'
_cell_volume   6765.71129026
_cell_formula_units_Z   36
loop_
 _symmetry_equiv_pos_site_id
 _symmetry_equiv_pos_as_xyz
  1  'x, y, z'
loop_
 _atom_site_type_symbol
 _atom_site_label
 _atom_site_symmetry_multiplicity
 _atom_site_fract_x
 _atom_site_fract_y
 _atom_site_fract_z
 _atom_site_occupancy
  In  In0  1  -0.01189882  0.35315351  0.00297409  1
  In  In1  1  -0.01081227  0.83029287  0.49781483  1
  In  In2  1  0.50299600  0.68266851  0.50445119  1
  In  In3  1  0.02145722  0.32947045  0.32480179  1
  In  In4  1  0.33483277  0.49506478  0.82562978  1
  In  In5  1  0.14565830  0.17402813  0.34028439  1
  In  In6  1  0.16436570  0.65698039  0.16311145  1
  In  In7  1  0.83073499  0.30841256  0.15565616  1
  In  In8  1  -0.02504702  0.79203529  0.85711586  1
  In  In9  1  0.17146339  0.02810538  0.49915900  1
  In  In10  1  0.51095759  0.82762159  0.34263939  1
  In  In11  1  0.13629425  0.50628825  -0.04193912  1
  In  In12  1  0.36933005  -0.01597786  0.64403808  1
  In  In13  1  0.48934333  0.17957049  0.66940140  1
  In  In14  1  0.14384425  -0.00177364  0.16837299  1
  In  In15  1  0.34048770  0.01671366  0.35349570  1
  In  In16  1  0.16287187  0.15955009  0.01331492  1
  In  In17  1  0.49954821  -0.00437534  0.84317224  1
  In  In18  1  0.67036904  -0.01807691  0.35773950  1
  In  In19  1  0.68406215  -0.00077835  0.65816092  1
  In  In20  1  0.64890843  0.66279467  0.66294297  1
  In  In21  1  -0.01051149  0.83005943  0.15901167  1
  In  In22  1  0.82026599  0.16748264  0.32161414  1
  In  In23  1  0.33659976  0.82989226  0.13364571  1
  In  In24  1  0.34812761  0.35181152  0.34255340  1
  In  In25  1  0.33559591  0.66780232  0.66930462  1
  In  In26  1  0.84247300  0.01174350  0.13854431  1
  In  In27  1  0.67860657  0.49478274  0.15821110  1
  In  In28  1  0.34977556  0.64884795  0.30912941  1
  In  In29  1  0.17001434  0.81594521  -0.03974882  1
  In  In30  1  0.65136456  0.50488664  0.50318676  1
  In  In31  1  0.82208435  0.67741366  0.49249381  1
  In  In32  1  0.83734748  0.51507452  -0.03108859  1
  In  In33  1  0.67173807  0.82663813  0.83292546  1
  In  In34  1  0.82536434  0.82273298  0.34111739  1
  In  In35  1  0.68062269  0.35551641  0.67940878  1
  In  In36  1  -0.00921955  0.00777999  0.66602821  1
  In  In37  1  0.50359103  0.65818203  0.81117842  1
  In  In38  1  0.85947253  0.52335253  0.70349018  1
  In  In39  1  0.66570322  0.82873874  0.16105783  1
  In  In40  1  0.34287918  0.17776364  0.16364321  1
  In  In41  1  0.82668621  0.50682997  0.36518463  1
  In  In42  1  0.82861748  0.34215106  0.51643817  1
  In  In43  1  0.15625579  0.82739567  0.68986837  1
  In  In44  1  0.82946448  -0.01490058  0.83231662  1
  In  In45  1  -0.01253205  0.17083242  0.52322096  1
  In  In46  1  0.34676124  0.00907267  -0.00305551  1
  In  In47  1  -0.02135953  0.16622151  0.82265911  1
  In  In48  1  0.33135580  0.34264635  0.68162087  1
  In  In49  1  0.17879482  0.50092979  0.33318947  1
  In  In50  1  0.54229454  0.18736786  -0.03377536  1
  In  In51  1  0.50084521  0.82676119  0.01029913  1
  In  In52  1  -0.00984652  0.33942319  0.68321882  1
  In  In53  1  0.52892226  0.49025857  0.01415567  1
  In  In54  1  0.34365770  0.50223440  0.16139199  1
  In  In55  1  0.67067483  0.14843633  0.15740965  1
  In  In56  1  0.13957519  0.64987037  0.54178916  1
  In  In57  1  0.35189357  0.15986085  0.50560196  1
  In  In58  1  0.48619726  0.34071339  0.18634500  1
  In  In59  1  0.00053880  0.48984186  0.17623090  1
  In  In60  1  0.15840868  0.33279565  0.81852455  1
  In  In61  1  0.17103848  0.84245198  0.35300674  1
  In  In62  1  0.81965169  0.82906759  0.65006661  1
  In  In63  1  0.17151685  0.35509182  0.51182492  1
  In  In64  1  -0.02829055  0.18545758  0.13738158  1
  In  In65  1  0.51793924  0.33047229  0.85325867  1
  In  In66  1  0.82742390  0.66185028  0.15477054  1
  In  In67  1  0.15899101  -0.00862298  0.82125512  1
  In  In68  1  0.51897339  -0.03007719  0.18640407  1
  In  In69  1  0.33900023  0.68347435  -0.01110197  1
  In  In70  1  0.62909334  0.19611293  0.48794160  1
  In  In71  1  0.35938079  0.50456435  0.49063143  1
  Te  Te72  1  0.05422341  0.07083227  0.07158828  1
  Te  Te73  1  0.05562927  0.07945513  0.41743593  1
  Te  Te74  1  0.08783941  0.09766922  0.73979915  1
  Te  Te75  1  0.09801733  0.42256108  0.08171305  1
  Te  Te76  1  0.07548438  0.43207668  0.42261112  1
  Te  Te77  1  0.09257948  0.43928575  0.73543915  1
  Te  Te78  1  0.08704870  0.74950861  0.07194531  1
  Te  Te79  1  0.08736176  0.73918007  0.42522251  1
  Te  Te80  1  0.06478617  0.72747708  0.75424482  1
  Te  Te81  1  0.43172924  0.07079364  0.10412248  1
  Te  Te82  1  0.44794061  0.07051822  0.43749555  1
  Te  Te83  1  0.41032339  0.08111437  0.75513981  1
  Te  Te84  1  0.41378860  0.40478995  0.06872190  1
  Te  Te85  1  0.45802269  0.41664050  0.41992657  1
  Te  Te86  1  0.44114542  0.42027404  0.75024618  1
  Te  Te87  1  0.43428899  0.72035955  0.10281077  1
  Te  Te88  1  0.40060381  0.74834043  0.41177951  1
  Te  Te89  1  0.42163153  0.75954348  0.74564098  1
  Te  Te90  1  0.75623185  0.09423807  0.05180873  1
  Te  Te91  1  0.73848345  0.09883286  0.42696642  1
  Te  Te92  1  0.75208498  0.08429000  0.75689362  1
  Te  Te93  1  0.76762881  0.41396915  0.06687800  1
  Te  Te94  1  0.73045169  0.40262885  0.41787865  1
  Te  Te95  1  0.78482582  0.41337314  0.77144417  1
  Te  Te96  1  0.75618184  0.75737632  0.06585399  1
  Te  Te97  1  0.71873747  0.75337492  0.41839820  1
  Te  Te98  1  0.75776067  0.73077449  0.74856496  1
  Te  Te99  1  0.08936926  0.24676158  0.21889314  1
  Te  Te100  1  0.08925996  0.25790450  0.59398406  1
  Te  Te101  1  0.07689515  0.25157721  0.92205935  1
  Te  Te102  1  0.07504669  0.58918718  0.26444207  1
  Te  Te103  1  0.07970410  0.54043229  0.61630573  1
  Te  Te104  1  0.05260394  0.61752198  0.90977469  1
  Te  Te105  1  0.06766703  0.91217672  0.26670833  1
  Te  Te106  1  0.09037390  0.92086761  0.58042772  1
  Te  Te107  1  0.06462672  0.91001065  0.90719532  1
  Te  Te108  1  0.42319310  0.22947057  0.28146794  1
  Te  Te109  1  0.41879552  0.27561795  0.57491816  1
  Te  Te110  1  0.41703940  0.23536231  0.90742194  1
  Te  Te111  1  0.44792465  0.55379547  0.25441494  1
  Te  Te112  1  0.43701187  0.58054131  0.59582360  1
  Te  Te113  1  0.42499915  0.57327618  0.92512021  1
  Te  Te114  1  0.39503195  0.90829502  0.25161506  1
  Te  Te115  1  0.46122795  0.89483750  0.57182903  1
  Te  Te116  1  0.40498775  0.89634607  0.91500389  1
  Te  Te117  1  0.72474475  0.26089464  0.25317966  1
  Te  Te118  1  0.73864483  0.24471741  0.58478365  1
  Te  Te119  1  0.65431896  0.27979779  0.91780237  1
  Te  Te120  1  0.75022562  0.58631093  0.26128522  1
  Te  Te121  1  0.75794754  0.57258118  0.59250390  1
  Te  Te122  1  0.76977336  0.61369893  0.87955332  1
  Te  Te123  1  0.75669252  0.92798905  0.24282445  1
  Te  Te124  1  0.75908080  0.92240854  0.55456157  1
  Te  Te125  1  0.76605252  0.89029297  0.92754078  1
  Te  Te126  1  0.25659049  0.25370621  0.07550903  1
  Te  Te127  1  0.24915073  0.25306530  0.42007381  1
  Te  Te128  1  0.25495502  0.24259693  0.75551034  1
  Te  Te129  1  0.24930125  0.58103201  0.06306433  1
  Te  Te130  1  0.25444309  0.59493832  0.42459844  1
  Te  Te131  1  0.24608486  0.59955163  0.76916759  1
  Te  Te132  1  0.23085262  0.92103554  0.06815150  1
  Te  Te133  1  0.26429909  0.92060432  0.44381737  1
  Te  Te134  1  0.26544829  0.91833026  0.74237586  1
  Te  Te135  1  0.57757720  0.25619591  0.10108848  1
  Te  Te136  1  0.53450610  0.27059994  0.40364685  1
  Te  Te137  1  0.60074140  0.24148398  0.74839036  1
  Te  Te138  1  0.61632155  0.59422779  0.06895081  1
  Te  Te139  1  0.60703829  0.61950166  0.41907857  1
  Te  Te140  1  0.59649939  0.55979450  0.75424780  1
  Te  Te141  1  0.59866212  0.92943275  0.06474690  1
  Te  Te142  1  0.55838977  0.92721296  0.44386145  1
  Te  Te143  1  0.58748129  0.91752202  0.74641318  1
  Te  Te144  1  0.88223328  0.24388370  0.02774948  1
  Te  Te145  1  0.91787148  0.25640781  0.41241394  1
  Te  Te146  1  0.88795100  0.25532344  0.74848870  1
  Te  Te147  1  0.92951750  0.57905191  0.07854893  1
  Te  Te148  1  0.92475772  0.59539122  0.42560863  1
  Te  Te149  1  0.95738060  0.60147488  0.78929839  1
  Te  Te150  1  0.90514603  0.90157285  0.06349244  1
  Te  Te151  1  0.89414212  0.91970874  0.42967967  1
  Te  Te152  1  0.92752000  0.89118215  0.74100499  1
  Te  Te153  1  0.23983124  0.08040953  0.25502575  1
  Te  Te154  1  0.25963743  0.08996792  0.60316368  1
  Te  Te155  1  0.24499283  0.08107344  0.91190062  1
  Te  Te156  1  0.25070861  0.40738544  0.23935841  1
  Te  Te157  1  0.26119115  0.44535860  0.59229704  1
  Te  Te158  1  0.24732307  0.41066153  0.91628543  1
  Te  Te159  1  0.24730086  0.75611423  0.24560630  1
  Te  Te160  1  0.24026398  0.75362881  0.58564713  1
  Te  Te161  1  0.25281065  0.72778138  0.87543995  1
  Te  Te162  1  0.59087065  0.07573330  0.26580864  1
  Te  Te163  1  0.58031149  0.09054972  0.58713964  1
  Te  Te164  1  0.60436306  0.06121007  0.92104529  1
  Te  Te165  1  0.57499952  0.44026789  0.25159571  1
  Te  Te166  1  0.57971231  0.40903581  0.58733416  1
  Te  Te167  1  0.61899641  0.43090198  0.90880161  1
  Te  Te168  1  0.57791278  0.74423660  0.24302855  1
  Te  Te169  1  0.57033636  0.77498385  0.60185393  1
  Te  Te170  1  0.58187548  0.73798440  0.91889471  1
  Te  Te171  1  0.92282188  0.08844290  0.24545644  1
  Te  Te172  1  0.89125588  0.09290935  0.60082139  1
  Te  Te173  1  0.92247523  0.06710740  0.91355855  1
  Te  Te174  1  0.90200225  0.40543968  0.25651467  1
  Te  Te175  1  0.92054712  0.43661405  0.58708329  1
  Te  Te176  1  0.92208493  0.42157065  0.88968807  1
  Te  Te177  1  0.91627606  0.73775968  0.25489068  1
  Te  Te178  1  0.92422201  0.73240579  0.59287042  1
  Te  Te179  1  0.86502495  0.71688499  0.93178419  1
