# generated using pymatgen
data_In2Te3
_symmetry_space_group_name_H-M   'P 1'
_cell_length_a   18.95840777
_cell_length_b   18.96078588
_cell_length_c   18.95306337
_cell_angle_alpha   90.00245826
_cell_angle_beta   89.92333748
_cell_angle_gamma   89.88777341
_symmetry_Int_Tables_number   1
_chemical_formula_structural   In2Te3
_chemical_formula_sum   'In72 Te108'
_cell_volume   6812.96858564
_cell_formula_units_Z   36
loop_
 _symmetry_equiv_pos_site_id
 _symmetry_equiv_pos_as_xyz
  1  'x, y, z'
loop_
 _atom_site_type_symbol
 _atom_site_label
 _atom_site_symmetry_multiplicity
 _atom_site_fract_x
 _atom_site_fract_y
 _atom_site_fract_z
 _atom_site_occupancy
  In  In0  1  0.19263450  0.53284670  0.65425415  1
  In  In1  1  0.47013335  0.86129654  -0.01434227  1
  In  In2  1  0.01120485  -0.00556449  0.64785085  1
  In  In3  1  0.16007643  0.32402387  0.79847655  1
  In  In4  1  0.00800270  0.15366443  0.48769234  1
  In  In5  1  0.31961947  0.32663084  0.00099142  1
  In  In6  1  0.02186132  0.49416562  0.85987528  1
  In  In7  1  0.50477693  0.83448675  0.66193253  1
  In  In8  1  0.00818133  0.85741498  0.18159644  1
  In  In9  1  0.47478443  0.49553211  0.36954339  1
  In  In10  1  0.80250873  0.31766606  0.50814615  1
  In  In11  1  0.16515190  0.66252812  0.16352720  1
  In  In12  1  0.64311248  0.16885316  0.83205300  1
  In  In13  1  0.82522765  0.82645901  -0.02950072  1
  In  In14  1  0.34539568  0.16677812  0.18041575  1
  In  In15  1  0.81020561  0.32381295  0.17466211  1
  In  In16  1  0.63129948  0.31297039  0.65760085  1
  In  In17  1  0.84800848  0.49674027  -0.00001644  1
  In  In18  1  0.19127119  0.29905012  0.49085428  1
  In  In19  1  0.48747285  0.45720104  0.66306294  1
  In  In20  1  0.00123244  0.18397923  0.81979823  1
  In  In21  1  0.18036336  0.33692125  0.20758025  1
  In  In22  1  0.50342158  0.00265710  0.15292557  1
  In  In23  1  0.00304635  0.51398202  0.14458533  1
  In  In24  1  0.51687133  0.17578163  0.00362236  1
  In  In25  1  0.46455078  0.65857165  0.85501962  1
  In  In26  1  0.03527735  0.00488173  0.33740143  1
  In  In27  1  0.16814683  -0.00778134  0.16178687  1
  In  In28  1  0.03675560  0.84931018  0.82772326  1
  In  In29  1  0.80405342  0.51317401  0.67771117  1
  In  In30  1  0.04703981  0.82658480  0.52257960  1
  In  In31  1  0.67750764  0.84787995  0.48556667  1
  In  In32  1  0.01331123  0.48373780  0.51364881  1
  In  In33  1  0.33829248  0.67569391  0.66799212  1
  In  In34  1  0.48904569  0.64545449  0.18382208  1
  In  In35  1  0.81425878  0.49275353  0.31085739  1
  In  In36  1  0.32743346  0.02177118  0.68708059  1
  In  In37  1  -0.02196584  0.34458830  -0.00102250  1
  In  In38  1  0.20983291  0.80413260  -0.00099653  1
  In  In39  1  0.49021738  0.15535605  0.34259562  1
  In  In40  1  0.83709905  0.01117731  0.17233108  1
  In  In41  1  0.33489113  0.81360888  0.17925486  1
  In  In42  1  0.31202364  0.03135248  -0.05365143  1
  In  In43  1  0.16424652  0.15932048  0.66090195  1
  In  In44  1  0.82287107  0.17156693  -0.00274495  1
  In  In45  1  0.84654784  0.00821165  0.81979203  1
  In  In46  1  0.63192614  0.34610815  -0.00774652  1
  In  In47  1  0.23264019  0.52156140  0.36143844  1
  In  In48  1  0.83888579  0.66472293  0.51307073  1
  In  In49  1  0.64800261  0.30466600  0.32860480  1
  In  In50  1  0.85198023  0.84224525  0.34130065  1
  In  In51  1  0.49153268  0.33054854  0.15212898  1
  In  In52  1  0.83558973  0.00928132  0.50246570  1
  In  In53  1  0.32563146  -0.04202935  0.34073812  1
  In  In54  1  -0.00212163  0.66123474  0.34007175  1
  In  In55  1  0.03487251  0.68255270  0.68930083  1
  In  In56  1  0.65173183  0.51752618  0.17947518  1
  In  In57  1  0.65085534  0.00107004  0.35719148  1
  In  In58  1  0.84178216  0.66140451  0.84492857  1
  In  In59  1  0.17623459  0.51107183  -0.00522516  1
  In  In60  1  0.63071915  0.48626211  0.83384455  1
  In  In61  1  0.64472653  0.82028097  0.17451779  1
  In  In62  1  0.34108091  0.31235898  0.65408512  1
  In  In63  1  0.65792870  0.85146155  0.80987132  1
  In  In64  1  0.66172692  -0.00169048  0.64373826  1
  In  In65  1  0.68383994  0.66133483  0.67286099  1
  In  In66  1  0.02890004  -0.01608370  0.00072004  1
  In  In67  1  -0.02639712  0.32357448  0.68686564  1
  In  In68  1  0.47860066  0.67673324  0.48295526  1
  In  In69  1  0.01643959  0.33512821  0.34346241  1
  In  In70  1  0.64915169  0.67038776  0.00761549  1
  In  In71  1  0.47944602  0.00212614  0.51470534  1
  Te  Te72  1  0.08098031  0.08545094  0.09101191  1
  Te  Te73  1  0.11996921  0.07841602  0.43189100  1
  Te  Te74  1  0.08321975  0.07463151  0.75601070  1
  Te  Te75  1  0.09101652  0.40734199  0.08359886  1
  Te  Te76  1  0.11436569  0.42570305  0.41660987  1
  Te  Te77  1  0.07894133  0.43533009  0.73225589  1
  Te  Te78  1  0.08954448  0.76859985  0.08611131  1
  Te  Te79  1  0.09485702  0.74299011  0.41251149  1
  Te  Te80  1  0.13765647  0.77716203  0.74348235  1
  Te  Te81  1  0.40179028  0.07944562  0.06890176  1
  Te  Te82  1  0.38715325  0.07582629  0.41905373  1
  Te  Te83  1  0.41899351  0.12755842  0.73483215  1
  Te  Te84  1  0.40628316  0.41946217  0.07592319  1
  Te  Te85  1  0.38615450  0.39690423  0.44625031  1
  Te  Te86  1  0.38016819  0.41589876  0.75136643  1
  Te  Te87  1  0.43557673  0.75262999  0.08410089  1
  Te  Te88  1  0.37645456  0.73849807  0.39204448  1
  Te  Te89  1  0.41173719  0.76873347  0.76160381  1
  Te  Te90  1  0.74696429  0.07709359  0.07896612  1
  Te  Te91  1  0.74278813  0.09177611  0.42509385  1
  Te  Te92  1  0.73881247  0.08331824  0.74546042  1
  Te  Te93  1  0.74252260  0.42354484  0.08072022  1
  Te  Te94  1  0.73441177  0.40744450  0.40460459  1
  Te  Te95  1  0.72352732  0.40638423  0.74574167  1
  Te  Te96  1  0.75092486  0.75390739  0.08113316  1
  Te  Te97  1  0.75883995  0.74346458  0.41022950  1
  Te  Te98  1  0.76561387  0.75829697  0.75407501  1
  Te  Te99  1  0.09620364  0.23698645  0.27107112  1
  Te  Te100  1  0.07128768  0.26414451  0.58697238  1
  Te  Te101  1  0.07978312  0.26563078  0.91872173  1
  Te  Te102  1  0.08715169  0.56759911  0.25804072  1
  Te  Te103  1  0.08864214  0.60164041  0.56846773  1
  Te  Te104  1  0.09123652  0.60529963  0.92006687  1
  Te  Te105  1  0.11997568  0.89700906  0.27295736  1
  Te  Te106  1  0.13387310  0.93216516  0.58513998  1
  Te  Te107  1  0.13694117  0.91637385  0.91942814  1
  Te  Te108  1  0.41353399  0.26974446  0.26859266  1
  Te  Te109  1  0.43185230  0.28467679  0.53932387  1
  Te  Te110  1  0.42271311  0.25487312  0.92253828  1
  Te  Te111  1  0.39244140  0.56258093  0.26316876  1
  Te  Te112  1  0.43312931  0.58392092  0.59297163  1
  Te  Te113  1  0.37381347  0.58354833  0.94298176  1
  Te  Te114  1  0.43560391  0.90746929  0.24786279  1
  Te  Te115  1  0.39364741  0.90195438  0.58609266  1
  Te  Te116  1  0.39066295  0.92761653  0.88148031  1
  Te  Te117  1  0.75820766  0.22711174  0.26988184  1
  Te  Te118  1  0.72729713  0.22288720  0.58877676  1
  Te  Te119  1  0.73308521  0.26280266  0.91533441  1
  Te  Te120  1  0.75919143  0.60117169  0.23090627  1
  Te  Te121  1  0.72752344  0.57067438  0.55989387  1
  Te  Te122  1  0.73294360  0.57824964  0.91105247  1
  Te  Te123  1  0.74098985  0.91135690  0.26098342  1
  Te  Te124  1  0.76897255  0.90475263  0.59052331  1
  Te  Te125  1  0.74340121  0.93475811  0.90486046  1
  Te  Te126  1  0.24099361  0.24264312  0.10216680  1
  Te  Te127  1  0.29211162  0.28593507  0.38505313  1
  Te  Te128  1  0.26713068  0.21651144  0.77351326  1
  Te  Te129  1  0.26703390  0.59287643  0.07842992  1
  Te  Te130  1  0.29672462  0.61856530  0.45970419  1
  Te  Te131  1  0.25304285  0.60312992  0.76581538  1
  Te  Te132  1  0.27253084  0.91481438  0.08229140  1
  Te  Te133  1  0.29272897  0.85752783  0.44638857  1
  Te  Te134  1  0.22010615  0.92072088  0.71363452  1
  Te  Te135  1  0.60639291  0.24624486  0.10395773  1
  Te  Te136  1  0.55702610  0.25156030  0.43456134  1
  Te  Te137  1  0.53589683  0.23146890  0.74450772  1
  Te  Te138  1  0.56060611  0.56535902  0.06849059  1
  Te  Te139  1  0.57394897  0.60255598  0.39743941  1
  Te  Te140  1  0.57135411  0.60044815  0.75460289  1
  Te  Te141  1  0.59054929  0.91286083  0.06758435  1
  Te  Te142  1  0.55406645  0.90372016  0.42030057  1
  Te  Te143  1  0.56040339  0.94797691  0.74544638  1
  Te  Te144  1  0.91425956  0.24548755  0.09434543  1
  Te  Te145  1  0.91570048  0.25558794  0.42253893  1
  Te  Te146  1  0.87999591  0.23840624  0.75726808  1
  Te  Te147  1  0.92183333  0.60411480  0.06395033  1
  Te  Te148  1  0.91163958  0.56013086  0.42030010  1
  Te  Te149  1  0.92195340  0.58418018  0.74150997  1
  Te  Te150  1  0.90997718  0.90973419  0.07277864  1
  Te  Te151  1  0.94150481  0.91535550  0.43900202  1
  Te  Te152  1  0.92685878  0.90667265  0.74059406  1
  Te  Te153  1  0.25897625  0.06915024  0.25669558  1
  Te  Te154  1  0.27716136  0.11357591  0.57988425  1
  Te  Te155  1  0.21882597  0.12539769  0.88893008  1
  Te  Te156  1  0.27491080  0.44631643  0.23922194  1
  Te  Te157  1  0.24489489  0.41002203  0.58366523  1
  Te  Te158  1  0.23747620  0.40844441  0.89879223  1
  Te  Te159  1  0.24709875  0.73263972  0.26477623  1
  Te  Te160  1  0.25871297  0.73302465  0.55538126  1
  Te  Te161  1  0.30031001  0.71307260  0.92038776  1
  Te  Te162  1  0.58622884  0.08620459  0.24729682  1
  Te  Te163  1  0.58246495  0.09349675  0.56537759  1
  Te  Te164  1  0.58005953  0.07244103  0.92247238  1
  Te  Te165  1  0.56869761  0.42100335  0.25978434  1
  Te  Te166  1  0.59101962  0.42359590  0.56768210  1
  Te  Te167  1  0.53108616  0.39924618  0.89923578  1
  Te  Te168  1  0.57615341  0.72996724  0.26872064  1
  Te  Te169  1  0.59953113  0.75149134  0.57821115  1
  Te  Te170  1  0.57981597  0.76370967  0.90797561  1
  Te  Te171  1  0.92464294  0.07287771  0.27025168  1
  Te  Te172  1  0.91544865  0.09985845  0.59510710  1
  Te  Te173  1  0.93206633  0.07943133  0.92393542  1
  Te  Te174  1  0.92452692  0.41376191  0.23971134  1
  Te  Te175  1  0.89527787  0.41947185  0.58645285  1
  Te  Te176  1  0.89855738  0.41003905  0.88655473  1
  Te  Te177  1  0.92067205  0.74909287  0.24291148  1
  Te  Te178  1  0.93251661  0.74874028  0.59378291  1
  Te  Te179  1  0.94344983  0.75479631  0.90779320  1
