# generated using pymatgen
data_In2Te3
_symmetry_space_group_name_H-M   'P 1'
_cell_length_a   18.87190086
_cell_length_b   18.89408076
_cell_length_c   18.88510873
_cell_angle_alpha   89.93254972
_cell_angle_beta   89.95835120
_cell_angle_gamma   89.91861772
_symmetry_Int_Tables_number   1
_chemical_formula_structural   In2Te3
_chemical_formula_sum   'In72 Te108'
_cell_volume   6733.79746842
_cell_formula_units_Z   36
loop_
 _symmetry_equiv_pos_site_id
 _symmetry_equiv_pos_as_xyz
  1  'x, y, z'
loop_
 _atom_site_type_symbol
 _atom_site_label
 _atom_site_symmetry_multiplicity
 _atom_site_fract_x
 _atom_site_fract_y
 _atom_site_fract_z
 _atom_site_occupancy
  In  In0  1  0.30379767  0.48983185  0.83085424  1
  In  In1  1  0.68397394  0.49844702  0.50413757  1
  In  In2  1  0.31087181  -0.00970740  0.31367157  1
  In  In3  1  0.33989406  0.01935199  -0.00884336  1
  In  In4  1  -0.00132081  0.00632474  -0.00267319  1
  In  In5  1  -0.01741240  0.47945792  0.85084209  1
  In  In6  1  0.52286819  0.15924879  0.66661536  1
  In  In7  1  0.02089627  0.48169045  0.13348170  1
  In  In8  1  0.15107415  0.81773125  0.65453329  1
  In  In9  1  0.65714487  0.49643230  0.17878184  1
  In  In10  1  0.50448756  0.64531566  0.17608211  1
  In  In11  1  0.00174349  0.65717267  -0.01054668  1
  In  In12  1  0.14714297  0.51198334  0.65041779  1
  In  In13  1  0.51631268  0.18849293  0.34437627  1
  In  In14  1  -0.01343884  0.84225007  0.16060778  1
  In  In15  1  0.85360837  0.85834459  0.32447196  1
  In  In16  1  0.51522858  0.85431010  0.02080362  1
  In  In17  1  -0.00134714  0.33406465  0.33609944  1
  In  In18  1  0.32579099  0.16629964  0.84131040  1
  In  In19  1  0.50647125  0.82909499  0.67306900  1
  In  In20  1  0.31302870  0.67087501  -0.01972021  1
  In  In21  1  0.81658103  0.85354969  0.01803512  1
  In  In22  1  0.16680854  0.67007655  0.18301032  1
  In  In23  1  -0.00764782  -0.02470519  0.67222543  1
  In  In24  1  0.36604325  0.18872067  0.49524943  1
  In  In25  1  0.50496604  0.34273014  0.17882357  1
  In  In26  1  0.65515185  0.68340214  0.33322505  1
  In  In27  1  0.47807569  0.66877865  0.82637896  1
  In  In28  1  0.10557214  0.02958878  0.14698724  1
  In  In29  1  0.18409635  0.34094357  0.49221496  1
  In  In30  1  0.86119447  0.50577370  0.64509840  1
  In  In31  1  0.83712039  -0.01056746  0.50088750  1
  In  In32  1  0.50698599  0.01113752  0.12607564  1
  In  In33  1  0.52444745  0.03506319  0.86108572  1
  In  In34  1  0.31510098  0.48991206  0.17348159  1
  In  In35  1  0.14024169  0.15867801  0.30421208  1
  In  In36  1  -0.02576207  0.17602088  0.50801066  1
  In  In37  1  0.33666382  0.32737601  -0.00318171  1
  In  In38  1  0.17707688  0.18192067  -0.00280360  1
  In  In39  1  0.83637165  0.33001630  0.84310956  1
  In  In40  1  0.51906575  0.32379118  0.52126662  1
  In  In41  1  0.16251252  0.50984939  0.33477753  1
  In  In42  1  0.11967509  0.80828343  0.36075577  1
  In  In43  1  0.65103533  0.49257006  0.83778388  1
  In  In44  1  0.69170497  0.15589329  0.15763147  1
  In  In45  1  0.14560565  0.03200963  0.51049641  1
  In  In46  1  0.17555525  0.17976521  0.69016569  1
  In  In47  1  0.32927873  0.83000447  0.16280250  1
  In  In48  1  0.69979387  0.30203318  0.67985747  1
  In  In49  1  0.16750195  0.84548191  -0.02554178  1
  In  In50  1  0.31601442  0.50734476  0.49655230  1
  In  In51  1  0.48888799  0.49299919  0.69092947  1
  In  In52  1  -0.00573355  0.17113193  0.84644021  1
  In  In53  1  0.67093373  0.85352757  0.50818483  1
  In  In54  1  0.32158526  0.35722915  0.33255224  1
  In  In55  1  0.84697161  0.67207487  0.81780880  1
  In  In56  1  0.67623599  0.32867817  -0.01275028  1
  In  In57  1  0.31723079  0.83275149  0.83094434  1
  In  In58  1  0.84224061  0.49634687  0.00774329  1
  In  In59  1  0.48832742  0.67171734  0.49201585  1
  In  In60  1  0.30994081  0.80691998  0.48802310  1
  In  In61  1  -0.00597964  0.35469244  0.65469039  1
  In  In62  1  0.86947376  0.29469199  0.15540569  1
  In  In63  1  0.67318800  0.68064170  0.01446301  1
  In  In64  1  0.49680471  0.49044511  0.30190910  1
  In  In65  1  0.68355335  0.83108284  0.82570789  1
  In  In66  1  0.67418798  0.00729274  0.35349338  1
  In  In67  1  0.33047063  -0.02021254  0.65917109  1
  In  In68  1  0.70454957  0.02423258  0.70344927  1
  In  In69  1  0.84226075  0.51725051  0.34596066  1
  In  In70  1  0.86116719  0.70016628  0.52448876  1
  In  In71  1  0.52455206  0.01125890  0.49943768  1
  Te  Te72  1  0.03425517  0.14696643  0.06669122  1
  Te  Te73  1  0.05167888  0.08807560  0.40625579  1
  Te  Te74  1  0.07516014  0.08317580  0.74488581  1
  Te  Te75  1  0.09848112  0.40915911  0.03263262  1
  Te  Te76  1  0.07639008  0.42655142  0.42958305  1
  Te  Te77  1  0.08607379  0.41693854  0.75474540  1
  Te  Te78  1  0.09345078  0.75874670  0.07978353  1
  Te  Te79  1  0.07408158  0.69816817  0.44852349  1
  Te  Te80  1  0.04577774  0.76643277  0.74815462  1
  Te  Te81  1  0.41773468  0.11658204  0.07030657  1
  Te  Te82  1  0.41385999  0.07327608  0.40637179  1
  Te  Te83  1  0.41408094  0.07309983  0.74564414  1
  Te  Te84  1  0.42026044  0.42673035  0.08588957  1
  Te  Te85  1  0.42688702  0.41143106  0.42784094  1
  Te  Te86  1  0.42130273  0.40790440  0.78848417  1
  Te  Te87  1  0.41414834  0.74018751  0.07265044  1
  Te  Te88  1  0.41639764  0.75893706  0.39924067  1
  Te  Te89  1  0.39135976  0.74703667  0.72875869  1
  Te  Te90  1  0.74204542  0.07241206  0.04711538  1
  Te  Te91  1  0.79277694  0.08454576  0.39575733  1
  Te  Te92  1  0.77940861  0.10892220  0.79846826  1
  Te  Te93  1  0.75239483  0.40837571  0.09527826  1
  Te  Te94  1  0.77283881  0.41171383  0.42415130  1
  Te  Te95  1  0.76818857  0.43537626  0.75551391  1
  Te  Te96  1  0.75915992  0.75215158  0.10780728  1
  Te  Te97  1  0.75506771  0.75670431  0.42286589  1
  Te  Te98  1  0.73944838  0.73038110  0.73568050  1
  Te  Te99  1  0.05659507  0.25221737  0.22600966  1
  Te  Te100  1  0.09205410  0.24977002  0.57616199  1
  Te  Te101  1  0.10349829  0.25913312  0.89279328  1
  Te  Te102  1  0.06220185  0.58085518  0.24512236  1
  Te  Te103  1  0.05807671  0.58542823  0.55640543  1
  Te  Te104  1  0.08543788  0.56834525  0.90985321  1
  Te  Te105  1  0.09169605  0.91538744  0.25487212  1
  Te  Te106  1  0.07104811  0.90836208  0.55891251  1
  Te  Te107  1  0.06271901  0.91585749  0.89998960  1
  Te  Te108  1  0.40884902  0.25522828  0.25899904  1
  Te  Te109  1  0.41701580  0.26168559  0.61619713  1
  Te  Te110  1  0.42635892  0.22334717  0.93482308  1
  Te  Te111  1  0.39048528  0.59038379  0.26112447  1
  Te  Te112  1  0.41493579  0.57944171  0.58804656  1
  Te  Te113  1  0.40874497  0.57179681  0.91742038  1
  Te  Te114  1  0.42224644  0.92864329  0.23034506  1
  Te  Te115  1  0.42576344  0.90766881  0.56539396  1
  Te  Te116  1  0.42045677  0.91283748  0.90826504  1
  Te  Te117  1  0.77756514  0.23154645  0.25100003  1
  Te  Te118  1  0.72878667  0.21875230  0.56475078  1
  Te  Te119  1  0.74331696  0.22523879  0.89924042  1
  Te  Te120  1  0.74858458  0.59309194  0.25160923  1
  Te  Te121  1  0.75813977  0.60142624  0.58583378  1
  Te  Te122  1  0.75553824  0.58349983  0.91851680  1
  Te  Te123  1  0.74841635  0.93059499  0.25226849  1
  Te  Te124  1  0.76133782  0.91483868  0.61308975  1
  Te  Te125  1  0.76071350  0.92780563  0.90289486  1
  Te  Te126  1  0.26256159  0.24758759  0.09692741  1
  Te  Te127  1  0.24398814  0.23232645  0.40277128  1
  Te  Te128  1  0.25255298  0.27386596  0.77082660  1
  Te  Te129  1  0.23767619  0.58326604  0.08078684  1
  Te  Te130  1  0.24624251  0.60371942  0.41102227  1
  Te  Te131  1  0.23985882  0.58649427  0.73895943  1
  Te  Te132  1  0.25032031  0.92521661  0.07411924  1
  Te  Te133  1  0.23315169  0.93125734  0.43056535  1
  Te  Te134  1  0.22470717  0.92077540  0.74735681  1
  Te  Te135  1  0.59245233  0.25478672  0.09284254  1
  Te  Te136  1  0.61534756  0.23943015  0.44322388  1
  Te  Te137  1  0.59591578  0.24066397  0.76438887  1
  Te  Te138  1  0.58189791  0.57033317  0.06858107  1
  Te  Te139  1  0.58229423  0.56975204  0.41051350  1
  Te  Te140  1  0.58608214  0.59671202  0.74675016  1
  Te  Te141  1  0.62559927  0.93115695  0.08339730  1
  Te  Te142  1  0.57241218  0.90287577  0.40354768  1
  Te  Te143  1  0.58044252  0.93600226  0.75039289  1
  Te  Te144  1  0.89848855  0.21004145  0.03918163  1
  Te  Te145  1  0.90035426  0.23926657  0.39646954  1
  Te  Te146  1  0.91747465  0.25465995  0.73852734  1
  Te  Te147  1  0.91550174  0.59330368  0.09628697  1
  Te  Te148  1  0.93243499  0.59472271  0.44178746  1
  Te  Te149  1  0.94564160  0.58395032  0.74340122  1
  Te  Te150  1  0.89694841  0.95880561  0.10903204  1
  Te  Te151  1  0.93790868  0.89990765  0.43817265  1
  Te  Te152  1  0.92506245  0.87078207  0.75487899  1
  Te  Te153  1  0.23780939  0.08039197  0.21682142  1
  Te  Te154  1  0.26506554  0.09745886  0.58286730  1
  Te  Te155  1  0.22648622  0.06948560  0.90501087  1
  Te  Te156  1  0.21102913  0.40017452  0.23859128  1
  Te  Te157  1  0.26045152  0.41191945  0.59989064  1
  Te  Te158  1  0.22800764  0.41983360  0.94417536  1
  Te  Te159  1  0.24114234  0.76844537  0.27018005  1
  Te  Te160  1  0.24337702  0.72397797  0.58824169  1
  Te  Te161  1  0.21482985  0.73236142  0.88242147  1
  Te  Te162  1  0.57905384  0.08808595  0.25090344  1
  Te  Te163  1  0.63054490  0.08561290  0.57961959  1
  Te  Te164  1  0.60913808  0.08281583  0.97206991  1
  Te  Te165  1  0.61020767  0.39141685  0.27896814  1
  Te  Te166  1  0.60253246  0.41783836  0.60744923  1
  Te  Te167  1  0.56829885  0.40310694  0.91805467  1
  Te  Te168  1  0.58368192  0.75659037  0.22730075  1
  Te  Te169  1  0.58985951  0.74399727  0.57962625  1
  Te  Te170  1  0.57492568  0.75205381  0.91270581  1
  Te  Te171  1  0.97537842  0.02722524  0.22495324  1
  Te  Te172  1  0.90570024  0.08135635  0.60392845  1
  Te  Te173  1  0.90496852  0.05590895  0.88567292  1
  Te  Te174  1  0.91460985  0.42364559  0.23742687  1
  Te  Te175  1  0.89491190  0.39517280  0.55226629  1
  Te  Te176  1  0.92661506  0.38061588  0.95572015  1
  Te  Te177  1  0.93218198  0.75085440  0.26085787  1
  Te  Te178  1  0.93218695  0.76559501  0.63778268  1
  Te  Te179  1  0.90189710  0.75518955  0.93231461  1
