# generated using pymatgen
data_In2Te3
_symmetry_space_group_name_H-M   'P 1'
_cell_length_a   19.01318925
_cell_length_b   18.99253952
_cell_length_c   19.00467765
_cell_angle_alpha   89.73357289
_cell_angle_beta   89.84747202
_cell_angle_gamma   89.91929062
_symmetry_Int_Tables_number   1
_chemical_formula_structural   In2Te3
_chemical_formula_sum   'In72 Te108'
_cell_volume   6862.65015427
_cell_formula_units_Z   36
loop_
 _symmetry_equiv_pos_site_id
 _symmetry_equiv_pos_as_xyz
  1  'x, y, z'
loop_
 _atom_site_type_symbol
 _atom_site_label
 _atom_site_symmetry_multiplicity
 _atom_site_fract_x
 _atom_site_fract_y
 _atom_site_fract_z
 _atom_site_occupancy
  In  In0  1  0.81940594  0.14867813  -0.01198030  1
  In  In1  1  0.83249674  0.67172760  0.79309194  1
  In  In2  1  0.66740987  -0.00799924  0.64198415  1
  In  In3  1  0.49105007  0.65235537  0.52509679  1
  In  In4  1  0.49630852  0.65256568  0.13884862  1
  In  In5  1  -0.00125355  -0.01741195  0.64979672  1
  In  In6  1  0.84361497  0.13205688  0.67018107  1
  In  In7  1  0.50310394  0.33294063  0.18741565  1
  In  In8  1  0.83391222  0.81654219  0.33976721  1
  In  In9  1  0.34994124  0.32153456  0.01474282  1
  In  In10  1  0.17916647  0.17169313  0.64696638  1
  In  In11  1  0.47022433  0.02533398  0.18070303  1
  In  In12  1  0.14967889  0.81537896  0.67729761  1
  In  In13  1  0.64339883  0.81983220  0.17810494  1
  In  In14  1  0.01106849  0.16399791  0.17392307  1
  In  In15  1  0.19007770  0.48553023  0.31457650  1
  In  In16  1  0.16044249  0.00147930  0.82685279  1
  In  In17  1  0.66138642  -0.01748635  -0.01853688  1
  In  In18  1  0.15909370  0.16567458  0.31357754  1
  In  In19  1  0.34433474  0.48079046  0.49031435  1
  In  In20  1  0.51558098  0.82444752  -0.00284381  1
  In  In21  1  0.81872630  0.51134596  -0.00576879  1
  In  In22  1  0.35097914  0.36498780  0.70096536  1
  In  In23  1  0.67698628  0.34784830  0.00164352  1
  In  In24  1  0.66706722  0.00163002  0.31367951  1
  In  In25  1  0.31743763  0.48876150  0.14371306  1
  In  In26  1  0.32325382  0.83760473  0.50496342  1
  In  In27  1  0.66359542  0.15537687  0.15671221  1
  In  In28  1  0.85148845  0.16778842  0.33635597  1
  In  In29  1  0.33066045  -0.01886892  0.67014356  1
  In  In30  1  0.50839535  0.84716289  0.33505160  1
  In  In31  1  0.68158760  0.65086945  0.63539264  1
  In  In32  1  0.02849575  0.31834496  0.66620257  1
  In  In33  1  0.84018113  0.83861445  0.64027723  1
  In  In34  1  0.81317969  0.68698839  0.17460587  1
  In  In35  1  0.17077118  0.32328397  0.85843047  1
  In  In36  1  0.53168236  0.23716516  0.63752431  1
  In  In37  1  0.16767580  0.85022419  0.00001510  1
  In  In38  1  0.31532182  0.68925687  0.31914928  1
  In  In39  1  0.33329799  0.15073280  0.50317321  1
  In  In40  1  0.49233362  0.49647894  0.33457667  1
  In  In41  1  0.17081187  0.66931341  0.89496228  1
  In  In42  1  0.32896436  -0.00057171  0.02038444  1
  In  In43  1  0.65519992  0.17208805  0.79439744  1
  In  In44  1  0.65847036  0.18589654  0.48879741  1
  In  In45  1  0.34882494  0.17144132  0.86663038  1
  In  In46  1  0.00274304  0.64518485  0.32628925  1
  In  In47  1  0.85923652  0.33620353  0.19593311  1
  In  In48  1  0.00128339  0.67861851  0.00973163  1
  In  In49  1  -0.01070103  0.51690264  0.50079590  1
  In  In50  1  0.16465680  0.33403861  0.48099100  1
  In  In51  1  0.67696368  0.34926124  0.35159902  1
  In  In52  1  0.16147370  0.68593160  0.49981438  1
  In  In53  1  0.79878332  0.35997780  0.79645798  1
  In  In54  1  0.48485266  0.82716963  0.66963199  1
  In  In55  1  0.67715354  0.50490147  0.80734610  1
  In  In56  1  0.00849065  0.48637397  0.17036776  1
  In  In57  1  -0.00836120  0.67794120  0.66604183  1
  In  In58  1  0.67714601  0.64369918  0.36154178  1
  In  In59  1  0.35452508  0.53093010  0.89247676  1
  In  In60  1  0.15551455  0.83509628  0.30236801  1
  In  In61  1  -0.00851695  -0.00709861  0.01284678  1
  In  In62  1  0.18583656  0.50434276  0.70090242  1
  In  In63  1  0.31836780  0.01643104  0.33175950  1
  In  In64  1  -0.00650183  0.35117755  0.02113576  1
  In  In65  1  -0.01095860  0.53215788  0.84975314  1
  In  In66  1  -0.00076082  -0.01356154  0.31790555  1
  In  In67  1  0.34850000  0.79721229  0.85980621  1
  In  In68  1  0.83325466  0.31913728  0.50207083  1
  In  In69  1  -0.00949265  0.17223431  0.85240341  1
  In  In70  1  0.50763833  0.01500121  0.82616073  1
  In  In71  1  0.82914163  0.82140618  -0.00026709  1
  Te  Te72  1  0.08212623  0.09341359  0.06727470  1
  Te  Te73  1  0.07173620  0.08489987  0.39863606  1
  Te  Te74  1  0.08248153  0.10582705  0.74895667  1
  Te  Te75  1  0.10393972  0.38919273  0.11081151  1
  Te  Te76  1  0.08115560  0.43596684  0.40711684  1
  Te  Te77  1  0.08094606  0.41650210  0.77646043  1
  Te  Te78  1  0.09440797  0.75712341  0.09038310  1
  Te  Te79  1  0.07177861  0.75728131  0.40427209  1
  Te  Te80  1  0.08497330  0.72318366  0.77651630  1
  Te  Te81  1  0.42896567  0.09948746  0.06017167  1
  Te  Te82  1  0.42204835  0.07871407  0.41277145  1
  Te  Te83  1  0.40287891  0.08899021  0.74737220  1
  Te  Te84  1  0.43924873  0.42285684  0.08289049  1
  Te  Te85  1  0.42903612  0.38826228  0.41471557  1
  Te  Te86  1  0.42142558  0.47094181  0.77172181  1
  Te  Te87  1  0.42670576  0.77600060  0.10329856  1
  Te  Te88  1  0.41446552  0.74470283  0.42193337  1
  Te  Te89  1  0.43243296  0.72352541  0.76295825  1
  Te  Te90  1  0.74942546  0.05479539  0.08333925  1
  Te  Te91  1  0.74616709  0.09029219  0.41150581  1
  Te  Te92  1  0.74614612  0.05677753  0.75706546  1
  Te  Te93  1  0.76631816  0.41689634  0.10062695  1
  Te  Te94  1  0.75022563  0.43371059  0.44953194  1
  Te  Te95  1  0.72739422  0.42786607  0.67761604  1
  Te  Te96  1  0.71581487  0.74077891  0.07279628  1
  Te  Te97  1  0.71810595  0.77050304  0.42034877  1
  Te  Te98  1  0.73713084  0.76282288  0.72327711  1
  Te  Te99  1  0.08642203  0.27280233  0.23780643  1
  Te  Te100  1  0.07740401  0.23150272  0.55260744  1
  Te  Te101  1  0.08179205  0.24369110  0.94884385  1
  Te  Te102  1  0.10784858  0.58262783  0.23346516  1
  Te  Te103  1  0.09767110  0.57982939  0.59877463  1
  Te  Te104  1  0.08564050  0.55926631  0.95880378  1
  Te  Te105  1  0.09840066  0.94177542  0.21666974  1
  Te  Te106  1  0.08524577  0.89290608  0.57316767  1
  Te  Te107  1  0.06946101  0.90974400  0.90334606  1
  Te  Te108  1  0.37876786  0.25490743  0.21944947  1
  Te  Te109  1  0.38793298  0.26054531  0.59715543  1
  Te  Te110  1  0.43761277  0.28050769  0.90120147  1
  Te  Te111  1  0.39864472  0.58216250  0.24795747  1
  Te  Te112  1  0.40098722  0.56112880  0.59768971  1
  Te  Te113  1  0.46824430  0.60912931  0.95839161  1
  Te  Te114  1  0.40156218  0.91010294  0.25141837  1
  Te  Te115  1  0.42763461  0.92628410  0.56738104  1
  Te  Te116  1  0.41793668  0.92312408  0.91182504  1
  Te  Te117  1  0.74067927  0.24789551  0.24990956  1
  Te  Te118  1  0.75356720  0.23120072  0.59681126  1
  Te  Te119  1  0.74838763  0.25173816  0.89915615  1
  Te  Te120  1  0.75517894  0.58015501  0.25465862  1
  Te  Te121  1  0.75601684  0.53974168  0.57316822  1
  Te  Te122  1  0.74843858  0.60561653  0.90085638  1
  Te  Te123  1  0.75242347  0.90238935  0.23852368  1
  Te  Te124  1  0.77507772  0.94234950  0.55688478  1
  Te  Te125  1  0.73051001  0.87926072  0.90710821  1
  Te  Te126  1  0.28917562  0.21697390  0.10104529  1
  Te  Te127  1  0.25750314  0.24238218  0.40899004  1
  Te  Te128  1  0.25272151  0.25060404  0.75508823  1
  Te  Te129  1  0.27884934  0.58825668  0.04157524  1
  Te  Te130  1  0.24861134  0.58825310  0.42126600  1
  Te  Te131  1  0.25687466  0.59955218  0.79103178  1
  Te  Te132  1  0.22990397  0.93133396  0.10713836  1
  Te  Te133  1  0.23750717  0.91222797  0.40665043  1
  Te  Te134  1  0.25500882  0.89293829  0.76957470  1
  Te  Te135  1  0.58318350  0.25745082  0.07965847  1
  Te  Te136  1  0.56603955  0.27741173  0.41861671  1
  Te  Te137  1  0.57167455  0.29616648  0.77100218  1
  Te  Te138  1  0.58185572  0.57001758  0.05365531  1
  Te  Te139  1  0.57760563  0.56020182  0.44235270  1
  Te  Te140  1  0.58630075  0.59167032  0.73132848  1
  Te  Te141  1  0.57133972  0.93243184  0.10033388  1
  Te  Te142  1  0.60351178  0.91824631  0.41840501  1
  Te  Te143  1  0.58239213  0.91432121  0.74563930  1
  Te  Te144  1  0.89753300  0.24187608  0.07700712  1
  Te  Te145  1  0.92677714  0.27582560  0.39684978  1
  Te  Te146  1  0.91414113  0.25428701  0.74869239  1
  Te  Te147  1  0.91131835  0.58438397  0.08974495  1
  Te  Te148  1  0.90400731  0.61763519  0.43510019  1
  Te  Te149  1  0.91053470  0.56145038  0.72588081  1
  Te  Te150  1  0.91396006  0.89656887  0.09029053  1
  Te  Te151  1  0.90181322  0.92516998  0.41054007  1
  Te  Te152  1  0.92530710  0.89966860  0.74278866  1
  Te  Te153  1  0.26211876  0.10420218  0.22391106  1
  Te  Te154  1  0.23717122  0.05334527  0.57512678  1
  Te  Te155  1  0.24034156  0.08292482  0.92493852  1
  Te  Te156  1  0.28612367  0.39136454  0.25304921  1
  Te  Te157  1  0.23725065  0.40825130  0.59294921  1
  Te  Te158  1  0.25841443  0.41412230  0.93416376  1
  Te  Te159  1  0.22877786  0.74140745  0.21420626  1
  Te  Te160  1  0.25979442  0.74045200  0.60227316  1
  Te  Te161  1  0.28132096  0.73447134  0.98026925  1
  Te  Te162  1  0.56728652  0.10660432  0.26316387  1
  Te  Te163  1  0.57328007  0.10029245  0.58566249  1
  Te  Te164  1  0.59197391  0.10171336  0.91439365  1
  Te  Te165  1  0.59992366  0.43340216  0.24890240  1
  Te  Te166  1  0.58336910  0.37646654  0.63634191  1
  Te  Te167  1  0.60433523  0.45614840  0.93092315  1
  Te  Te168  1  0.57031858  0.72034107  0.26638700  1
  Te  Te169  1  0.58259403  0.75854062  0.57680397  1
  Te  Te170  1  0.54376603  0.72683263  0.89187877  1
  Te  Te171  1  0.90295946  0.07652989  0.23036543  1
  Te  Te172  1  0.92821366  0.07984965  0.56490540  1
  Te  Te173  1  0.90293236  0.05984960  0.90100734  1
  Te  Te174  1  0.91238293  0.44631030  0.27355174  1
  Te  Te175  1  0.93407337  0.40374006  0.58530286  1
  Te  Te176  1  0.90301044  0.41288300  0.90959826  1
  Te  Te177  1  0.93192495  0.74993244  0.24129132  1
  Te  Te178  1  0.90584759  0.73138166  0.55976825  1
  Te  Te179  1  0.91530681  0.74020454  0.90349574  1
