# generated using pymatgen
data_In2Te3
_symmetry_space_group_name_H-M   'P 1'
_cell_length_a   18.75935054
_cell_length_b   18.75647070
_cell_length_c   18.76508401
_cell_angle_alpha   89.97352373
_cell_angle_beta   90.04875351
_cell_angle_gamma   90.01275497
_symmetry_Int_Tables_number   1
_chemical_formula_structural   In2Te3
_chemical_formula_sum   'In72 Te108'
_cell_volume   6602.66435399
_cell_formula_units_Z   36
loop_
 _symmetry_equiv_pos_site_id
 _symmetry_equiv_pos_as_xyz
  1  'x, y, z'
loop_
 _atom_site_type_symbol
 _atom_site_label
 _atom_site_symmetry_multiplicity
 _atom_site_fract_x
 _atom_site_fract_y
 _atom_site_fract_z
 _atom_site_occupancy
  In  In0  1  0.18236843  0.67999149  0.15896983  1
  In  In1  1  0.67555938  0.67903705  0.34086316  1
  In  In2  1  0.48377198  0.50246224  -0.00254567  1
  In  In3  1  0.00175381  -0.00557855  0.66151752  1
  In  In4  1  0.33887843  0.31179463  -0.01420614  1
  In  In5  1  0.17438279  0.66782253  0.84174056  1
  In  In6  1  0.32478787  -0.00301694  0.67561655  1
  In  In7  1  0.01378261  0.81083879  0.16425420  1
  In  In8  1  0.49399040  0.79339506  0.68695038  1
  In  In9  1  0.00734581  0.81833193  0.83371937  1
  In  In10  1  0.47648354  -0.01656002  0.47229651  1
  In  In11  1  0.85248686  0.49799709  0.65268143  1
  In  In12  1  0.68578720  0.50169912  0.50455436  1
  In  In13  1  0.17524935  -0.00425479  0.84052917  1
  In  In14  1  0.31777306  -0.00378058  0.01909761  1
  In  In15  1  0.33260481  0.65074590  0.35124732  1
  In  In16  1  0.67813767  0.17599620  0.52517045  1
  In  In17  1  0.86035893  0.49759429  0.00472066  1
  In  In18  1  0.79259275  0.17791630  0.01416194  1
  In  In19  1  0.32850920  0.50884266  0.51293002  1
  In  In20  1  0.31920943  0.16992822  0.51553548  1
  In  In21  1  0.67396090  0.50815262  0.15260683  1
  In  In22  1  0.87489685  0.79657794  0.65408217  1
  In  In23  1  0.14540739  0.18401615  -0.00860757  1
  In  In24  1  0.00134762  0.81614234  0.52355824  1
  In  In25  1  0.64427668  0.53464983  0.80582885  1
  In  In26  1  0.65222587  0.84228353  0.16678642  1
  In  In27  1  0.00642585  -0.01219338  -0.00132821  1
  In  In28  1  0.00408139  0.16987746  0.17173601  1
  In  In29  1  0.31818308  0.81438498  0.49495950  1
  In  In30  1  0.66146679  0.18133184  0.84593142  1
  In  In31  1  0.03528385  0.35199612  0.67880277  1
  In  In32  1  0.14273292  0.33201361  0.49487559  1
  In  In33  1  0.88901135  0.20959866  0.35293496  1
  In  In34  1  0.64167949  0.66355946  -0.01675258  1
  In  In35  1  0.85374404  0.64744658  0.81427194  1
  In  In36  1  0.85295096  0.18275364  0.65238297  1
  In  In37  1  0.85097501  -0.00052072  0.49493721  1
  In  In38  1  -0.00506245  0.64321273  0.33652086  1
  In  In39  1  0.49012658  0.50937604  0.31578587  1
  In  In40  1  0.00538704  0.00766206  0.33578779  1
  In  In41  1  0.66337683  0.17557827  0.15089423  1
  In  In42  1  0.30325885  0.34124441  0.69773060  1
  In  In43  1  0.65808670  0.78523580  0.84254849  1
  In  In44  1  0.64689067  -0.00005580  0.00790506  1
  In  In45  1  0.87024760  0.35027136  0.20483320  1
  In  In46  1  0.45754609  -0.00972598  0.83414287  1
  In  In47  1  0.66782472  -0.02244530  0.66623079  1
  In  In48  1  0.47759821  0.82139762  0.33203015  1
  In  In49  1  0.15495763  0.84445975  0.33976546  1
  In  In50  1  0.83970545  0.82887792  -0.00446946  1
  In  In51  1  0.49910579  0.18475981  0.29524343  1
  In  In52  1  0.50081847  0.15942190  0.67267759  1
  In  In53  1  0.34390226  0.81467299  0.13163960  1
  In  In54  1  0.01456043  0.34310179  -0.00815811  1
  In  In55  1  0.67527530  0.32616910  0.67163598  1
  In  In56  1  0.34234506  0.50805322  0.83025033  1
  In  In57  1  0.65660567  0.34193516  -0.00671152  1
  In  In58  1  0.32836012  0.17099359  0.14471109  1
  In  In59  1  0.48438097  0.34101047  0.14859041  1
  In  In60  1  0.68467152  0.33991201  0.35080500  1
  In  In61  1  0.15433741  0.17980886  0.32944405  1
  In  In62  1  0.82621371  0.02406253  0.84323834  1
  In  In63  1  0.65755000  0.79848486  0.51242463  1
  In  In64  1  0.50532231  0.36002563  0.50011968  1
  In  In65  1  0.00236827  0.17895619  0.82504369  1
  In  In66  1  0.18279514  0.48005876  0.31889652  1
  In  In67  1  0.32527338  -0.01572923  0.32186981  1
  In  In68  1  0.84533964  0.64539947  0.16194488  1
  In  In69  1  0.16733681  0.50478233  0.00802187  1
  In  In70  1  0.67942732  0.00655346  0.31864004  1
  In  In71  1  0.31999282  0.65370825  0.66993817  1
  Te  Te72  1  0.09277907  0.07789001  0.08798513  1
  Te  Te73  1  0.08488351  0.09182542  0.42669210  1
  Te  Te74  1  0.09201502  0.08553576  0.74630976  1
  Te  Te75  1  0.08472512  0.41700082  0.09844212  1
  Te  Te76  1  0.06688170  0.41890707  0.39554126  1
  Te  Te77  1  0.08660353  0.46678535  0.75977770  1
  Te  Te78  1  0.09443300  0.74701681  0.05906918  1
  Te  Te79  1  0.08581300  0.73618375  0.41816408  1
  Te  Te80  1  0.08402960  0.73435854  0.73408532  1
  Te  Te81  1  0.42469451  0.07867619  0.08300911  1
  Te  Te82  1  0.40847096  0.09889288  0.39810906  1
  Te  Te83  1  0.38885378  0.10804680  0.76218512  1
  Te  Te84  1  0.38113424  0.43037404  0.08428409  1
  Te  Te85  1  0.40227628  0.42295409  0.40808741  1
  Te  Te86  1  0.42138816  0.41877233  0.74098050  1
  Te  Te87  1  0.42645848  0.73074221  0.04279264  1
  Te  Te88  1  0.43168337  0.72687939  0.44263330  1
  Te  Te89  1  0.37755261  0.75039683  0.77270714  1
  Te  Te90  1  0.75517544  0.05782440  0.09839930  1
  Te  Te91  1  0.75691412  0.09561903  0.41957119  1
  Te  Te92  1  0.74301017  0.10407281  0.73238989  1
  Te  Te93  1  0.76236318  0.40017343  0.09159301  1
  Te  Te94  1  0.78438654  0.43148497  0.41341086  1
  Te  Te95  1  0.74779160  0.43577291  0.74974744  1
  Te  Te96  1  0.74635209  0.73797497  0.07850505  1
  Te  Te97  1  0.77032414  0.74159634  0.43635855  1
  Te  Te98  1  0.75754530  0.73599491  0.73685597  1
  Te  Te99  1  0.07216119  0.27523767  0.24989537  1
  Te  Te100  1  0.09669998  0.24100789  0.60261855  1
  Te  Te101  1  0.11133554  0.28054509  0.87318808  1
  Te  Te102  1  0.09796398  0.58311020  0.24010942  1
  Te  Te103  1  0.08052346  0.64639172  0.60352068  1
  Te  Te104  1  0.07802051  0.57246013  0.90823312  1
  Te  Te105  1  0.08770259  0.92881068  0.23349258  1
  Te  Te106  1  0.09724895  0.90391281  0.59538977  1
  Te  Te107  1  0.10178710  0.89160206  0.92963068  1
  Te  Te108  1  0.38367872  0.27891578  0.25241424  1
  Te  Te109  1  0.42081057  0.26202529  0.58650877  1
  Te  Te110  1  0.45850603  0.24747525  0.93106170  1
  Te  Te111  1  0.39891047  0.59117242  0.23344917  1
  Te  Te112  1  0.42630417  0.57644832  0.60034904  1
  Te  Te113  1  0.40585714  0.60756687  0.92382328  1
  Te  Te114  1  0.42235569  0.91668154  0.22799035  1
  Te  Te115  1  0.42121317  0.89926933  0.58763716  1
  Te  Te116  1  0.36682330  0.89847143  0.91162224  1
  Te  Te117  1  0.75633032  0.24433570  0.25404973  1
  Te  Te118  1  0.77659267  0.28478438  0.56388820  1
  Te  Te119  1  0.76442127  0.27829896  0.90213189  1
  Te  Te120  1  0.75570031  0.57198011  0.26209086  1
  Te  Te121  1  0.76454011  0.59878959  0.58563482  1
  Te  Te122  1  0.75213917  0.57669637  0.91917567  1
  Te  Te123  1  0.75552102  0.89694597  0.25733024  1
  Te  Te124  1  0.76755643  0.90133314  0.57954121  1
  Te  Te125  1  0.73920991  0.91054708  0.91123721  1
  Te  Te126  1  0.22801836  0.27035020  0.08610138  1
  Te  Te127  1  0.25308248  0.26272870  0.41466901  1
  Te  Te128  1  0.22519828  0.24436800  0.77324402  1
  Te  Te129  1  0.26811710  0.59351344  0.07468928  1
  Te  Te130  1  0.22298614  0.58120320  0.42944282  1
  Te  Te131  1  0.22137186  0.55478152  0.74391131  1
  Te  Te132  1  0.23146774  0.90337530  0.09700517  1
  Te  Te133  1  0.23843810  0.93134179  0.43570779  1
  Te  Te134  1  0.23802301  0.89924353  0.74591478  1
  Te  Te135  1  0.55459811  0.23762838  0.05368912  1
  Te  Te136  1  0.57822448  0.24529049  0.41964146  1
  Te  Te137  1  0.56608944  0.26608053  0.76067720  1
  Te  Te138  1  0.56316294  0.59147202  0.09646558  1
  Te  Te139  1  0.58492714  0.57751994  0.41449883  1
  Te  Te140  1  0.55541836  0.63840147  0.74918957  1
  Te  Te141  1  0.55839820  0.89648868  0.06503271  1
  Te  Te142  1  0.59250850  0.90472422  0.40989368  1
  Te  Te143  1  0.57377551  0.90837350  0.76320766  1
  Te  Te144  1  0.91204911  0.25489314  0.07955266  1
  Te  Te145  1  0.93622963  0.29702633  0.46048534  1
  Te  Te146  1  0.91314928  0.27841327  0.75221960  1
  Te  Te147  1  0.95274147  0.57227291  0.09199575  1
  Te  Te148  1  0.90272067  0.54939110  0.40737056  1
  Te  Te149  1  0.95546870  0.55585891  0.75190034  1
  Te  Te150  1  0.91423961  0.91480589  0.09572892  1
  Te  Te151  1  0.92766978  0.90018822  0.41110069  1
  Te  Te152  1  0.90705738  0.91575602  0.76131709  1
  Te  Te153  1  0.24485675  0.08745597  0.24386255  1
  Te  Te154  1  0.23380493  0.07512834  0.58765758  1
  Te  Te155  1  0.25236056  0.09900577  0.92296572  1
  Te  Te156  1  0.28199110  0.40140621  0.24535252  1
  Te  Te157  1  0.22991688  0.42046243  0.58852375  1
  Te  Te158  1  0.25377969  0.41568919  0.91401893  1
  Te  Te159  1  0.26409518  0.76428651  0.26807612  1
  Te  Te160  1  0.22613685  0.73032724  0.57898629  1
  Te  Te161  1  0.27310769  0.76871746  0.89496540  1
  Te  Te162  1  0.57476865  0.07108467  0.22722898  1
  Te  Te163  1  0.56919592  0.06850039  0.56825879  1
  Te  Te164  1  0.56640771  0.07841671  0.90505765  1
  Te  Te165  1  0.58905491  0.40316243  0.24487944  1
  Te  Te166  1  0.58832639  0.43404677  0.60314300  1
  Te  Te167  1  0.57527124  0.43065171  0.89958910  1
  Te  Te168  1  0.57039238  0.73724623  0.24500172  1
  Te  Te169  1  0.58700028  0.70499777  0.60635187  1
  Te  Te170  1  0.53836684  0.76353054  0.93253657  1
  Te  Te171  1  0.90447212  0.09038799  0.25598859  1
  Te  Te172  1  0.94403897  0.09978390  0.56311250  1
  Te  Te173  1  0.92363953  0.10255884  0.93509009  1
  Te  Te174  1  0.93899381  0.45072007  0.29079418  1
  Te  Te175  1  0.94829276  0.41522997  0.56901502  1
  Te  Te176  1  0.92929170  0.42072546  0.89883790  1
  Te  Te177  1  0.91159379  0.74601861  0.25709637  1
  Te  Te178  1  0.93642034  0.68194374  0.56973506  1
  Te  Te179  1  0.92711532  0.72528661  0.92540578  1
