# generated using pymatgen
data_In2Te3
_symmetry_space_group_name_H-M   'P 1'
_cell_length_a   18.96859390
_cell_length_b   18.98176451
_cell_length_c   18.97048172
_cell_angle_alpha   89.95049523
_cell_angle_beta   90.12882584
_cell_angle_gamma   89.94661957
_symmetry_Int_Tables_number   1
_chemical_formula_structural   In2Te3
_chemical_formula_sum   'In72 Te108'
_cell_volume   6830.43920023
_cell_formula_units_Z   36
loop_
 _symmetry_equiv_pos_site_id
 _symmetry_equiv_pos_as_xyz
  1  'x, y, z'
loop_
 _atom_site_type_symbol
 _atom_site_label
 _atom_site_symmetry_multiplicity
 _atom_site_fract_x
 _atom_site_fract_y
 _atom_site_fract_z
 _atom_site_occupancy
  In  In0  1  0.33907845  -0.00078104  0.01488053  1
  In  In1  1  0.68549036  0.48922091  0.84011550  1
  In  In2  1  0.66641106  0.31974246  0.63389695  1
  In  In3  1  0.62249170  0.33443749  0.03307451  1
  In  In4  1  0.51402633  -0.00545945  0.86123795  1
  In  In5  1  0.80682307  -0.01005054  0.16112863  1
  In  In6  1  0.83301312  0.31933961  0.82737664  1
  In  In7  1  0.53760615  0.48313936  0.63529707  1
  In  In8  1  0.31020250  0.51634088  0.47836819  1
  In  In9  1  0.68136290  0.67980704  0.64210245  1
  In  In10  1  0.83687150  -0.03942281  0.50326846  1
  In  In11  1  0.81930051  0.17789094  -0.02769964  1
  In  In12  1  -0.01943970  0.50808710  0.18264030  1
  In  In13  1  0.00383304  0.34516290  0.34350779  1
  In  In14  1  0.34139044  0.66214125  0.64073467  1
  In  In15  1  0.65656423  0.03675987  0.01048999  1
  In  In16  1  -0.03259297  0.16940860  0.18071009  1
  In  In17  1  0.65357031  0.84368756  0.17656940  1
  In  In18  1  0.14115237  0.50449158  0.67917996  1
  In  In19  1  0.67311576  0.02695644  0.66095380  1
  In  In20  1  0.82992288  0.66802459  0.16016403  1
  In  In21  1  0.49343815  0.04612279  0.17196719  1
  In  In22  1  0.82767789  -0.01182752  0.80428275  1
  In  In23  1  0.48699995  0.66633443  0.18243720  1
  In  In24  1  0.33731296  0.35361680  0.67146940  1
  In  In25  1  0.04845898  0.79892575  0.16027344  1
  In  In26  1  0.37950308  0.03277457  0.33497627  1
  In  In27  1  0.46488597  0.82356680  0.02440512  1
  In  In28  1  0.85043903  0.83014847  -0.00751036  1
  In  In29  1  0.17910225  0.31954103  0.47030731  1
  In  In30  1  0.50393942  0.64699066  0.83831845  1
  In  In31  1  0.80263406  0.34885647  0.47666177  1
  In  In32  1  0.81822971  0.50577856  0.61214552  1
  In  In33  1  0.48462865  0.82188598  0.32986311  1
  In  In34  1  0.31645141  0.49113913  0.86201193  1
  In  In35  1  -0.02350092  0.67570301  0.65760559  1
  In  In36  1  0.64652447  0.52047829  0.19740703  1
  In  In37  1  0.19724232  0.22472648  0.02184332  1
  In  In38  1  0.15335259  0.66889919  0.82924265  1
  In  In39  1  0.83552814  0.33437187  0.19657030  1
  In  In40  1  0.18566025  0.81023886  -0.01282302  1
  In  In41  1  -0.00216402  -0.02539168  0.36074088  1
  In  In42  1  0.17337497  0.33667138  0.81830610  1
  In  In43  1  0.01693272  0.51842199  0.83323916  1
  In  In44  1  0.01971723  0.66846484  0.33656897  1
  In  In45  1  0.85361977  0.65998548  0.84411510  1
  In  In46  1  0.35231679  0.17541510  0.84932795  1
  In  In47  1  0.19477135  0.17794395  0.31965694  1
  In  In48  1  0.80286095  0.16629476  0.33716489  1
  In  In49  1  0.19576125  -0.01429581  0.83637551  1
  In  In50  1  0.17950600  -0.00946310  0.50255367  1
  In  In51  1  0.67230046  0.82285990  0.84828843  1
  In  In52  1  0.15981475  0.01886597  0.18524808  1
  In  In53  1  0.02127954  0.52063048  0.48574571  1
  In  In54  1  0.15509209  0.14573953  0.64885295  1
  In  In55  1  0.81523429  0.51172054  0.01472677  1
  In  In56  1  0.00962337  0.34626227  -0.01749558  1
  In  In57  1  0.67020019  -0.01909076  0.34548510  1
  In  In58  1  0.46786801  0.51466941  0.03450582  1
  In  In59  1  0.67064432  0.82448761  0.49081173  1
  In  In60  1  0.48461848  0.17289970  0.65568629  1
  In  In61  1  0.33101624  0.00830747  0.64311439  1
  In  In62  1  0.03021002  -0.00479090  0.01437328  1
  In  In63  1  -0.00058748  0.14484428  0.50488051  1
  In  In64  1  0.31127801  0.82048988  0.47910013  1
  In  In65  1  0.50175395  0.33865466  0.83413413  1
  In  In66  1  0.50375337  0.83739641  0.64984800  1
  In  In67  1  -0.02739354  0.15892557  0.82279160  1
  In  In68  1  0.49477221  0.49862427  0.35293210  1
  In  In69  1  0.29935468  0.81796962  0.20657155  1
  In  In70  1  0.21404518  0.40677014  0.16409888  1
  In  In71  1  0.00192976  -0.03451396  0.66036522  1
  Te  Te72  1  0.08576387  0.11437304  0.09100001  1
  Te  Te73  1  0.09720423  0.08882558  0.40211907  1
  Te  Te74  1  0.08039799  0.06778149  0.75553046  1
  Te  Te75  1  0.07019252  0.41013228  0.10334927  1
  Te  Te76  1  0.11241663  0.43508064  0.39653132  1
  Te  Te77  1  0.05579024  0.39880726  0.74527510  1
  Te  Te78  1  0.13228487  0.71048956  0.08130662  1
  Te  Te79  1  0.12600687  0.74711480  0.40864726  1
  Te  Te80  1  0.06087634  0.75247729  0.74996794  1
  Te  Te81  1  0.43153085  0.10946817  0.05060992  1
  Te  Te82  1  0.45361425  0.10231678  0.44214550  1
  Te  Te83  1  0.41466134  0.06865159  0.75955116  1
  Te  Te84  1  0.42814481  0.42294211  0.14344280  1
  Te  Te85  1  0.39337935  0.40938179  0.41643173  1
  Te  Te86  1  0.43049959  0.44437463  0.75124131  1
  Te  Te87  1  0.37201695  0.73392929  0.10348283  1
  Te  Te88  1  0.40792748  0.72749462  0.41404316  1
  Te  Te89  1  0.43204064  0.73841661  0.74039704  1
  Te  Te90  1  0.75309323  0.11728369  0.09564741  1
  Te  Te91  1  0.74875401  0.06884545  0.44012327  1
  Te  Te92  1  0.74562814  0.10085888  0.76404247  1
  Te  Te93  1  0.73718489  0.41631257  0.10101616  1
  Te  Te94  1  0.68911685  0.42270899  0.41808557  1
  Te  Te95  1  0.75004729  0.41336840  0.72407208  1
  Te  Te96  1  0.74508898  0.76518610  0.07973691  1
  Te  Te97  1  0.77478685  0.73564527  0.43899401  1
  Te  Te98  1  0.76169886  0.74414494  0.75517355  1
  Te  Te99  1  0.07537230  0.24909859  0.25247780  1
  Te  Te100  1  0.08267872  0.25409298  0.57095654  1
  Te  Te101  1  0.07899050  0.23807294  0.90228862  1
  Te  Te102  1  0.09228595  0.58381715  0.23985527  1
  Te  Te103  1  0.09375193  0.61096593  0.58410383  1
  Te  Te104  1  0.12233267  0.55946462  0.92397787  1
  Te  Te105  1  0.09027432  0.90769518  0.25989317  1
  Te  Te106  1  0.07956107  0.89663122  0.55545882  1
  Te  Te107  1  0.09005030  0.90552563  0.91093147  1
  Te  Te108  1  0.47753683  0.18838164  0.23798818  1
  Te  Te109  1  0.41476879  0.27469328  0.57644818  1
  Te  Te110  1  0.40402733  0.28608975  0.93125806  1
  Te  Te111  1  0.40615169  0.60654044  0.29329323  1
  Te  Te112  1  0.43036913  0.56391092  0.56499002  1
  Te  Te113  1  0.39307849  0.60091916  0.93170146  1
  Te  Te114  1  0.42077735  0.91680348  0.22919751  1
  Te  Te115  1  0.41039440  0.91214029  0.55864602  1
  Te  Te116  1  0.40134935  0.90629211  0.91244523  1
  Te  Te117  1  0.72584533  0.26826877  0.26619774  1
  Te  Te118  1  0.75218437  0.23410145  0.55226213  1
  Te  Te119  1  0.72118667  0.28091099  0.92259266  1
  Te  Te120  1  0.76136344  0.58607393  0.26008983  1
  Te  Te121  1  0.71252748  0.57636245  0.53480218  1
  Te  Te122  1  0.73636936  0.60445741  0.92459121  1
  Te  Te123  1  0.76610079  0.89102170  0.26875262  1
  Te  Te124  1  0.73925278  0.90386139  0.60365338  1
  Te  Te125  1  0.74470226  0.93115857  0.92889596  1
  Te  Te126  1  0.27416417  0.27473367  0.13425552  1
  Te  Te127  1  0.28768382  0.27437800  0.38005401  1
  Te  Te128  1  0.25274674  0.23146863  0.74074252  1
  Te  Te129  1  0.30371653  0.52007821  0.11079252  1
  Te  Te130  1  0.22667800  0.62729109  0.42385920  1
  Te  Te131  1  0.26087623  0.57142285  0.74356500  1
  Te  Te132  1  0.23817557  0.91808711  0.09417784  1
  Te  Te133  1  0.27081422  0.94107506  0.39314406  1
  Te  Te134  1  0.24197799  0.91494411  0.71650267  1
  Te  Te135  1  0.54326370  0.23190968  0.10212737  1
  Te  Te136  1  0.55970415  0.17611908  0.36602695  1
  Te  Te137  1  0.58176302  0.25113154  0.74257328  1
  Te  Te138  1  0.58272032  0.60087076  0.08527642  1
  Te  Te139  1  0.61667651  0.56208232  0.41044877  1
  Te  Te140  1  0.60491031  0.58213879  0.74007293  1
  Te  Te141  1  0.57304521  0.92165867  0.07367669  1
  Te  Te142  1  0.56301575  0.91191770  0.42365705  1
  Te  Te143  1  0.58886241  0.91269795  0.75572219  1
  Te  Te144  1  0.90870444  0.26559392  0.07086900  1
  Te  Te145  1  0.91964892  0.23689631  0.41094806  1
  Te  Te146  1  0.90647270  0.24528166  0.72563791  1
  Te  Te147  1  0.92876212  0.59463187  0.06869685  1
  Te  Te148  1  0.91632817  0.61657628  0.43492845  1
  Te  Te149  1  0.90180757  0.56032298  0.73293626  1
  Te  Te150  1  0.92705669  0.91995431  0.09696766  1
  Te  Te151  1  0.93648140  0.86969843  0.44266410  1
  Te  Te152  1  0.91729764  0.88712849  0.75207342  1
  Te  Te153  1  0.28155772  0.09451893  0.22897820  1
  Te  Te154  1  0.26411725  0.10945395  0.55143702  1
  Te  Te155  1  0.24382151  0.09549923  0.93240922  1
  Te  Te156  1  0.29438851  0.48818361  0.26017461  1
  Te  Te157  1  0.23234398  0.42202486  0.58342525  1
  Te  Te158  1  0.24957368  0.38215169  0.93755394  1
  Te  Te159  1  0.22836082  0.72026820  0.29359747  1
  Te  Te160  1  0.25024412  0.77174476  0.60566406  1
  Te  Te161  1  0.26160143  0.75650455  0.87560904  1
  Te  Te162  1  0.62027889  0.08208922  0.24631514  1
  Te  Te163  1  0.56371387  0.07609426  0.57546029  1
  Te  Te164  1  0.57488686  0.11476295  0.91724029  1
  Te  Te165  1  0.55083048  0.41383608  0.24054919  1
  Te  Te166  1  0.57497538  0.38174227  0.53287585  1
  Te  Te167  1  0.57097562  0.44400412  0.93045553  1
  Te  Te168  1  0.59542223  0.73875570  0.26820764  1
  Te  Te169  1  0.56649079  0.73453811  0.55892148  1
  Te  Te170  1  0.56452534  0.75345727  0.92842453  1
  Te  Te171  1  0.90510687  0.06104764  0.26873306  1
  Te  Te172  1  0.90911664  0.06468640  0.59347644  1
  Te  Te173  1  0.91818994  0.06773055  0.93338730  1
  Te  Te174  1  0.89668860  0.43767300  0.28921213  1
  Te  Te175  1  0.92079132  0.41825574  0.54515053  1
  Te  Te176  1  0.90195757  0.43134587  0.91496910  1
  Te  Te177  1  0.93056912  0.75062178  0.24029501  1
  Te  Te178  1  0.87647357  0.71771258  0.55487025  1
  Te  Te179  1  0.94400474  0.73781140  0.92893122  1
