# generated using pymatgen
data_In2Te3
_symmetry_space_group_name_H-M   'P 1'
_cell_length_a   19.02611751
_cell_length_b   19.01295107
_cell_length_c   18.99237480
_cell_angle_alpha   90.31940040
_cell_angle_beta   89.92939519
_cell_angle_gamma   90.01103517
_symmetry_Int_Tables_number   1
_chemical_formula_structural   In2Te3
_chemical_formula_sum   'In72 Te108'
_cell_volume   6870.23973795
_cell_formula_units_Z   36
loop_
 _symmetry_equiv_pos_site_id
 _symmetry_equiv_pos_as_xyz
  1  'x, y, z'
loop_
 _atom_site_type_symbol
 _atom_site_label
 _atom_site_symmetry_multiplicity
 _atom_site_fract_x
 _atom_site_fract_y
 _atom_site_fract_z
 _atom_site_occupancy
  In  In0  1  0.49063510  0.33455394  0.51646756  1
  In  In1  1  0.49616242  0.47946648  0.00458217  1
  In  In2  1  0.84031196  -0.00651922  0.49960772  1
  In  In3  1  0.19246268  0.65106694  0.80951697  1
  In  In4  1  0.65921019  0.34683526  0.34465939  1
  In  In5  1  0.49777800  0.68805142  0.15135227  1
  In  In6  1  0.82721413  0.64646729  0.51027835  1
  In  In7  1  0.02214426  -0.00089361  0.67266909  1
  In  In8  1  0.65673655  0.67261894  0.37357748  1
  In  In9  1  0.02289262  0.66703200  0.65921968  1
  In  In10  1  0.09454428  0.16849839  0.04306067  1
  In  In11  1  0.48626778  0.02094395  0.15503303  1
  In  In12  1  0.34359692  0.55385668  0.77527469  1
  In  In13  1  0.48218784  0.49267351  0.35668110  1
  In  In14  1  0.16131231  0.66055293  0.50120717  1
  In  In15  1  0.49099489  0.34608775  0.81772787  1
  In  In16  1  0.18543717  -0.02700964  0.49015433  1
  In  In17  1  0.83839087  0.82993058  0.32826776  1
  In  In18  1  0.34966536  0.01211868  0.67298421  1
  In  In19  1  0.17585711  0.20362868  0.64825369  1
  In  In20  1  0.17712924  0.33618982  0.82777610  1
  In  In21  1  0.00925392  0.65940981  -0.00154268  1
  In  In22  1  0.81606496  0.15753019  0.66988494  1
  In  In23  1  0.30517067  0.32739619  -0.00227457  1
  In  In24  1  0.30912242  -0.03384069  0.33027228  1
  In  In25  1  0.83507086  0.49858319  0.32307903  1
  In  In26  1  0.84767073  0.30552679  0.15435706  1
  In  In27  1  0.32039049  0.64464025  0.36670617  1
  In  In28  1  0.17644308  0.84559164  -0.02694658  1
  In  In29  1  0.46736599  0.18586644  0.33163089  1
  In  In30  1  0.34372219  0.67081837  -0.00933945  1
  In  In31  1  0.66042724  0.01021669  -0.01045894  1
  In  In32  1  0.19791578  0.15696312  0.33891612  1
  In  In33  1  0.65248117  0.19003351  0.16759139  1
  In  In34  1  0.65128600  0.19318145  0.85096536  1
  In  In35  1  0.49161203  0.82907787  0.36374399  1
  In  In36  1  -0.00175418  0.68385489  0.33771126  1
  In  In37  1  0.84467676  -0.01546714  0.84882715  1
  In  In38  1  0.80473556  0.34191965  0.84299789  1
  In  In39  1  0.65070743  0.84541594  0.83973729  1
  In  In40  1  0.14010246  0.48672604  0.34988804  1
  In  In41  1  0.33400818  0.15017537  0.87456978  1
  In  In42  1  0.65443273  -0.01352960  0.67944609  1
  In  In43  1  0.66835066  0.82714037  0.14186273  1
  In  In44  1  0.85903953  0.31697813  0.50359860  1
  In  In45  1  -0.00416099  0.30322618  0.64398149  1
  In  In46  1  0.81858999  0.68603963  0.81383362  1
  In  In47  1  0.84949837  0.03335890  0.18182646  1
  In  In48  1  0.69252815  0.52896186  0.74431496  1
  In  In49  1  0.47248587  0.70991932  0.81914791  1
  In  In50  1  0.49934236  0.00776442  0.50822400  1
  In  In51  1  0.03338057  0.16538136  0.49058457  1
  In  In52  1  0.66627189  0.66301359  -0.02490885  1
  In  In53  1  0.67317598  0.14088016  0.50147158  1
  In  In54  1  -0.00509706  0.82413462  0.83948207  1
  In  In55  1  -0.01515372  0.82848047  0.49111684  1
  In  In56  1  0.37420785  -0.03424757  -0.02707860  1
  In  In57  1  -0.02844286  0.47966361  0.83350333  1
  In  In58  1  0.17409290  0.48432366  -0.00623974  1
  In  In59  1  0.01201541  0.50912691  0.19506647  1
  In  In60  1  -0.00756367  -0.00159000  0.02393714  1
  In  In61  1  0.16036291  0.75150316  0.19427641  1
  In  In62  1  0.20483577  0.01079397  0.83965270  1
  In  In63  1  0.66108600  0.34006227  0.01565852  1
  In  In64  1  0.31067994  0.54312838  0.16321754  1
  In  In65  1  0.15047046  0.33037405  0.18757812  1
  In  In66  1  0.49977916  0.53520368  0.63961656  1
  In  In67  1  0.31844542  0.20499896  0.50163174  1
  In  In68  1  0.66105815  -0.00446004  0.34754313  1
  In  In69  1  0.64834490  0.50626877  0.21461038  1
  In  In70  1  0.00442301  0.16762821  0.85317348  1
  In  In71  1  0.82632085  0.51051340  0.01721106  1
  Te  Te72  1  0.10050262  0.04119335  0.11398422  1
  Te  Te73  1  0.09789580  0.05857215  0.40313768  1
  Te  Te74  1  0.09493941  0.11126951  0.74485401  1
  Te  Te75  1  0.07640634  0.42056585  0.08724515  1
  Te  Te76  1  0.04485757  0.38581911  0.39594833  1
  Te  Te77  1  0.06461380  0.39610567  0.74637094  1
  Te  Te78  1  0.08021020  0.77641995  0.06768784  1
  Te  Te79  1  0.09925486  0.76703153  0.41298948  1
  Te  Te80  1  0.09882462  0.75975358  0.75215596  1
  Te  Te81  1  0.41598196  0.08647914  0.04531220  1
  Te  Te82  1  0.40544716  0.08134152  0.41745822  1
  Te  Te83  1  0.42929113  0.07263761  0.78606212  1
  Te  Te84  1  0.38099488  0.43054837  0.08675598  1
  Te  Te85  1  0.39309649  0.39717124  0.42409140  1
  Te  Te86  1  0.41527204  0.43235781  0.71917878  1
  Te  Te87  1  0.40255092  0.77373160  0.08015177  1
  Te  Te88  1  0.43638825  0.71024117  0.44037451  1
  Te  Te89  1  0.38012255  0.72373971  0.70385502  1
  Te  Te90  1  0.73841403  0.08942718  0.09417837  1
  Te  Te91  1  0.77127893  0.08534199  0.39998019  1
  Te  Te92  1  0.74546820  0.07449413  0.77490302  1
  Te  Te93  1  0.74603581  0.42704078  0.11677019  1
  Te  Te94  1  0.76536465  0.41549366  0.42676857  1
  Te  Te95  1  0.78307523  0.41519265  0.71704495  1
  Te  Te96  1  0.74974539  0.72471916  0.07788269  1
  Te  Te97  1  0.76119800  0.76426576  0.43792142  1
  Te  Te98  1  0.73187701  0.77508655  0.73941394  1
  Te  Te99  1  0.08404178  0.22429140  0.26743041  1
  Te  Te100  1  0.09356118  0.30841380  0.51777095  1
  Te  Te101  1  0.08431240  0.27221899  0.92733442  1
  Te  Te102  1  0.10925843  0.61189987  0.25181071  1
  Te  Te103  1  0.06783486  0.56559331  0.56294570  1
  Te  Te104  1  0.08288604  0.57100926  0.89778960  1
  Te  Te105  1  0.19996159  0.88255528  0.25691823  1
  Te  Te106  1  0.08733531  0.89922355  0.58027119  1
  Te  Te107  1  0.07505051  0.93933250  0.89853089  1
  Te  Te108  1  0.36176539  0.21833396  0.23415012  1
  Te  Te109  1  0.42354847  0.23510383  0.59902733  1
  Te  Te110  1  0.42279705  0.26443027  0.92602543  1
  Te  Te111  1  0.42853140  0.58864337  0.24939653  1
  Te  Te112  1  0.38667034  0.61659485  0.58500027  1
  Te  Te113  1  0.43494163  0.58133410  0.90749885  1
  Te  Te114  1  0.43574254  0.91795329  0.25790443  1
  Te  Te115  1  0.40935435  0.91307446  0.57802047  1
  Te  Te116  1  0.42846522  0.91920372  0.84509072  1
  Te  Te117  1  0.75092789  0.25635652  0.26087128  1
  Te  Te118  1  0.74143699  0.25076655  0.58031460  1
  Te  Te119  1  0.75575350  0.24319154  0.94778891  1
  Te  Te120  1  0.74880622  0.60599655  0.26387237  1
  Te  Te121  1  0.74673217  0.57770316  0.60994240  1
  Te  Te122  1  0.75174244  0.56509177  0.89568600  1
  Te  Te123  1  0.74067652  0.91894424  0.24372481  1
  Te  Te124  1  0.75344035  0.92254273  0.59188517  1
  Te  Te125  1  0.75373404  0.90285971  0.93643471  1
  Te  Te126  1  0.24955387  0.24701166  0.10933697  1
  Te  Te127  1  0.27171270  0.28015688  0.38142520  1
  Te  Te128  1  0.27013887  0.23605131  0.76539087  1
  Te  Te129  1  0.22305937  0.61173843  0.06123732  1
  Te  Te130  1  0.24396426  0.54023567  0.44507395  1
  Te  Te131  1  0.21415168  0.54512104  0.70883988  1
  Te  Te132  1  0.28080128  0.89933562  0.06443994  1
  Te  Te133  1  0.29487366  0.88153884  0.45303308  1
  Te  Te134  1  0.24510553  0.92508848  0.72987057  1
  Te  Te135  1  0.55809940  0.26790182  0.08968604  1
  Te  Te136  1  0.58458074  0.23663695  0.42075890  1
  Te  Te137  1  0.59418245  0.27182130  0.74431464  1
  Te  Te138  1  0.58401144  0.57362930  0.08699918  1
  Te  Te139  1  0.59992970  0.54368435  0.43509200  1
  Te  Te140  1  0.57100475  0.62083277  0.74443809  1
  Te  Te141  1  0.57212083  0.92115986  0.07475729  1
  Te  Te142  1  0.59464293  0.90433791  0.44657878  1
  Te  Te143  1  0.54858071  0.90198476  0.74411071  1
  Te  Te144  1  0.95377368  0.21747924  0.09533486  1
  Te  Te145  1  0.93144735  0.23191094  0.40763091  1
  Te  Te146  1  0.90311596  0.24222045  0.76505509  1
  Te  Te147  1  0.92292442  0.59075700  0.10243844  1
  Te  Te148  1  0.92579696  0.57798885  0.41558049  1
  Te  Te149  1  0.92207199  0.59466896  0.75045148  1
  Te  Te150  1  0.90008434  0.91916196  0.10467256  1
  Te  Te151  1  0.93074507  0.93122172  0.39426596  1
  Te  Te152  1  0.91844749  0.91035069  0.73933529  1
  Te  Te153  1  0.28247878  0.08358508  0.23755175  1
  Te  Te154  1  0.24325329  0.08476909  0.57760208  1
  Te  Te155  1  0.21277541  0.10610553  0.95322270  1
  Te  Te156  1  0.24244606  0.43756738  0.24703078  1
  Te  Te157  1  0.24362931  0.31855286  0.57991500  1
  Te  Te158  1  0.27586609  0.43600532  0.89252153  1
  Te  Te159  1  0.29375413  0.75064285  0.26529777  1
  Te  Te160  1  0.25933793  0.70734630  0.60370219  1
  Te  Te161  1  0.26796970  0.75586661  0.89094557  1
  Te  Te162  1  0.57703067  0.08911707  0.26310701  1
  Te  Te163  1  0.57674950  0.09351278  0.60776321  1
  Te  Te164  1  0.56807685  0.08559679  0.90408316  1
  Te  Te165  1  0.54975141  0.39788155  0.25325697  1
  Te  Te166  1  0.58495351  0.43392993  0.57200221  1
  Te  Te167  1  0.59446604  0.41958042  0.90616405  1
  Te  Te168  1  0.58459481  0.75518951  0.25810389  1
  Te  Te169  1  0.57781077  0.68049185  0.50429654  1
  Te  Te170  1  0.56269485  0.76148362  0.93130941  1
  Te  Te171  1  0.95574538  0.12884119  0.22034630  1
  Te  Te172  1  0.92938400  0.09351059  0.58853080  1
  Te  Te173  1  0.90556320  0.09011599  0.93732289  1
  Te  Te174  1  0.92342013  0.39807545  0.25026144  1
  Te  Te175  1  0.91595119  0.41699843  0.59684290  1
  Te  Te176  1  0.90419439  0.40245082  0.94445951  1
  Te  Te177  1  0.92770983  0.76016483  0.23611590  1
  Te  Te178  1  0.91195750  0.74587404  0.59188953  1
  Te  Te179  1  0.90422472  0.74253627  0.92761827  1
