# generated using pymatgen
data_In2Te3
_symmetry_space_group_name_H-M   'P 1'
_cell_length_a   18.75737665
_cell_length_b   18.75792769
_cell_length_c   18.74461210
_cell_angle_alpha   89.97760918
_cell_angle_beta   89.98444726
_cell_angle_gamma   89.88565210
_symmetry_Int_Tables_number   1
_chemical_formula_structural   In2Te3
_chemical_formula_sum   'In72 Te108'
_cell_volume   6595.26879263
_cell_formula_units_Z   36
loop_
 _symmetry_equiv_pos_site_id
 _symmetry_equiv_pos_as_xyz
  1  'x, y, z'
loop_
 _atom_site_type_symbol
 _atom_site_label
 _atom_site_symmetry_multiplicity
 _atom_site_fract_x
 _atom_site_fract_y
 _atom_site_fract_z
 _atom_site_occupancy
  In  In0  1  0.15397109  0.00487772  0.50091003  1
  In  In1  1  0.64393623  0.48155315  0.16002274  1
  In  In2  1  0.01741739  0.33738529  0.34244234  1
  In  In3  1  0.48281822  0.35542725  0.49773264  1
  In  In4  1  0.82851560  0.50861224  0.33963109  1
  In  In5  1  0.33156355  0.51896361  0.49662442  1
  In  In6  1  0.17848654  0.65720566  0.84498679  1
  In  In7  1  0.32700238  0.01001725  0.32490537  1
  In  In8  1  -0.00498753  0.68334416  0.34243404  1
  In  In9  1  0.48715928  -0.02157457  0.17281410  1
  In  In10  1  0.19030654  0.49211146  0.32666376  1
  In  In11  1  0.00246828  0.32557046  0.66729736  1
  In  In12  1  0.35123640  0.35970787  -0.00249293  1
  In  In13  1  0.65462486  0.50332077  0.49569407  1
  In  In14  1  0.00139478  -0.02025230  0.33301234  1
  In  In15  1  0.51192023  0.16706898  -0.02467399  1
  In  In16  1  0.16350710  0.51407495  0.67242430  1
  In  In17  1  0.49246692  0.18401038  0.31769984  1
  In  In18  1  0.01485702  0.35313686  -0.00379778  1
  In  In19  1  0.00222779  0.50706455  0.13817637  1
  In  In20  1  0.18530313  0.83385842  0.66184929  1
  In  In21  1  0.49779811  0.82167445  0.66669780  1
  In  In22  1  -0.01906859  -0.01443943  0.69546030  1
  In  In23  1  0.69747599  0.01362623  0.67591786  1
  In  In24  1  0.85242406  0.33241224  0.82448802  1
  In  In25  1  0.67415141  0.81765560  0.19011162  1
  In  In26  1  0.48231329  0.35343511  0.17539344  1
  In  In27  1  0.84725598  0.15579343  -0.01921363  1
  In  In28  1  0.01835592  0.15983811  0.17877101  1
  In  In29  1  0.82122398  0.32676265  0.52623570  1
  In  In30  1  0.67258930  -0.00838658  -0.02637806  1
  In  In31  1  0.85610476  0.67200491  0.17034976  1
  In  In32  1  0.65430656  0.35304106  -0.00592527  1
  In  In33  1  0.66173766  0.63866978  -0.00836079  1
  In  In34  1  0.01048829  -0.02440026  -0.03368712  1
  In  In35  1  0.69126271  0.82763865  0.84603280  1
  In  In36  1  0.83782155  0.49343367  0.68252191  1
  In  In37  1  0.14169390  0.15849396  0.67331661  1
  In  In38  1  0.52450360  0.31955638  0.81775525  1
  In  In39  1  0.82018094  0.32510923  0.16773740  1
  In  In40  1  -0.00670644  0.15659220  0.52560807  1
  In  In41  1  0.17380584  0.65262093  0.14561091  1
  In  In42  1  0.49062110  0.00316317  0.82540890  1
  In  In43  1  0.15194365  0.82422907  0.33156626  1
  In  In44  1  0.16804090  0.17039320  -0.01600514  1
  In  In45  1  0.66635877  0.16936541  0.52043326  1
  In  In46  1  0.34134758  0.79037007  0.48224766  1
  In  In47  1  0.32486226  0.18837610  0.49507238  1
  In  In48  1  0.33657011  0.17554283  0.15544541  1
  In  In49  1  0.82798880  0.67042351  0.84099162  1
  In  In50  1  0.46837322  0.64053222  0.85862014  1
  In  In51  1  0.33984292  -0.01830242  0.68798659  1
  In  In52  1  0.83977613  0.84503653  -0.00500024  1
  In  In53  1  0.33832734  0.34075585  0.67062174  1
  In  In54  1  0.53042761  -0.00963634  0.49931272  1
  In  In55  1  0.84853560  0.67368854  0.50313332  1
  In  In56  1  0.30199796  -0.00982526  -0.00392699  1
  In  In57  1  0.48230855  0.80379497  0.02762616  1
  In  In58  1  0.31702703  0.82123978  0.83538701  1
  In  In59  1  0.66472658  0.84041219  0.51672766  1
  In  In60  1  0.63103722  0.65013808  0.33579064  1
  In  In61  1  0.65000293  0.67482481  0.68096898  1
  In  In62  1  0.32736864  0.81593612  0.16575412  1
  In  In63  1  0.17281869  0.33984683  0.84385233  1
  In  In64  1  0.49577747  0.50221371  0.66203760  1
  In  In65  1  0.01054913  0.67490368  0.66964682  1
  In  In66  1  0.83995709  0.83430752  0.33959628  1
  In  In67  1  0.19093300  0.18421386  0.32417499  1
  In  In68  1  0.02284648  0.66935626  -0.00930334  1
  In  In69  1  0.66972177  -0.00650024  0.35028393  1
  In  In70  1  0.81665573  0.16545741  0.33074670  1
  In  In71  1  0.68736046  0.16288871  0.14484870  1
  Te  Te72  1  0.08125831  0.07740198  0.06769971  1
  Te  Te73  1  0.08540927  0.10429794  0.40541786  1
  Te  Te74  1  0.07555347  0.07353190  0.77525700  1
  Te  Te75  1  0.11192809  0.42778267  0.07910724  1
  Te  Te76  1  0.09069788  0.43527410  0.42279900  1
  Te  Te77  1  0.07504007  0.42253407  0.75921816  1
  Te  Te78  1  0.09102380  0.76088566  0.08547239  1
  Te  Te79  1  0.07614693  0.75861239  0.43979587  1
  Te  Te80  1  0.09228505  0.76585263  0.76380917  1
  Te  Te81  1  0.42417816  0.07656473  0.07180314  1
  Te  Te82  1  0.42490838  0.08350546  0.41934182  1
  Te  Te83  1  0.41017483  0.09837433  0.74628167  1
  Te  Te84  1  0.39743838  0.45599125  0.10561344  1
  Te  Te85  1  0.41862088  0.44466101  0.39638636  1
  Te  Te86  1  0.41829555  0.42349736  0.76823370  1
  Te  Te87  1  0.40118759  0.69906601  0.09930322  1
  Te  Te88  1  0.41236435  0.69330133  0.38854944  1
  Te  Te89  1  0.40611131  0.73199115  0.74910554  1
  Te  Te90  1  0.77054222  0.05905917  0.07389000  1
  Te  Te91  1  0.76041271  0.07588691  0.44163026  1
  Te  Te92  1  0.72960097  0.11920908  0.77474408  1
  Te  Te93  1  0.76038320  0.42979185  0.07435515  1
  Te  Te94  1  0.74585912  0.40716451  0.41832827  1
  Te  Te95  1  0.74259881  0.41192194  0.75939475  1
  Te  Te96  1  0.74638437  0.74790258  0.07266823  1
  Te  Te97  1  0.74088561  0.73752637  0.40881091  1
  Te  Te98  1  0.76577886  0.75936086  0.73014612  1
  Te  Te99  1  0.10330893  0.27412423  0.23277860  1
  Te  Te100  1  0.09818832  0.25927825  0.56635846  1
  Te  Te101  1  0.06540222  0.24640201  0.89957345  1
  Te  Te102  1  0.07192832  0.58604569  0.24888884  1
  Te  Te103  1  0.09260599  0.59860973  0.57220179  1
  Te  Te104  1  0.09472174  0.56027484  0.92134243  1
  Te  Te105  1  0.10272435  0.92875439  0.23941974  1
  Te  Te106  1  0.07425021  0.91353594  0.59086858  1
  Te  Te107  1  0.10341712  0.90138548  0.87759269  1
  Te  Te108  1  0.37652344  0.27616003  0.26823209  1
  Te  Te109  1  0.42884758  0.24603350  0.59150639  1
  Te  Te110  1  0.41162083  0.25322458  0.90251878  1
  Te  Te111  1  0.42391302  0.63846782  0.24918752  1
  Te  Te112  1  0.41156711  0.60117708  0.59244029  1
  Te  Te113  1  0.35374690  0.57854627  0.93407744  1
  Te  Te114  1  0.41128138  0.89218364  0.27151796  1
  Te  Te115  1  0.41236891  0.90929312  0.57069764  1
  Te  Te116  1  0.42221156  0.90801026  0.92432080  1
  Te  Te117  1  0.71854345  0.25999394  0.26081576  1
  Te  Te118  1  0.73905087  0.25173648  0.62647345  1
  Te  Te119  1  0.74951253  0.25862679  0.92409373  1
  Te  Te120  1  0.74567946  0.59139868  0.24020392  1
  Te  Te121  1  0.74738401  0.58670195  0.58663292  1
  Te  Te122  1  0.73842954  0.56287920  0.89102566  1
  Te  Te123  1  0.76088392  0.92822856  0.24570528  1
  Te  Te124  1  0.76758053  0.91855348  0.58620560  1
  Te  Te125  1  0.78956412  0.94468361  0.87635296  1
  Te  Te126  1  0.25027289  0.26732004  0.07012591  1
  Te  Te127  1  0.24618332  0.28604495  0.41788541  1
  Te  Te128  1  0.24526521  0.24637113  0.74717743  1
  Te  Te129  1  0.27072736  0.56784992  0.06801699  1
  Te  Te130  1  0.24941276  0.60624592  0.40459719  1
  Te  Te131  1  0.26749571  0.58999899  0.74619899  1
  Te  Te132  1  0.23048957  0.89304222  0.08065160  1
  Te  Te133  1  0.25401541  0.91640573  0.42504396  1
  Te  Te134  1  0.22439050  0.93660446  0.78074784  1
  Te  Te135  1  0.56907840  0.24814383  0.09353763  1
  Te  Te136  1  0.57695598  0.25156252  0.42497643  1
  Te  Te137  1  0.62016197  0.23962918  0.73536538  1
  Te  Te138  1  0.56272528  0.57806973  0.08191978  1
  Te  Te139  1  0.53998133  0.56850110  0.42327658  1
  Te  Te140  1  0.57950708  0.57576114  0.76985550  1
  Te  Te141  1  0.59192381  0.91059996  0.08009603  1
  Te  Te142  1  0.57384589  0.88449188  0.39824504  1
  Te  Te143  1  0.59298328  0.90852906  0.74805730  1
  Te  Te144  1  0.92303927  0.24621920  0.08740694  1
  Te  Te145  1  0.91122159  0.25087054  0.41866109  1
  Te  Te146  1  0.91237278  0.22813060  0.73277185  1
  Te  Te147  1  0.90416223  0.58821512  0.05375647  1
  Te  Te148  1  0.93385206  0.57018994  0.42899967  1
  Te  Te149  1  0.92948659  0.58346108  0.76410110  1
  Te  Te150  1  0.93066756  0.92169638  0.08079070  1
  Te  Te151  1  0.91513826  0.91816846  0.43479177  1
  Te  Te152  1  0.90361989  0.89444340  0.78404568  1
  Te  Te153  1  0.23889942  0.07657173  0.22051515  1
  Te  Te154  1  0.25536108  0.08213283  0.58613220  1
  Te  Te155  1  0.26902052  0.09812227  0.90220164  1
  Te  Te156  1  0.28273966  0.40375239  0.25275981  1
  Te  Te157  1  0.24729467  0.42046878  0.58066270  1
  Te  Te158  1  0.26183432  0.44337673  0.90606772  1
  Te  Te159  1  0.24588131  0.72619341  0.26264193  1
  Te  Te160  1  0.25249059  0.72826313  0.58257160  1
  Te  Te161  1  0.24332072  0.75162027  0.94215861  1
  Te  Te162  1  0.58482191  0.07908693  0.24698424  1
  Te  Te163  1  0.57392430  0.08371346  0.60872891  1
  Te  Te164  1  0.61025824  0.09821410  0.87785754  1
  Te  Te165  1  0.57046116  0.42186090  0.27323934  1
  Te  Te166  1  0.59218930  0.40509949  0.59449718  1
  Te  Te167  1  0.54828318  0.42470771  0.92181950  1
  Te  Te168  1  0.55805388  0.73123743  0.22994202  1
  Te  Te169  1  0.56785918  0.73105074  0.56487245  1
  Te  Te170  1  0.57294039  0.75120209  0.90803217  1
  Te  Te171  1  0.91101237  0.07771315  0.24991171  1
  Te  Te172  1  0.90067097  0.09185592  0.61966632  1
  Te  Te173  1  0.94172006  0.08690300  0.88849436  1
  Te  Te174  1  0.91510430  0.41966399  0.24621772  1
  Te  Te175  1  0.92562897  0.42438447  0.57710330  1
  Te  Te176  1  0.91389073  0.42836260  0.91998662  1
  Te  Te177  1  0.93885901  0.77959110  0.23437215  1
  Te  Te178  1  0.91902246  0.76527494  0.59270532  1
  Te  Te179  1  0.93247076  0.76398844  0.90371626  1
