# generated using pymatgen
data_In2Te3
_symmetry_space_group_name_H-M   'P 1'
_cell_length_a   18.96461603
_cell_length_b   18.95892101
_cell_length_c   19.02255951
_cell_angle_alpha   89.99236014
_cell_angle_beta   89.85478770
_cell_angle_gamma   89.93867190
_symmetry_Int_Tables_number   1
_chemical_formula_structural   In2Te3
_chemical_formula_sum   'In72 Te108'
_cell_volume   6839.50978679
_cell_formula_units_Z   36
loop_
 _symmetry_equiv_pos_site_id
 _symmetry_equiv_pos_as_xyz
  1  'x, y, z'
loop_
 _atom_site_type_symbol
 _atom_site_label
 _atom_site_symmetry_multiplicity
 _atom_site_fract_x
 _atom_site_fract_y
 _atom_site_fract_z
 _atom_site_occupancy
  In  In0  1  0.01138688  0.16291665  0.51570309  1
  In  In1  1  0.82613149  0.65921966  0.15555195  1
  In  In2  1  0.18147185  0.50614927  0.34994369  1
  In  In3  1  0.84524738  0.31292263  0.84461468  1
  In  In4  1  0.86216973  0.35732683  0.53142660  1
  In  In5  1  0.32857776  0.53416379  0.83365561  1
  In  In6  1  0.23211180  0.13128748  0.36951650  1
  In  In7  1  0.67826565  -0.00406377  0.32177149  1
  In  In8  1  0.30092978  0.36870488  0.68276157  1
  In  In9  1  0.49128980  0.67119977  0.49163480  1
  In  In10  1  0.31419038  0.17048284  0.18726299  1
  In  In11  1  0.01548845  0.69208193  0.66032434  1
  In  In12  1  0.33170881  0.66169727  0.00385698  1
  In  In13  1  0.66360984  0.18324880  0.51107082  1
  In  In14  1  0.48835579  -0.01675886  0.15631305  1
  In  In15  1  0.89895180  -0.02800405  0.22057315  1
  In  In16  1  -0.02271687  0.49900890  0.52206581  1
  In  In17  1  0.33413888  0.33883231  0.34900853  1
  In  In18  1  0.66256541  0.01904732  -0.01056732  1
  In  In19  1  0.17443054  0.69136388  0.81938985  1
  In  In20  1  0.13899639  0.32724131  0.16510301  1
  In  In21  1  0.47419404  0.18961096  0.66555779  1
  In  In22  1  0.67786838  0.83920202  0.46674282  1
  In  In23  1  0.65842182  0.35737182  0.29268346  1
  In  In24  1  0.50945228  0.15915179  -0.00422772  1
  In  In25  1  0.67596900  0.66007892  0.64980994  1
  In  In26  1  0.82537669  0.01289674  0.82838678  1
  In  In27  1  0.09412821  0.83085063  0.47889298  1
  In  In28  1  0.68318565  0.54156366  0.84317282  1
  In  In29  1  0.82022803  0.85844649  0.68517906  1
  In  In30  1  0.43579234  0.84667544  0.68035236  1
  In  In31  1  0.84823681  0.65372491  0.51986910  1
  In  In32  1  0.88206635  0.01180063  0.42252264  1
  In  In33  1  0.84521375  0.81403774  0.34208903  1
  In  In34  1  0.64498191  0.80820985  0.84311085  1
  In  In35  1  0.33746626  0.50363234  0.15290751  1
  In  In36  1  0.00260272  0.50609862  0.16948250  1
  In  In37  1  0.47779773  0.51082075  0.66085032  1
  In  In38  1  0.47325098  0.33853322  0.47149816  1
  In  In39  1  0.15129268  0.34790820  0.54065083  1
  In  In40  1  0.66079025  0.17123919  0.15510005  1
  In  In41  1  0.82935098  0.18309771  0.01413208  1
  In  In42  1  0.67793518  0.34892565  0.01589550  1
  In  In43  1  0.47027348  0.15583927  0.34890528  1
  In  In44  1  0.49388553  0.83258606  -0.00538229  1
  In  In45  1  0.18385287  0.67146680  0.15534388  1
  In  In46  1  -0.02445018  0.33794890  -0.01139667  1
  In  In47  1  0.19848773  -0.02046048  0.80913778  1
  In  In48  1  0.52446435  0.34605589  0.86197215  1
  In  In49  1  0.33016130  0.15508827  0.82433658  1
  In  In50  1  0.63591559  0.00241949  0.65508403  1
  In  In51  1  0.18349821  0.00478934  0.53819870  1
  In  In52  1  -0.00331920  0.82714997  0.15302706  1
  In  In53  1  0.51020397  0.82572292  0.32475135  1
  In  In54  1  0.30920968  0.67858228  0.31105765  1
  In  In55  1  0.84196169  0.14392278  0.64688286  1
  In  In56  1  0.82115694  0.34545074  0.15894290  1
  In  In57  1  0.63784801  0.35601023  0.67686962  1
  In  In58  1  0.01980839  0.29682271  0.35131052  1
  In  In59  1  0.66719888  0.51970475  0.47023733  1
  In  In60  1  0.31996398  0.84465988  0.17510099  1
  In  In61  1  0.85055437  0.48851320  0.34972816  1
  In  In62  1  0.15038423  0.80853901  -0.01190280  1
  In  In63  1  0.85037247  0.75174868  -0.02671474  1
  In  In64  1  0.30038355  0.82386950  0.52678535  1
  In  In65  1  0.33213765  -0.03021898  -0.00757718  1
  In  In66  1  0.86266812  0.50008592  0.71457322  1
  In  In67  1  0.14446573  0.16592505  0.01538507  1
  In  In68  1  0.61923129  0.62471546  0.24510947  1
  In  In69  1  0.00059118  -0.02258082  0.00469651  1
  In  In70  1  0.03012969  0.14278145  0.82996602  1
  In  In71  1  0.30836808  0.36530645  -0.03416335  1
  Te  Te72  1  0.06135322  0.07574844  0.09455343  1
  Te  Te73  1  0.10252672  0.07574219  0.43274343  1
  Te  Te74  1  0.11231509  0.07003453  0.73225942  1
  Te  Te75  1  0.07682486  0.42246147  0.06540953  1
  Te  Te76  1  0.07044526  0.42292853  0.41957277  1
  Te  Te77  1  0.16679620  0.38766552  0.75187350  1
  Te  Te78  1  0.06275200  0.71441100  0.07177059  1
  Te  Te79  1  0.11002267  0.68406637  0.49142990  1
  Te  Te80  1  0.10799498  0.78832623  0.72696897  1
  Te  Te81  1  0.40395331  0.08494095  0.08003153  1
  Te  Te82  1  0.36513976  0.10218168  0.43693049  1
  Te  Te83  1  0.40351302  0.07176217  0.72539977  1
  Te  Te84  1  0.40929743  0.42061961  0.05522368  1
  Te  Te85  1  0.40147018  0.45224974  0.41386561  1
  Te  Te86  1  0.42627712  0.41839763  0.77016317  1
  Te  Te87  1  0.41108405  0.75454540  0.09745152  1
  Te  Te88  1  0.40086062  0.76283122  0.41149152  1
  Te  Te89  1  0.38174654  0.76282453  0.78922723  1
  Te  Te90  1  0.76046377  0.07454218  0.09461391  1
  Te  Te91  1  0.74195277  0.08251465  0.42923863  1
  Te  Te92  1  0.73232605  0.08896497  0.73616799  1
  Te  Te93  1  0.79267498  0.43816379  0.04759583  1
  Te  Te94  1  0.74652203  0.40003906  0.41847558  1
  Te  Te95  1  0.74212195  0.41457605  0.77134564  1
  Te  Te96  1  0.73186526  0.72524343  0.06124756  1
  Te  Te97  1  0.75426350  0.71859921  0.41631470  1
  Te  Te98  1  0.74962126  0.74252313  0.75237989  1
  Te  Te99  1  0.10091869  0.21878709  0.25718383  1
  Te  Te100  1  0.09695270  0.23200351  0.61200741  1
  Te  Te101  1  0.08351520  0.25738535  0.91347853  1
  Te  Te102  1  0.09764947  0.58831117  0.25328943  1
  Te  Te103  1  0.08282203  0.57152957  0.59880831  1
  Te  Te104  1  0.07686119  0.63988192  0.91771561  1
  Te  Te105  1  0.03949922  0.93544981  0.24137269  1
  Te  Te106  1  0.10263595  0.90187790  0.61005999  1
  Te  Te107  1  0.08872240  0.91526329  0.90030643  1
  Te  Te108  1  0.41898225  0.25891985  0.24983671  1
  Te  Te109  1  0.39069502  0.28254231  0.58402908  1
  Te  Te110  1  0.40991290  0.25111920  0.91331751  1
  Te  Te111  1  0.40842504  0.60758272  0.22941496  1
  Te  Te112  1  0.40166625  0.62596334  0.60313429  1
  Te  Te113  1  0.43109967  0.58458466  0.92582550  1
  Te  Te114  1  0.40529070  0.92794608  0.26858224  1
  Te  Te115  1  0.40556580  0.92474256  0.55805134  1
  Te  Te116  1  0.44912479  0.94444945  0.90740406  1
  Te  Te117  1  0.75100080  0.24485184  0.25168153  1
  Te  Te118  1  0.74944498  0.26987981  0.60330304  1
  Te  Te119  1  0.73049658  0.24296401  0.91922269  1
  Te  Te120  1  0.76073041  0.55797716  0.25191723  1
  Te  Te121  1  0.76357189  0.54488907  0.59316436  1
  Te  Te122  1  0.76456507  0.63019714  0.92707566  1
  Te  Te123  1  0.76534844  0.89947812  0.24532859  1
  Te  Te124  1  0.74004040  0.92599595  0.57465958  1
  Te  Te125  1  0.73588313  0.91683336  0.90403717  1
  Te  Te126  1  0.25374639  0.26284257  0.07595538  1
  Te  Te127  1  0.23163710  0.26874796  0.43252901  1
  Te  Te128  1  0.23625953  0.24711494  0.75317889  1
  Te  Te129  1  0.23148773  0.56419751  0.06133043  1
  Te  Te130  1  0.24497494  0.61458659  0.42974405  1
  Te  Te131  1  0.24531410  0.59744350  0.72629863  1
  Te  Te132  1  0.22351602  0.91039737  0.07867501  1
  Te  Te133  1  0.21883500  0.90018266  0.42589784  1
  Te  Te134  1  0.30151536  0.89075705  0.74741607  1
  Te  Te135  1  0.56820837  0.26694173  0.08531650  1
  Te  Te136  1  0.58165314  0.25429575  0.40250121  1
  Te  Te137  1  0.57936681  0.24525257  0.76108955  1
  Te  Te138  1  0.61739964  0.52682760  0.13634216  1
  Te  Te139  1  0.56471493  0.58933500  0.38770586  1
  Te  Te140  1  0.57775274  0.59111712  0.74268801  1
  Te  Te141  1  0.59647261  0.91510187  0.07892626  1
  Te  Te142  1  0.57296514  0.93428934  0.41198102  1
  Te  Te143  1  0.57343769  0.89057910  0.73452234  1
  Te  Te144  1  0.92779918  0.24967476  0.10481911  1
  Te  Te145  1  0.90700722  0.24688982  0.43990822  1
  Te  Te146  1  0.92161347  0.21906231  0.75174230  1
  Te  Te147  1  0.90501651  0.56110365  0.07306984  1
  Te  Te148  1  0.93667653  0.59566652  0.41098876  1
  Te  Te149  1  0.92373336  0.62534895  0.76224144  1
  Te  Te150  1  0.89647302  0.87806169  0.05160781  1
  Te  Te151  1  0.95573899  0.87842363  0.42064253  1
  Te  Te152  1  0.92291527  0.92909990  0.76025732  1
  Te  Te153  1  0.25040876  0.05389584  0.24506261  1
  Te  Te154  1  0.30828518  0.06244116  0.59070185  1
  Te  Te155  1  0.23997909  0.08085517  0.92813666  1
  Te  Te156  1  0.23971783  0.41246581  0.24181393  1
  Te  Te157  1  0.25420059  0.44779052  0.56659424  1
  Te  Te158  1  0.21362741  0.45010239  0.88688948  1
  Te  Te159  1  0.20921747  0.78005271  0.25786583  1
  Te  Te160  1  0.26948371  0.71301816  0.62021806  1
  Te  Te161  1  0.27987887  0.77087618  0.91072549  1
  Te  Te162  1  0.57085624  0.08688820  0.24605697  1
  Te  Te163  1  0.55440086  0.09769163  0.56950800  1
  Te  Te164  1  0.56339292  0.06946578  0.89189550  1
  Te  Te165  1  0.55222989  0.43195757  0.22946688  1
  Te  Te166  1  0.57310404  0.43352810  0.56284070  1
  Te  Te167  1  0.59835665  0.45400242  0.93572478  1
  Te  Te168  1  0.60342575  0.76997070  0.22804640  1
  Te  Te169  1  0.59417466  0.75450157  0.56447288  1
  Te  Te170  1  0.55718238  0.72041980  0.92240302  1
  Te  Te171  1  0.90282568  0.09241280  0.30251536  1
  Te  Te172  1  0.92561468  0.04877861  0.56880895  1
  Te  Te173  1  0.91621872  0.09151514  0.92826448  1
  Te  Te174  1  0.93256014  0.39740110  0.25963921  1
  Te  Te175  1  0.95288506  0.40226558  0.64220636  1
  Te  Te176  1  0.93778305  0.42442633  0.87370220  1
  Te  Te177  1  0.92588430  0.72863997  0.24583938  1
  Te  Te178  1  0.90627179  0.77198603  0.58913320  1
  Te  Te179  1  0.96188665  0.73327512  0.87689964  1
