# generated using pymatgen
data_In2Te3
_symmetry_space_group_name_H-M   'P 1'
_cell_length_a   18.79404298
_cell_length_b   18.78474956
_cell_length_c   18.78963724
_cell_angle_alpha   90.04839077
_cell_angle_beta   90.06242783
_cell_angle_gamma   89.94983366
_symmetry_Int_Tables_number   1
_chemical_formula_structural   In2Te3
_chemical_formula_sum   'In72 Te108'
_cell_volume   6633.51081693
_cell_formula_units_Z   36
loop_
 _symmetry_equiv_pos_site_id
 _symmetry_equiv_pos_as_xyz
  1  'x, y, z'
loop_
 _atom_site_type_symbol
 _atom_site_label
 _atom_site_symmetry_multiplicity
 _atom_site_fract_x
 _atom_site_fract_y
 _atom_site_fract_z
 _atom_site_occupancy
  In  In0  1  0.49260208  0.68291741  0.84067604  1
  In  In1  1  0.34379459  -0.01444288  0.68297139  1
  In  In2  1  0.00760689  0.82370606  0.18187017  1
  In  In3  1  0.01848626  0.48242713  0.84310714  1
  In  In4  1  0.20564571  0.48230165  -0.02311955  1
  In  In5  1  -0.00016641  0.49007216  0.50059471  1
  In  In6  1  -0.00242937  0.84083370  0.82988661  1
  In  In7  1  0.48904182  0.00304573  0.17751907  1
  In  In8  1  0.68729358  0.14593276  0.83043312  1
  In  In9  1  0.34992862  0.81810843  0.51326408  1
  In  In10  1  0.19117077  0.51701782  0.33004839  1
  In  In11  1  0.82299691  0.82403779  0.01449795  1
  In  In12  1  0.33669376  0.49704763  0.49008125  1
  In  In13  1  0.14693166  0.30634876  0.51308256  1
  In  In14  1  0.84439629  0.50631963  -0.02771746  1
  In  In15  1  0.02627162  0.49242038  0.19427717  1
  In  In16  1  0.32245816  0.16410690  0.14835900  1
  In  In17  1  0.33259419  0.29041664  0.67805243  1
  In  In18  1  0.50382323  0.83311767  0.66573427  1
  In  In19  1  0.34374045  -0.00596908  0.33655619  1
  In  In20  1  0.51025325  0.68206161  0.49513479  1
  In  In21  1  0.17714193  0.50193819  0.67252823  1
  In  In22  1  0.67605680  0.50735861  0.49102462  1
  In  In23  1  0.85027560  0.14684154  -0.00739813  1
  In  In24  1  0.16432674  0.34541996  0.17242464  1
  In  In25  1  0.64561751  -0.02545517  0.36467878  1
  In  In26  1  0.82020900  0.15331992  0.33854742  1
  In  In27  1  0.47822576  0.17321550  -0.02030060  1
  In  In28  1  0.81855576  0.31223093  0.15712266  1
  In  In29  1  0.48457599  0.51371114  0.01621493  1
  In  In30  1  0.18333595  0.86622053  -0.02065641  1
  In  In31  1  -0.00002299  0.28332229  0.71095877  1
  In  In32  1  0.66720968  0.31466250  0.65352055  1
  In  In33  1  0.00545687  0.68749318  0.68466399  1
  In  In34  1  0.00394944  0.31142123  0.31719037  1
  In  In35  1  0.32449622  0.67952737  0.00142082  1
  In  In36  1  0.82454887  0.49873749  0.65817764  1
  In  In37  1  0.52133091  0.18149386  0.32891732  1
  In  In38  1  0.83904623  0.01085060  0.17009577  1
  In  In39  1  0.81608421  0.48934143  0.35989865  1
  In  In40  1  0.80910434  0.33247370  0.52766919  1
  In  In41  1  0.01088024  0.67736726  0.30937373  1
  In  In42  1  0.67386277  0.69247579  0.34542406  1
  In  In43  1  0.32684173  0.67961146  0.66074100  1
  In  In44  1  0.82725603  -0.01224444  0.52304845  1
  In  In45  1  0.65729606  0.50789758  0.80912652  1
  In  In46  1  0.47548403  0.31743728  0.50438393  1
  In  In47  1  0.82630382  0.01297596  0.80568024  1
  In  In48  1  0.65716883  0.83198071  0.17933613  1
  In  In49  1  0.47028357  0.84894137  -0.02405754  1
  In  In50  1  0.64279557  0.84603780  0.80766069  1
  In  In51  1  0.85031893  0.68492447  0.17494430  1
  In  In52  1  0.80368014  0.67195564  0.81874629  1
  In  In53  1  0.64831658  0.32045540  0.00545016  1
  In  In54  1  0.64670663  0.51050604  0.16087161  1
  In  In55  1  0.81687819  0.68365888  0.49245712  1
  In  In56  1  -0.02554877  0.13777431  0.50344983  1
  In  In57  1  0.33397716  0.16696775  0.49217428  1
  In  In58  1  0.19375712  0.13225035  -0.02216741  1
  In  In59  1  0.31969376  0.33948821  0.35087794  1
  In  In60  1  0.47540827  0.32907451  0.83271814  1
  In  In61  1  0.15133303  0.00554629  0.51482805  1
  In  In62  1  0.19416746  0.81244986  0.31720605  1
  In  In63  1  0.00467827  0.86525173  0.50640090  1
  In  In64  1  0.17123582  -0.02158042  0.15636724  1
  In  In65  1  0.66922055  0.01786720  -0.00377703  1
  In  In66  1  -0.00316793  0.01680801  -0.02750097  1
  In  In67  1  0.19939352  0.68271034  0.51050351  1
  In  In68  1  0.02244325  0.66804683  0.00737544  1
  In  In69  1  0.49899141  0.48827409  0.69835304  1
  In  In70  1  0.49902302  0.34400813  0.15335442  1
  In  In71  1  0.01953372  0.30128744  -0.01617159  1
  Te  Te72  1  0.08749209  0.08078312  0.07626386  1
  Te  Te73  1  0.08242942  0.09064477  0.41506174  1
  Te  Te74  1  0.10748897  0.13934804  0.75274014  1
  Te  Te75  1  0.07445155  0.42339797  0.06565778  1
  Te  Te76  1  0.09676581  0.41363140  0.40392797  1
  Te  Te77  1  0.10384158  0.39479914  0.75208018  1
  Te  Te78  1  0.10694449  0.76991017  0.07982998  1
  Te  Te79  1  0.08959359  0.74973327  0.42121541  1
  Te  Te80  1  0.10279962  0.74942014  0.77557212  1
  Te  Te81  1  0.40637578  0.06685681  0.06650667  1
  Te  Te82  1  0.43751144  0.08506161  0.41592962  1
  Te  Te83  1  0.40188108  0.07807639  0.78854346  1
  Te  Te84  1  0.39781121  0.40667244  0.06811597  1
  Te  Te85  1  0.43710037  0.42470355  0.39991109  1
  Te  Te86  1  0.37583699  0.42072896  0.75426626  1
  Te  Te87  1  0.42861712  0.75261163  0.07979070  1
  Te  Te88  1  0.42867232  0.76350248  0.39961428  1
  Te  Te89  1  0.40040313  0.77376568  0.75890448  1
  Te  Te90  1  0.74453935  0.10472229  0.09527769  1
  Te  Te91  1  0.73286184  0.07748161  0.43859757  1
  Te  Te92  1  0.71126699  0.04978955  0.71225005  1
  Te  Te93  1  0.75151581  0.42490733  0.07281283  1
  Te  Te94  1  0.72124205  0.38379327  0.41138090  1
  Te  Te95  1  0.75291467  0.40388212  0.75324325  1
  Te  Te96  1  0.73171393  0.72984309  0.08942696  1
  Te  Te97  1  0.74329610  0.79984492  0.42807119  1
  Te  Te98  1  0.75805783  0.78465712  0.73755579  1
  Te  Te99  1  0.09610323  0.23151151  0.23602933  1
  Te  Te100  1  0.08339404  0.20600896  0.60591637  1
  Te  Te101  1  0.11169407  0.22817257  0.88966433  1
  Te  Te102  1  0.11840074  0.60786069  0.22663641  1
  Te  Te103  1  0.08900469  0.58955527  0.58047077  1
  Te  Te104  1  0.10635800  0.58613320  0.91050025  1
  Te  Te105  1  0.08965451  0.91580196  0.27098400  1
  Te  Te106  1  0.07718182  0.92977907  0.61916657  1
  Te  Te107  1  0.09527487  0.95266711  0.87553058  1
  Te  Te108  1  0.40128457  0.24469131  0.25475257  1
  Te  Te109  1  0.43912248  0.20426033  0.60644157  1
  Te  Te110  1  0.37102322  0.26061899  0.91693378  1
  Te  Te111  1  0.35253220  0.61163473  0.25644806  1
  Te  Te112  1  0.42161373  0.58413367  0.58378798  1
  Te  Te113  1  0.40544057  0.57891611  0.90451399  1
  Te  Te114  1  0.41813781  0.89740964  0.25198956  1
  Te  Te115  1  0.43817806  0.93764177  0.56293387  1
  Te  Te116  1  0.40382374  0.93355300  0.87227781  1
  Te  Te117  1  0.73522734  0.24446671  0.25712269  1
  Te  Te118  1  0.76237702  0.21219255  0.60098186  1
  Te  Te119  1  0.75372148  0.24900991  0.92321408  1
  Te  Te120  1  0.75704417  0.58722911  0.25668145  1
  Te  Te121  1  0.73485888  0.60409715  0.59495686  1
  Te  Te122  1  0.72599170  0.58975674  0.92126654  1
  Te  Te123  1  0.74978995  0.92399432  0.25754700  1
  Te  Te124  1  0.72586325  0.88325910  0.56183752  1
  Te  Te125  1  0.76140029  0.92340970  0.91620669  1
  Te  Te126  1  0.23182627  0.25425286  0.06729084  1
  Te  Te127  1  0.22683420  0.23119200  0.40444968  1
  Te  Te128  1  0.24369856  0.20492104  0.75883676  1
  Te  Te129  1  0.25701123  0.57250308  0.08145327  1
  Te  Te130  1  0.29018105  0.61782648  0.39996480  1
  Te  Te131  1  0.25623746  0.59248028  0.75673327  1
  Te  Te132  1  0.27979994  0.91194098  0.08231570  1
  Te  Te133  1  0.25040061  0.91096954  0.42832553  1
  Te  Te134  1  0.23957377  0.94631499  0.78284237  1
  Te  Te135  1  0.57140762  0.22357770  0.09320330  1
  Te  Te136  1  0.58887555  0.24404984  0.44456135  1
  Te  Te137  1  0.57584381  0.23790993  0.75723425  1
  Te  Te138  1  0.55057816  0.60920120  0.10819540  1
  Te  Te139  1  0.57896182  0.58210775  0.40036919  1
  Te  Te140  1  0.57836651  0.61446866  0.73247311  1
  Te  Te141  1  0.58220677  0.92021372  0.07487008  1
  Te  Te142  1  0.55022590  0.90691418  0.45581752  1
  Te  Te143  1  0.57686293  0.95147452  0.72438578  1
  Te  Te144  1  0.93192089  0.23401600  0.09067299  1
  Te  Te145  1  0.91620544  0.26654921  0.43192899  1
  Te  Te146  1  0.88024051  0.20840961  0.75174063  1
  Te  Te147  1  0.92140492  0.58120235  0.08688073  1
  Te  Te148  1  0.92342788  0.59269368  0.41231389  1
  Te  Te149  1  0.92111099  0.57552851  0.75844018  1
  Te  Te150  1  0.93098027  0.91426276  0.07666881  1
  Te  Te151  1  0.92058965  0.94467430  0.41555532  1
  Te  Te152  1  0.92400122  0.92682972  0.73017585  1
  Te  Te153  1  0.24854868  0.07525126  0.24840356  1
  Te  Te154  1  0.25984884  0.07991919  0.59243696  1
  Te  Te155  1  0.29107780  0.04642252  0.89703911  1
  Te  Te156  1  0.27508321  0.42923758  0.23525611  1
  Te  Te157  1  0.25829554  0.39533406  0.57464801  1
  Te  Te158  1  0.27348315  0.38542595  0.89095325  1
  Te  Te159  1  0.28729843  0.74312831  0.22567566  1
  Te  Te160  1  0.23229409  0.79105098  0.61084400  1
  Te  Te161  1  0.24751173  0.75826704  0.90058291  1
  Te  Te162  1  0.59933464  0.07331182  0.25414178  1
  Te  Te163  1  0.58561578  0.13578528  0.63766995  1
  Te  Te164  1  0.56804606  0.07583798  0.90010536  1
  Te  Te165  1  0.58408285  0.41303464  0.25118181  1
  Te  Te166  1  0.57664685  0.42412393  0.58431515  1
  Te  Te167  1  0.57711319  0.41887828  0.91136686  1
  Te  Te168  1  0.56507978  0.75649574  0.26749703  1
  Te  Te169  1  0.60566006  0.77778919  0.56547706  1
  Te  Te170  1  0.59104618  0.76419227  0.92404279  1
  Te  Te171  1  0.92658828  0.08947405  0.25860049  1
  Te  Te172  1  0.91748818  0.06278235  0.61905577  1
  Te  Te173  1  0.93346228  0.11409083  0.86430039  1
  Te  Te174  1  0.90398256  0.41752536  0.24963072  1
  Te  Te175  1  0.93378569  0.39952570  0.60472356  1
  Te  Te176  1  0.91628454  0.38772666  0.90633790  1
  Te  Te177  1  0.89958490  0.78040877  0.28241268  1
  Te  Te178  1  0.91890304  0.75699946  0.58104625  1
  Te  Te179  1  0.91295318  0.73833665  0.92136115  1
