# generated using pymatgen
data_In2Te3
_symmetry_space_group_name_H-M   'P 1'
_cell_length_a   19.03252160
_cell_length_b   19.03990499
_cell_length_c   19.02761792
_cell_angle_alpha   90.06548563
_cell_angle_beta   89.77845626
_cell_angle_gamma   89.66984031
_symmetry_Int_Tables_number   1
_chemical_formula_structural   In2Te3
_chemical_formula_sum   'In72 Te108'
_cell_volume   6895.00806640
_cell_formula_units_Z   36
loop_
 _symmetry_equiv_pos_site_id
 _symmetry_equiv_pos_as_xyz
  1  'x, y, z'
loop_
 _atom_site_type_symbol
 _atom_site_label
 _atom_site_symmetry_multiplicity
 _atom_site_fract_x
 _atom_site_fract_y
 _atom_site_fract_z
 _atom_site_occupancy
  In  In0  1  0.18587331  0.00101275  0.51465725  1
  In  In1  1  0.33521464  0.01147159  0.66647389  1
  In  In2  1  0.34760509  0.51239551  0.81883100  1
  In  In3  1  0.15271334  0.13186620  0.01759176  1
  In  In4  1  0.83546200  0.00134934  0.83301905  1
  In  In5  1  0.50110251  0.66928411  0.83860802  1
  In  In6  1  0.65173339  0.17760760  0.18357609  1
  In  In7  1  0.15934546  0.34787960  0.81456471  1
  In  In8  1  0.66169556  0.18347381  0.83471415  1
  In  In9  1  0.00789000  0.17778766  0.80159669  1
  In  In10  1  0.69044236  0.34793003  0.34245162  1
  In  In11  1  -0.00831328  0.35892427  0.66489915  1
  In  In12  1  0.66399372  0.34879885  -0.01179146  1
  In  In13  1  0.34776108  0.83423593  0.50277599  1
  In  In14  1  0.51108589  0.15805378  -0.00146058  1
  In  In15  1  0.49805323  0.51968042  0.66486656  1
  In  In16  1  0.01254414  0.00124762  0.65591589  1
  In  In17  1  0.84317384  0.80122503  -0.01283650  1
  In  In18  1  0.67451553  0.81894962  0.53467659  1
  In  In19  1  0.67352365  0.49765853  0.49455173  1
  In  In20  1  0.48584868  -0.02428407  0.85035014  1
  In  In21  1  -0.00697957  0.49052135  0.15505390  1
  In  In22  1  0.15669945  -0.03494325  0.83409105  1
  In  In23  1  0.65290900  0.00579663  0.34371698  1
  In  In24  1  0.00654371  0.84861329  0.17962558  1
  In  In25  1  0.50546446  0.00094332  0.49343765  1
  In  In26  1  -0.00922203  0.33012834  -0.01638032  1
  In  In27  1  0.16592091  0.69563383  0.15949318  1
  In  In28  1  0.33201586  0.16732840  0.84864879  1
  In  In29  1  0.83674488  0.50620233  -0.02363127  1
  In  In30  1  0.34127950  0.32653857  -0.00645021  1
  In  In31  1  0.67798160  0.33142502  0.68029394  1
  In  In32  1  0.82377032  0.50074322  0.66305281  1
  In  In33  1  0.33272788  0.17199419  0.19342831  1
  In  In34  1  -0.00095812  -0.02761142  -0.00350365  1
  In  In35  1  0.49074092  0.49986094  -0.01428686  1
  In  In36  1  0.83529187  0.16983225  0.00705154  1
  In  In37  1  0.18511173  0.16531600  0.35964456  1
  In  In38  1  0.64552573  0.83473421  0.15530086  1
  In  In39  1  0.84369429  0.84515470  0.35647099  1
  In  In40  1  0.15942368  0.34265525  0.50052699  1
  In  In41  1  0.15860817  0.49821916  0.32594251  1
  In  In42  1  0.00226677  0.16956034  0.52073128  1
  In  In43  1  0.14174557  0.52401769  -0.03578238  1
  In  In44  1  0.48156641  0.81403852  0.01102122  1
  In  In45  1  0.83384623  0.63756548  0.48707997  1
  In  In46  1  0.85356377  0.82768541  0.68143382  1
  In  In47  1  0.66725544  -0.04327922  0.01471363  1
  In  In48  1  0.66454238  -0.01042697  0.67893078  1
  In  In49  1  -0.02078978  0.31555275  0.30294480  1
  In  In50  1  0.16150844  0.85340120  0.62709074  1
  In  In51  1  0.18052632  0.70119983  0.82716062  1
  In  In52  1  0.82772409  0.66429237  0.81484219  1
  In  In53  1  0.83168401  0.65322526  0.16876124  1
  In  In54  1  0.02595224  0.65810194  0.62113534  1
  In  In55  1  0.68141165  0.17187050  0.52113435  1
  In  In56  1  0.83022796  0.01609765  0.18326629  1
  In  In57  1  0.50591728  0.66031812  0.16635364  1
  In  In58  1  0.32683683  0.66596157  0.67300984  1
  In  In59  1  0.50451491  0.48844601  0.34696148  1
  In  In60  1  0.32735980  0.34248439  0.63433483  1
  In  In61  1  0.16184625  0.33046571  0.17934510  1
  In  In62  1  0.33471482  -0.03092947  0.02123144  1
  In  In63  1  0.01868718  0.70088200  0.37210699  1
  In  In64  1  0.31006077  0.49660402  0.15466855  1
  In  In65  1  0.31850351  0.65275356  0.34870539  1
  In  In66  1  0.67916874  0.49829537  0.15867452  1
  In  In67  1  0.49388288  0.66548576  0.50063250  1
  In  In68  1  0.47801262  0.15936598  0.35029366  1
  In  In69  1  0.33576846  0.85148441  0.19638565  1
  In  In70  1  0.49090870  0.32294454  0.49338931  1
  In  In71  1  0.82386463  0.15942201  0.34468839  1
  Te  Te72  1  0.05462530  0.06189769  0.09987956  1
  Te  Te73  1  0.08541704  0.07702542  0.43276327  1
  Te  Te74  1  0.10774677  0.07785590  0.74507100  1
  Te  Te75  1  0.09963683  0.41224522  0.06911923  1
  Te  Te76  1  0.06885032  0.40017583  0.39492285  1
  Te  Te77  1  0.05782146  0.44282576  0.76958768  1
  Te  Te78  1  0.06751127  0.76562294  0.07397208  1
  Te  Te79  1  0.09073640  0.81438028  0.42728843  1
  Te  Te80  1  0.08651897  0.75817129  0.71783143  1
  Te  Te81  1  0.39897605  0.09550721  0.07468846  1
  Te  Te82  1  0.39681587  0.05079952  0.40670399  1
  Te  Te83  1  0.42643541  0.08424268  0.76312892  1
  Te  Te84  1  0.41840386  0.41267935  0.08962752  1
  Te  Te85  1  0.40491377  0.42301471  0.42937983  1
  Te  Te86  1  0.41912370  0.40917856  0.73455229  1
  Te  Te87  1  0.39354177  0.73934397  0.10647366  1
  Te  Te88  1  0.42164891  0.75079093  0.39826351  1
  Te  Te89  1  0.44294100  0.74170587  0.72185012  1
  Te  Te90  1  0.73020350  0.08647647  0.08286391  1
  Te  Te91  1  0.75386432  0.06415798  0.43786678  1
  Te  Te92  1  0.75238062  0.09444077  0.74969576  1
  Te  Te93  1  0.76971895  0.41041728  0.07524879  1
  Te  Te94  1  0.78030402  0.41220480  0.43837158  1
  Te  Te95  1  0.74029294  0.43367111  0.76325009  1
  Te  Te96  1  0.74229051  0.74163056  0.08353699  1
  Te  Te97  1  0.75050663  0.74872603  0.42047714  1
  Te  Te98  1  0.74177052  0.76085280  0.74410180  1
  Te  Te99  1  0.08774226  0.22457257  0.25098710  1
  Te  Te100  1  0.08938449  0.25789633  0.60444759  1
  Te  Te101  1  0.10228129  0.23914542  0.91218475  1
  Te  Te102  1  0.08384958  0.58776679  0.23153782  1
  Te  Te103  1  0.11753162  0.55682471  0.56621436  1
  Te  Te104  1  0.07012473  0.63820061  0.90757064  1
  Te  Te105  1  0.11604492  0.93485167  0.21874017  1
  Te  Te106  1  0.02723648  0.89057230  0.54729616  1
  Te  Te107  1  0.10471587  0.88169330  0.94446094  1
  Te  Te108  1  0.42394908  0.26079615  0.26109174  1
  Te  Te109  1  0.40111991  0.23278398  0.56582602  1
  Te  Te110  1  0.44102125  0.25549521  0.90519211  1
  Te  Te111  1  0.40482836  0.57353876  0.25004662  1
  Te  Te112  1  0.39417853  0.57565570  0.56983556  1
  Te  Te113  1  0.39619113  0.60269332  0.92784266  1
  Te  Te114  1  0.45707238  0.92377575  0.22739856  1
  Te  Te115  1  0.43144315  0.91769347  0.59561216  1
  Te  Te116  1  0.38057376  0.87587766  0.90293868  1
  Te  Te117  1  0.76339634  0.25542292  0.24405765  1
  Te  Te118  1  0.76854557  0.26943364  0.58251386  1
  Te  Te119  1  0.76475090  0.26189054  0.91100138  1
  Te  Te120  1  0.75583281  0.56944675  0.25964276  1
  Te  Te121  1  0.73060488  0.59783025  0.58999521  1
  Te  Te122  1  0.74373573  0.60045561  0.91702598  1
  Te  Te123  1  0.74097731  0.91539779  0.25590860  1
  Te  Te124  1  0.76952647  0.91980747  0.59255878  1
  Te  Te125  1  0.75454838  0.89695627  0.90682704  1
  Te  Te126  1  0.24297359  0.24464224  0.07609897  1
  Te  Te127  1  0.26428722  0.26234752  0.43386502  1
  Te  Te128  1  0.26276696  0.25837944  0.75047882  1
  Te  Te129  1  0.23000039  0.59020728  0.06829527  1
  Te  Te130  1  0.21402068  0.58643441  0.43076002  1
  Te  Te131  1  0.23214057  0.57773699  0.74985071  1
  Te  Te132  1  0.22880806  0.91775900  0.11102132  1
  Te  Te133  1  0.27183019  0.92952828  0.41850011  1
  Te  Te134  1  0.25420858  0.90311421  0.73559468  1
  Te  Te135  1  0.57895609  0.26288248  0.08281632  1
  Te  Te136  1  0.60164842  0.24061089  0.40830477  1
  Te  Te137  1  0.57527017  0.24322394  0.73538620  1
  Te  Te138  1  0.58896375  0.58038575  0.06961255  1
  Te  Te139  1  0.59221095  0.59252739  0.40942394  1
  Te  Te140  1  0.58564419  0.56839778  0.77022456  1
  Te  Te141  1  0.53553744  0.93124803  0.09532096  1
  Te  Te142  1  0.59362060  0.89672214  0.42874969  1
  Te  Te143  1  0.58576015  0.90563467  0.76900067  1
  Te  Te144  1  0.92406608  0.25231569  0.08704561  1
  Te  Te145  1  0.91646188  0.24853244  0.42300010  1
  Te  Te146  1  0.91073545  0.27329272  0.75416352  1
  Te  Te147  1  0.92417597  0.59159841  0.06707502  1
  Te  Te148  1  0.94774538  0.58179308  0.41221799  1
  Te  Te149  1  0.92749116  0.59546303  0.71897559  1
  Te  Te150  1  0.88511586  0.91389750  0.08588372  1
  Te  Te151  1  0.95846815  0.91622079  0.40979589  1
  Te  Te152  1  0.94227865  0.91901952  0.76434876  1
  Te  Te153  1  0.23874862  0.07784797  0.25181307  1
  Te  Te154  1  0.25081488  0.10454481  0.59233291  1
  Te  Te155  1  0.25100005  0.05845044  0.91951409  1
  Te  Te156  1  0.26096482  0.40380144  0.26332664  1
  Te  Te157  1  0.21635625  0.43975048  0.59983082  1
  Te  Te158  1  0.25751160  0.42553704  0.91380623  1
  Te  Te159  1  0.23954087  0.75806112  0.27446470  1
  Te  Te160  1  0.24787767  0.74300890  0.56838968  1
  Te  Te161  1  0.26694285  0.77196197  0.91860757  1
  Te  Te162  1  0.56144477  0.07512129  0.24580876  1
  Te  Te163  1  0.58129631  0.08486430  0.59264747  1
  Te  Te164  1  0.59625115  0.06340690  0.91597123  1
  Te  Te165  1  0.59042126  0.41191918  0.24884651  1
  Te  Te166  1  0.57647886  0.41684138  0.57703398  1
  Te  Te167  1  0.57770912  0.42239361  0.89611943  1
  Te  Te168  1  0.58617577  0.74475389  0.25226516  1
  Te  Te169  1  0.56516178  0.74498351  0.60259497  1
  Te  Te170  1  0.58300740  0.75075048  0.92976915  1
  Te  Te171  1  0.92375567  0.07616628  0.27480908  1
  Te  Te172  1  0.91070615  0.08786689  0.59929098  1
  Te  Te173  1  0.93305811  0.08924733  0.90907959  1
  Te  Te174  1  0.90019970  0.42342651  0.24410225  1
  Te  Te175  1  0.91255238  0.43404566  0.56606116  1
  Te  Te176  1  0.93956137  0.43414641  0.89463476  1
  Te  Te177  1  0.91951880  0.74771488  0.25959249  1
  Te  Te178  1  0.90877664  0.73879073  0.56863471  1
  Te  Te179  1  0.93380608  0.73764389  0.89076598  1
