# generated using pymatgen
data_In2Te3
_symmetry_space_group_name_H-M   'P 1'
_cell_length_a   19.00657743
_cell_length_b   18.96414647
_cell_length_c   18.99095235
_cell_angle_alpha   90.09286025
_cell_angle_beta   90.21728747
_cell_angle_gamma   90.22277289
_symmetry_Int_Tables_number   1
_chemical_formula_structural   In2Te3
_chemical_formula_sum   'In72 Te108'
_cell_volume   6845.05556478
_cell_formula_units_Z   36
loop_
 _symmetry_equiv_pos_site_id
 _symmetry_equiv_pos_as_xyz
  1  'x, y, z'
loop_
 _atom_site_type_symbol
 _atom_site_label
 _atom_site_symmetry_multiplicity
 _atom_site_fract_x
 _atom_site_fract_y
 _atom_site_fract_z
 _atom_site_occupancy
  In  In0  1  0.30467495  0.00514514  0.01455856  1
  In  In1  1  0.03966023  0.48567012  0.81059933  1
  In  In2  1  0.83454644  0.49144547  0.64870555  1
  In  In3  1  0.00766444  -0.01913997  0.64066484  1
  In  In4  1  0.50972169  0.64583879  0.85470481  1
  In  In5  1  0.79661960  0.63977066  0.22406116  1
  In  In6  1  0.50453640  0.82234838  0.01957223  1
  In  In7  1  0.32493562  0.22431188  0.83001070  1
  In  In8  1  0.00327235  0.84109364  0.84686098  1
  In  In9  1  0.50554110  0.13336103  0.66266136  1
  In  In10  1  0.32741227  0.80618877  0.17088511  1
  In  In11  1  0.19420008  0.37843271  0.14677650  1
  In  In12  1  0.65952683  0.17275513  0.15592847  1
  In  In13  1  0.31200550  0.09058183  0.46800016  1
  In  In14  1  0.48144294  -0.01450859  0.81085484  1
  In  In15  1  0.48106019  -0.03239605  0.17428582  1
  In  In16  1  0.01049020  0.17860421  0.83373786  1
  In  In17  1  -0.00174428  0.18696108  0.15092330  1
  In  In18  1  0.25447319  0.63964021  0.63337839  1
  In  In19  1  0.54296260  0.66242626  0.19922099  1
  In  In20  1  -0.02564507  0.80789871  0.19958935  1
  In  In21  1  -0.00846401  0.51575884  0.18246728  1
  In  In22  1  0.34586478  0.81338660  0.84725776  1
  In  In23  1  0.67023212  0.67050191  0.01208095  1
  In  In24  1  0.66687374  0.31688394  0.66318972  1
  In  In25  1  0.67725257  -0.01852118  0.34943921  1
  In  In26  1  0.50794244  0.32250100  0.48744175  1
  In  In27  1  0.51761130  0.81092676  0.68226347  1
  In  In28  1  0.83646058  0.81906195  0.02540790  1
  In  In29  1  0.01381923  0.81082322  0.49482296  1
  In  In30  1  0.48127338  0.69100587  0.50797974  1
  In  In31  1  0.83074023  0.01444455  0.85446470  1
  In  In32  1  0.82860459  0.34502162  0.82533304  1
  In  In33  1  0.16063783  0.13591499  0.32410941  1
  In  In34  1  0.00355782  0.35353198  0.31445980  1
  In  In35  1  0.85778816  0.65186686  0.44181627  1
  In  In36  1  0.47304260  0.17660223  -0.03182599  1
  In  In37  1  0.80805205  0.16091942  0.30806544  1
  In  In38  1  0.68430127  0.48664055  0.47837379  1
  In  In39  1  0.31315482  0.51427848  0.44524891  1
  In  In40  1  0.49214388  0.52333764  0.66653763  1
  In  In41  1  0.49924537  0.51779457  0.32938456  1
  In  In42  1  0.81989351  -0.00663549  0.17049958  1
  In  In43  1  0.86585497  0.36817665  0.48383187  1
  In  In44  1  0.67105598  0.17968275  0.83362343  1
  In  In45  1  0.15856774  0.19826887  0.00564797  1
  In  In46  1  0.35474403  0.39834410  0.24523559  1
  In  In47  1  0.33588744  0.33007486  0.64275327  1
  In  In48  1  0.15783947  0.31613723  0.46906281  1
  In  In49  1  0.84309505  0.68576153  0.82163148  1
  In  In50  1  0.13973633  -0.02898257  0.18016367  1
  In  In51  1  0.32881113  0.15563605  0.18932021  1
  In  In52  1  0.30845422  0.64181309  -0.02306152  1
  In  In53  1  0.03284820  0.63859885  0.66165002  1
  In  In54  1  0.33443492  0.83834055  0.49561549  1
  In  In55  1  0.31642855  -0.00384641  0.65411981  1
  In  In56  1  0.82998004  0.18892042  -0.03258429  1
  In  In57  1  0.54293978  0.17778660  0.33056057  1
  In  In58  1  0.84881563  0.82191307  0.65562525  1
  In  In59  1  0.65081293  -0.01597959  0.00620547  1
  In  In60  1  0.51586270  0.35226600  0.15491042  1
  In  In61  1  -0.00074261  0.17070625  0.49223849  1
  In  In62  1  -0.02385215  -0.02175463  0.34823371  1
  In  In63  1  0.81214155  0.51503663  0.02378555  1
  In  In64  1  0.15685090  0.65470871  0.82851219  1
  In  In65  1  0.66322908  -0.04512747  0.62231964  1
  In  In66  1  0.52108470  -0.01735619  0.49215062  1
  In  In67  1  0.49434889  0.42522957  0.87486979  1
  In  In68  1  -0.01274436  0.32517015  -0.01006755  1
  In  In69  1  0.86311817  0.18472277  0.66052304  1
  In  In70  1  0.15926109  0.00595914  0.82907918  1
  In  In71  1  0.14688316  0.67786873  0.19003573  1
  Te  Te72  1  0.09640482  0.08881594  0.08904015  1
  Te  Te73  1  0.07871411  0.06069430  0.42509289  1
  Te  Te74  1  0.07573707  0.08686430  0.73294614  1
  Te  Te75  1  0.05838465  0.41698830  0.08746969  1
  Te  Te76  1  0.07896223  0.43315701  0.41489205  1
  Te  Te77  1  0.15169255  0.44746013  0.72681905  1
  Te  Te78  1  0.06078336  0.75067149  0.09676669  1
  Te  Te79  1  0.08121370  0.70143364  0.41999711  1
  Te  Te80  1  0.07902895  0.75740129  0.74705081  1
  Te  Te81  1  0.42485866  0.08275678  0.08292908  1
  Te  Te82  1  0.44951778  0.07800294  0.39980517  1
  Te  Te83  1  0.39335670  0.10012187  0.76241376  1
  Te  Te84  1  0.40839382  0.44797284  0.11628678  1
  Te  Te85  1  0.41299927  0.40392191  0.40164664  1
  Te  Te86  1  0.42332494  0.41127241  0.74029583  1
  Te  Te87  1  0.40491862  0.72331822  0.06874298  1
  Te  Te88  1  0.40318711  0.75180179  0.39881572  1
  Te  Te89  1  0.41720976  0.72286127  0.75353102  1
  Te  Te90  1  0.75388190  0.08724230  0.06130037  1
  Te  Te91  1  0.75700098  0.08314109  0.41894015  1
  Te  Te92  1  0.76647866  0.10190808  0.74784597  1
  Te  Te93  1  0.70029873  0.44992255  0.09762398  1
  Te  Te94  1  0.78850952  0.44410386  0.38226134  1
  Te  Te95  1  0.73248376  0.42814767  0.74420500  1
  Te  Te96  1  0.74461100  0.74572588  0.11869418  1
  Te  Te97  1  0.73271222  0.68654729  0.36181826  1
  Te  Te98  1  0.74778875  0.75553609  0.73713972  1
  Te  Te99  1  0.09766516  0.24933588  0.24694883  1
  Te  Te100  1  0.07000015  0.26719819  0.57612776  1
  Te  Te101  1  0.10099990  0.28723797  0.89852440  1
  Te  Te102  1  0.04685129  0.60655506  0.29183139  1
  Te  Te103  1  0.13312654  0.58051607  0.56901700  1
  Te  Te104  1  0.08016930  0.57064401  0.92138335  1
  Te  Te105  1  0.07795355  0.88501539  0.28688870  1
  Te  Te106  1  0.10649348  0.89237228  0.57829676  1
  Te  Te107  1  0.08508530  0.93044505  0.92866952  1
  Te  Te108  1  0.43286905  0.24861043  0.24892846  1
  Te  Te109  1  0.42721358  0.22784252  0.57298136  1
  Te  Te110  1  0.40696614  0.30574976  0.92714163  1
  Te  Te111  1  0.41593460  0.61337594  0.25629235  1
  Te  Te112  1  0.38751743  0.57960529  0.57114585  1
  Te  Te113  1  0.40807799  0.54722031  0.90941290  1
  Te  Te114  1  0.42205062  0.87206715  0.26647060  1
  Te  Te115  1  0.43639223  0.91944545  0.60356753  1
  Te  Te116  1  0.41600529  0.92364876  0.93821672  1
  Te  Te117  1  0.74008434  0.26608901  0.23412511  1
  Te  Te118  1  0.77807199  0.27325686  0.57251626  1
  Te  Te119  1  0.72526106  0.28942123  0.92265321  1
  Te  Te120  1  0.69195612  0.52795280  0.23078441  1
  Te  Te121  1  0.76682013  0.58793488  0.55639705  1
  Te  Te122  1  0.75292943  0.59646826  0.91007796  1
  Te  Te123  1  0.77229077  0.90194292  0.27141234  1
  Te  Te124  1  0.76849172  0.88744048  0.54726561  1
  Te  Te125  1  0.75522046  0.90600754  0.92834426  1
  Te  Te126  1  0.27126591  0.25228542  0.09092909  1
  Te  Te127  1  0.25681656  0.22300178  0.40142594  1
  Te  Te128  1  0.23015419  0.27892137  0.73367449  1
  Te  Te129  1  0.22506102  0.58850105  0.09003853  1
  Te  Te130  1  0.21726214  0.62659805  0.43762220  1
  Te  Te131  1  0.25163748  0.55800655  0.76219476  1
  Te  Te132  1  0.23321201  0.89575083  0.08638300  1
  Te  Te133  1  0.27065858  0.95374858  0.43300408  1
  Te  Te134  1  0.25917697  0.91256539  0.76566070  1
  Te  Te135  1  0.57371511  0.24868829  0.05710484  1
  Te  Te136  1  0.62215606  0.26360897  0.41842773  1
  Te  Te137  1  0.56381601  0.24495260  0.74983052  1
  Te  Te138  1  0.56387193  0.58215123  0.07241000  1
  Te  Te139  1  0.57111117  0.58143265  0.44489746  1
  Te  Te140  1  0.59426219  0.58243732  0.75232101  1
  Te  Te141  1  0.59927056  0.89213596  0.11484233  1
  Te  Te142  1  0.58731301  0.87851716  0.40962579  1
  Te  Te143  1  0.60659943  0.91809592  0.75633065  1
  Te  Te144  1  0.88639143  0.26589999  0.08695641  1
  Te  Te145  1  0.91655396  0.24767294  0.39139765  1
  Te  Te146  1  0.94075186  0.28253248  0.74696218  1
  Te  Te147  1  0.89720908  0.60690864  0.10723621  1
  Te  Te148  1  0.97198636  0.55888030  0.41752876  1
  Te  Te149  1  0.92267528  0.57253780  0.75500747  1
  Te  Te150  1  0.92683715  0.91733338  0.09659777  1
  Te  Te151  1  0.90122621  0.89233621  0.44161937  1
  Te  Te152  1  0.91076421  0.93122045  0.75470936  1
  Te  Te153  1  0.25601606  0.03985219  0.25364220  1
  Te  Te154  1  0.23550695  0.09880348  0.59222317  1
  Te  Te155  1  0.25047441  0.10819179  0.91687555  1
  Te  Te156  1  0.22225523  0.45391363  0.27116817  1
  Te  Te157  1  0.25743359  0.41017222  0.54195843  1
  Te  Te158  1  0.26011675  0.45180786  1.03522607  1
  Te  Te159  1  0.23504821  0.75897883  0.27502867  1
  Te  Te160  1  0.24049273  0.78194432  0.59470016  1
  Te  Te161  1  0.22801432  0.75727882  0.92058518  1
  Te  Te162  1  0.59271605  0.06349977  0.23642581  1
  Te  Te163  1  0.61361176  0.08608315  0.56914864  1
  Te  Te164  1  0.58138958  0.07846336  0.90852572  1
  Te  Te165  1  0.58865859  0.41169417  0.27373084  1
  Te  Te166  1  0.58273880  0.41769791  0.58329108  1
  Te  Te167  1  0.59577694  0.46225158  0.97752114  1
  Te  Te168  1  0.60568646  0.74980331  0.29958116  1
  Te  Te169  1  0.59703876  0.74963097  0.57694259  1
  Te  Te170  1  0.59076429  0.76122327  0.91354244  1
  Te  Te171  1  0.93257517  0.08349912  0.24176156  1
  Te  Te172  1  0.91023246  0.07314886  0.57022049  1
  Te  Te173  1  0.93842300  0.08878813  0.93227224  1
  Te  Te174  1  0.89375841  0.42291087  0.24438934  1
  Te  Te175  1  0.95114548  0.43131486  0.58507168  1
  Te  Te176  1  0.90057794  0.43213331  0.92704449  1
  Te  Te177  1  0.89191834  0.73404978  0.30127327  1
  Te  Te178  1  0.92556248  0.71268554  0.58234846  1
  Te  Te179  1  0.92889364  0.74171547  0.93351454  1
