# generated using pymatgen
data_In2Te3
_symmetry_space_group_name_H-M   'P 1'
_cell_length_a   18.96941860
_cell_length_b   18.94940859
_cell_length_c   18.93574063
_cell_angle_alpha   89.84136831
_cell_angle_beta   90.02101782
_cell_angle_gamma   90.13699177
_symmetry_Int_Tables_number   1
_chemical_formula_structural   In2Te3
_chemical_formula_sum   'In72 Te108'
_cell_volume   6806.58139998
_cell_formula_units_Z   36
loop_
 _symmetry_equiv_pos_site_id
 _symmetry_equiv_pos_as_xyz
  1  'x, y, z'
loop_
 _atom_site_type_symbol
 _atom_site_label
 _atom_site_symmetry_multiplicity
 _atom_site_fract_x
 _atom_site_fract_y
 _atom_site_fract_z
 _atom_site_occupancy
  In  In0  1  0.69248383  0.35270223  -0.00552103  1
  In  In1  1  0.64403883  0.17897614  0.16786459  1
  In  In2  1  0.33697805  0.32905574  0.01200428  1
  In  In3  1  0.82278898  0.35293095  0.47821745  1
  In  In4  1  0.35573410  0.70016086  0.02522708  1
  In  In5  1  -0.02117003  0.52314238  0.18371126  1
  In  In6  1  0.30919069  0.03652099  0.35924968  1
  In  In7  1  0.13792983  0.85137717  0.02866032  1
  In  In8  1  0.34170308  0.17568329  0.52323254  1
  In  In9  1  0.15459113  0.68455930  0.16332360  1
  In  In10  1  0.86026684  0.51683943  0.00181086  1
  In  In11  1  -0.02229168  0.67359567  0.59535909  1
  In  In12  1  0.02624943  0.48147024  0.80910404  1
  In  In13  1  0.82559798  0.49228380  0.66788987  1
  In  In14  1  -0.01135479  0.35769222  0.31887113  1
  In  In15  1  0.80258785  -0.00720872  0.17511367  1
  In  In16  1  0.83169782  0.16653169  0.31590956  1
  In  In17  1  0.65469648  0.15764012  0.50750504  1
  In  In18  1  0.49118835  0.33484993  0.81508651  1
  In  In19  1  0.19544081  0.47565232  0.62468428  1
  In  In20  1  0.15578547  0.32026111  0.16356606  1
  In  In21  1  0.51470741  0.69216083  0.84408048  1
  In  In22  1  0.16778935  0.47483627  0.32831069  1
  In  In23  1  0.50785806  0.14966955  -0.00219237  1
  In  In24  1  0.46754980  0.17848204  0.34096225  1
  In  In25  1  0.67235847  0.84689039  0.84927535  1
  In  In26  1  0.00325486  0.33626444  -0.00247267  1
  In  In27  1  0.02573419  0.15900584  0.85000269  1
  In  In28  1  0.83730291  0.01278229  0.85461836  1
  In  In29  1  0.65305637  0.18897117  0.84931771  1
  In  In30  1  0.35365416  0.47294554  0.48430013  1
  In  In31  1  0.17360118  0.67919248  0.82405338  1
  In  In32  1  0.32428952  0.84500318  0.49612788  1
  In  In33  1  0.18586219  0.50299795  -0.00028899  1
  In  In34  1  -0.03139710  0.82567708  0.47885292  1
  In  In35  1  0.48721556  0.66203532  0.16728672  1
  In  In36  1  0.66514407  0.66645048  0.65191409  1
  In  In37  1  0.49614321  0.85521737  0.34625195  1
  In  In38  1  0.29813030  0.13816463  0.84217720  1
  In  In39  1  0.16170384  0.16189460  0.66818097  1
  In  In40  1  -0.01191989  -0.00441780  0.65727179  1
  In  In41  1  0.67778362  -0.02325425  0.33998000  1
  In  In42  1  0.15528569  -0.00454012  0.19440043  1
  In  In43  1  0.49955425  0.48225542  0.65413244  1
  In  In44  1  0.82058202  0.68266564  0.45203651  1
  In  In45  1  -0.02266851  -0.00883882  0.02912057  1
  In  In46  1  0.01499465  0.12622881  0.45357599  1
  In  In47  1  0.00302142  0.30802532  0.63359429  1
  In  In48  1  0.33978634  0.83126791  0.85686702  1
  In  In49  1  0.51987944  0.00047963  0.17409844  1
  In  In50  1  -0.00532337  0.83562556  0.81838517  1
  In  In51  1  0.47670269  0.35078956  0.25512157  1
  In  In52  1  0.84378685  0.65476830  0.82989518  1
  In  In53  1  0.49801692  -0.00264401  0.81264314  1
  In  In54  1  0.32335798  0.47329718  0.18447944  1
  In  In55  1  0.32695659  0.67525189  0.30710647  1
  In  In56  1  0.66587429  0.33063869  0.33765849  1
  In  In57  1  0.00704070  0.67272188  0.02393434  1
  In  In58  1  0.84187446  0.16430368  0.66988256  1
  In  In59  1  0.33541636  0.84218576  0.15860405  1
  In  In60  1  0.34280594  0.65680764  0.68955154  1
  In  In61  1  0.15023274  0.67388028  0.47329924  1
  In  In62  1  0.65041725  0.34687199  0.66154710  1
  In  In63  1  0.17415574  0.84196304  0.65287997  1
  In  In64  1  0.55270689  0.66306234  0.47155745  1
  In  In65  1  0.68965303  0.50660416  0.82575064  1
  In  In66  1  0.68152610  0.82575625  0.19240897  1
  In  In67  1  0.51553251  0.53600853  -0.00279816  1
  In  In68  1  0.36849309  0.47734548  0.82373796  1
  In  In69  1  0.32237493  -0.00573474  0.67417182  1
  In  In70  1  -0.00200928  0.16444982  0.15316721  1
  In  In71  1  0.70048242  -0.01536693  0.64028685  1
  Te  Te72  1  0.09434119  0.07486737  0.07837815  1
  Te  Te73  1  0.09035413  0.01767193  0.38646606  1
  Te  Te74  1  0.08709782  0.05984188  0.75325392  1
  Te  Te75  1  0.08443052  0.44320849  0.09617774  1
  Te  Te76  1  0.07571610  0.41311267  0.42358961  1
  Te  Te77  1  0.10200112  0.39095143  0.71643028  1
  Te  Te78  1  0.04415922  0.78127014  0.12584971  1
  Te  Te79  1  0.07097501  0.76407602  0.38817027  1
  Te  Te80  1  0.07492258  0.74347935  0.72699919  1
  Te  Te81  1  0.42320230  0.08764156  0.10261301  1
  Te  Te82  1  0.43020183  0.07598972  0.44585788  1
  Te  Te83  1  0.40861946  0.09805797  0.74354890  1
  Te  Te84  1  0.42130834  0.43831893  0.07323508  1
  Te  Te85  1  0.43679895  0.38975493  0.39464593  1
  Te  Te86  1  0.39169368  0.38037043  0.69889084  1
  Te  Te87  1  0.45821487  0.79049815  0.08708023  1
  Te  Te88  1  0.40957486  0.74223008  0.41534942  1
  Te  Te89  1  0.42565852  0.76900372  0.74760217  1
  Te  Te90  1  0.73240354  0.08997438  0.08789820  1
  Te  Te91  1  0.75340602  0.08694046  0.41811320  1
  Te  Te92  1  0.74448058  0.08857295  0.75734418  1
  Te  Te93  1  0.76019527  0.44713718  0.08332275  1
  Te  Te94  1  0.73814108  0.44798548  0.40190785  1
  Te  Te95  1  0.75922554  0.38996016  0.75889648  1
  Te  Te96  1  0.78176677  0.74549208  0.12241516  1
  Te  Te97  1  0.68084719  0.72273104  0.40597217  1
  Te  Te98  1  0.74208439  0.74153914  0.75933251  1
  Te  Te99  1  0.07092277  0.24230374  0.26236010  1
  Te  Te100  1  0.09118659  0.22177400  0.54600174  1
  Te  Te101  1  0.10494725  0.25475812  0.93008888  1
  Te  Te102  1  0.09088340  0.58861439  0.26134908  1
  Te  Te103  1  0.08947841  0.57398171  0.57055489  1
  Te  Te104  1  0.08045805  0.58548382  0.91591980  1
  Te  Te105  1  0.03596139  0.94468539  0.26288860  1
  Te  Te106  1  0.06992743  0.90644488  0.56733058  1
  Te  Te107  1  0.06476331  0.92549896  0.91820999  1
  Te  Te108  1  0.41931610  0.22443969  0.20737523  1
  Te  Te109  1  0.42047624  0.28598896  0.57826416  1
  Te  Te110  1  0.41581293  0.24345006  0.91133855  1
  Te  Te111  1  0.41966141  0.56410883  0.26236486  1
  Te  Te112  1  0.41309997  0.58205485  0.57884847  1
  Te  Te113  1  0.39791012  0.60321467  0.91183308  1
  Te  Te114  1  0.40165482  0.93685648  0.25938575  1
  Te  Te115  1  0.40983518  0.90744856  0.59560654  1
  Te  Te116  1  0.42753372  0.92837444  0.92724396  1
  Te  Te117  1  0.75532892  0.26278082  0.23098904  1
  Te  Te118  1  0.75571008  0.25779238  0.58386839  1
  Te  Te119  1  0.76464134  0.25116678  0.91881010  1
  Te  Te120  1  0.77369680  0.65089562  0.30758601  1
  Te  Te121  1  0.76417270  0.58828803  0.57199744  1
  Te  Te122  1  0.74594003  0.59679482  0.93072822  1
  Te  Te123  1  0.79065113  0.88441514  0.29353556  1
  Te  Te124  1  0.77410844  0.90249378  0.54219251  1
  Te  Te125  1  0.77649297  0.90615707  0.93787315  1
  Te  Te126  1  0.23081872  0.24116002  0.06403879  1
  Te  Te127  1  0.26751788  0.17940479  0.39295870  1
  Te  Te128  1  0.24921175  0.24255388  0.75309189  1
  Te  Te129  1  0.26455679  0.59489059  0.10149507  1
  Te  Te130  1  0.25563495  0.57962318  0.40694658  1
  Te  Te131  1  0.24116046  0.56201837  0.75174466  1
  Te  Te132  1  0.25790767  0.93497908  0.06819262  1
  Te  Te133  1  0.22725220  0.92279832  0.41785836  1
  Te  Te134  1  0.24001216  0.90831179  0.77173590  1
  Te  Te135  1  0.58247535  0.26659117  0.06025293  1
  Te  Te136  1  0.57102186  0.25578400  0.43029081  1
  Te  Te137  1  0.57161582  0.23748070  0.73026330  1
  Te  Te138  1  0.59957172  0.59541695  0.10006768  1
  Te  Te139  1  0.59601925  0.53100051  0.42638944  1
  Te  Te140  1  0.57141774  0.57903499  0.75155747  1
  Te  Te141  1  0.63792564  0.94286291  0.10607248  1
  Te  Te142  1  0.58427060  0.92434547  0.43992670  1
  Te  Te143  1  0.59833847  0.91346935  0.73598003  1
  Te  Te144  1  0.91691885  0.27160972  0.09535209  1
  Te  Te145  1  0.91432241  0.24699269  0.41663091  1
  Te  Te146  1  0.93765015  0.24385157  0.75519986  1
  Te  Te147  1  0.88717190  0.63001054  0.11148949  1
  Te  Te148  1  0.92562170  0.58728341  0.40808338  1
  Te  Te149  1  0.93669673  0.58182721  0.73386088  1
  Te  Te150  1  0.87143437  0.89822983  0.07921192  1
  Te  Te151  1  0.87324989  0.92565990  0.42351337  1
  Te  Te152  1  0.89123459  0.91965271  0.74637845  1
  Te  Te153  1  0.23808899  0.10664425  0.24640454  1
  Te  Te154  1  0.23735929  0.07022690  0.57602231  1
  Te  Te155  1  0.29881003  0.02789679  0.93715445  1
  Te  Te156  1  0.25628871  0.36701170  0.26943668  1
  Te  Te157  1  0.24760009  0.37960846  0.52770817  1
  Te  Te158  1  0.25688664  0.40980474  0.90685483  1
  Te  Te159  1  0.23298233  0.78094723  0.25237831  1
  Te  Te160  1  0.24972961  0.72797784  0.58716757  1
  Te  Te161  1  0.22818929  0.75154211  0.94732599  1
  Te  Te162  1  0.58706633  0.09317828  0.28223324  1
  Te  Te163  1  0.58681790  0.07037428  0.60274431  1
  Te  Te164  1  0.59643957  0.06283896  0.91222625  1
  Te  Te165  1  0.60609200  0.41107410  0.22833512  1
  Te  Te166  1  0.60387047  0.44121340  0.55523846  1
  Te  Te167  1  0.57658779  0.42684816  0.90103779  1
  Te  Te168  1  0.56858921  0.75167587  0.26269599  1
  Te  Te169  1  0.58219482  0.76021846  0.57673655  1
  Te  Te170  1  0.59519535  0.76163916  0.94267125  1
  Te  Te171  1  0.92202571  0.06726626  0.24579281  1
  Te  Te172  1  0.91261392  0.08544059  0.56253088  1
  Te  Te173  1  0.91884526  0.10446419  0.94296505  1
  Te  Te174  1  0.88374486  0.44167328  0.25950275  1
  Te  Te175  1  0.92068728  0.42082763  0.57315944  1
  Te  Te176  1  0.92118472  0.42103548  0.90038927  1
  Te  Te177  1  0.91997106  0.70789832  0.32386887  1
  Te  Te178  1  0.87704356  0.78323588  0.59532223  1
  Te  Te179  1  0.92320799  0.74783405  0.91965050  1
