# generated using pymatgen
data_In2Te3
_symmetry_space_group_name_H-M   'P 1'
_cell_length_a   18.95622615
_cell_length_b   19.00116875
_cell_length_c   18.93775324
_cell_angle_alpha   90.14822332
_cell_angle_beta   89.96344145
_cell_angle_gamma   89.99853484
_symmetry_Int_Tables_number   1
_chemical_formula_structural   In2Te3
_chemical_formula_sum   'In72 Te108'
_cell_volume   6821.17367938
_cell_formula_units_Z   36
loop_
 _symmetry_equiv_pos_site_id
 _symmetry_equiv_pos_as_xyz
  1  'x, y, z'
loop_
 _atom_site_type_symbol
 _atom_site_label
 _atom_site_symmetry_multiplicity
 _atom_site_fract_x
 _atom_site_fract_y
 _atom_site_fract_z
 _atom_site_occupancy
  In  In0  1  -0.03773619  0.68641586  0.05067471  1
  In  In1  1  0.19261354  0.33738503  0.49164659  1
  In  In2  1  0.76464813  0.68878613  0.45493838  1
  In  In3  1  0.81915257  0.31707361  0.46717038  1
  In  In4  1  0.65656318  0.85062919  0.82478676  1
  In  In5  1  0.50072681  0.01247359  0.83412554  1
  In  In6  1  0.79842732  0.34121338  0.18419895  1
  In  In7  1  0.35497219  0.17504138  0.86538607  1
  In  In8  1  0.85355635  0.66496278  0.82050319  1
  In  In9  1  -0.04095453  0.03796715  0.06685500  1
  In  In10  1  0.14777226  -0.01602397  0.50884588  1
  In  In11  1  0.18622896  0.14861178  0.34099618  1
  In  In12  1  0.80840822  -0.03208179  0.48314392  1
  In  In13  1  0.64990339  0.47810107  0.46924739  1
  In  In14  1  0.51267049  0.47961543  0.03126260  1
  In  In15  1  0.16447897  -0.00633580  0.80787073  1
  In  In16  1  0.50319625  0.15344652  0.65140512  1
  In  In17  1  0.18405271  0.51845530  0.34524839  1
  In  In18  1  0.01160506  0.50381571  0.17904214  1
  In  In19  1  0.18609301  0.84967384  -0.02376404  1
  In  In20  1  0.55271301  0.19467733  0.05494410  1
  In  In21  1  0.00018531  0.83325551  0.17416839  1
  In  In22  1  0.16121146  0.65845437  0.16970472  1
  In  In23  1  0.34945833  0.77148050  0.18766506  1
  In  In24  1  0.69628767  0.00171898  0.03183443  1
  In  In25  1  -0.02677215  -0.00283486  0.31049792  1
  In  In26  1  0.33309453  0.51975419  0.83456009  1
  In  In27  1  0.48806137  0.34539266  0.83736639  1
  In  In28  1  0.33572797  0.68045804  0.00744626  1
  In  In29  1  0.00517600  0.70587208  0.60796476  1
  In  In30  1  0.68459346  0.14986991  0.85494482  1
  In  In31  1  -0.02738856  0.17015077  0.49984120  1
  In  In32  1  0.67462211  0.14522140  0.51574204  1
  In  In33  1  0.63101167  0.68591146  0.64564342  1
  In  In34  1  0.36141609  0.85103159  0.51314015  1
  In  In35  1  0.16274649  0.83310429  0.65579050  1
  In  In36  1  -0.01017141  0.32126248  0.65845708  1
  In  In37  1  0.37094065  -0.00932954  0.34967876  1
  In  In38  1  0.17774008  0.16851138  0.67918879  1
  In  In39  1  0.80584183  0.18150925  0.02471160  1
  In  In40  1  0.65780343  -0.01555541  0.33178060  1
  In  In41  1  0.12467750  0.82992463  0.36256070  1
  In  In42  1  0.20160339  0.56498127  0.57563277  1
  In  In43  1  0.42582386  0.48219772  0.24069095  1
  In  In44  1  0.50791822  -0.00101106  0.17356000  1
  In  In45  1  0.13952627  0.18002888  0.01420308  1
  In  In46  1  0.82209181  0.48272949  0.62697635  1
  In  In47  1  -0.02823704  0.35698468  0.01403748  1
  In  In48  1  0.52281098  0.85782951  0.00186590  1
  In  In49  1  0.35719201  0.18080209  0.18549275  1
  In  In50  1  0.81584345  0.64679477  0.23818122  1
  In  In51  1  0.38560966  0.67323797  0.62877699  1
  In  In52  1  0.15417251  0.38672880  0.83610745  1
  In  In53  1  0.31129060  0.34688374  0.67123416  1
  In  In54  1  0.16054123  0.63148148  0.85066388  1
  In  In55  1  0.84266086  0.13557313  0.68894816  1
  In  In56  1  0.01270634  0.31564713  0.32659145  1
  In  In57  1  0.00060120  0.48676542  0.81311059  1
  In  In58  1  0.67672075  0.52398636  0.82941203  1
  In  In59  1  0.34416068  0.14355640  0.48557941  1
  In  In60  1  0.16072278  0.49372427  -0.01467533  1
  In  In61  1  0.19945904  0.32386420  0.19391273  1
  In  In62  1  0.80032882  0.80636946  0.01424258  1
  In  In63  1  0.53738490  0.69008699  0.45949215  1
  In  In64  1  0.49806048  0.68565993  0.83149945  1
  In  In65  1  0.81774200  0.84381524  0.66244565  1
  In  In66  1  0.00363542  0.83966045  0.79757135  1
  In  In67  1  0.66154182  0.32343886  0.66982191  1
  In  In68  1  0.67135759  0.63811142  0.02990352  1
  In  In69  1  0.00798800  0.15159403  0.84773727  1
  In  In70  1  0.49201035  0.32566808  0.47304144  1
  In  In71  1  0.32666819  -0.00132994  0.00206818  1
  Te  Te72  1  0.10390643  0.05851855  0.08356169  1
  Te  Te73  1  0.06845928  0.07748109  0.41513543  1
  Te  Te74  1  0.06630254  0.07783142  0.72712680  1
  Te  Te75  1  0.09935964  0.40495233  0.10027335  1
  Te  Te76  1  0.09171409  0.41387467  0.40999086  1
  Te  Te77  1  0.09151124  0.42417188  0.70297179  1
  Te  Te78  1  0.09954400  0.75316895  0.06636770  1
  Te  Te79  1  0.06606254  0.75184761  0.47211399  1
  Te  Te80  1  0.08042195  0.71990358  0.74802538  1
  Te  Te81  1  0.42421760  0.08546599  0.07928658  1
  Te  Te82  1  0.44771907  0.11379765  0.38230300  1
  Te  Te83  1  0.40082400  0.09003560  0.74936771  1
  Te  Te84  1  0.42597311  0.39460274  0.11684803  1
  Te  Te85  1  0.44812724  0.43818216  0.38653320  1
  Te  Te86  1  0.41592392  0.43407222  0.73853948  1
  Te  Te87  1  0.45456471  0.74495588  0.07791607  1
  Te  Te88  1  0.41261772  0.76005659  0.40681278  1
  Te  Te89  1  0.43056493  0.76870670  0.73118638  1
  Te  Te90  1  0.74476959  0.09809544  0.13244044  1
  Te  Te91  1  0.75454154  0.08375773  0.40268798  1
  Te  Te92  1  0.72022460  0.07272586  0.73717971  1
  Te  Te93  1  0.72693778  0.43131981  0.09103407  1
  Te  Te94  1  0.77514821  0.44037255  0.39620160  1
  Te  Te95  1  0.75188611  0.41866021  0.74560355  1
  Te  Te96  1  0.73780887  0.73191397  0.12914078  1
  Te  Te97  1  0.70293465  0.79506938  0.36424604  1
  Te  Te98  1  0.73734937  0.73482439  0.75113064  1
  Te  Te99  1  0.09660806  0.22209494  0.24176348  1
  Te  Te100  1  0.09665600  0.24153221  0.56614890  1
  Te  Te101  1  0.07274745  0.27531774  0.91464668  1
  Te  Te102  1  0.07299227  0.59910481  0.27879622  1
  Te  Te103  1  0.05992513  0.58781879  0.53589574  1
  Te  Te104  1  0.04473627  0.57781777  0.93561464  1
  Te  Te105  1  0.09284441  0.92700863  0.24821511  1
  Te  Te106  1  0.05196668  0.89439449  0.57795630  1
  Te  Te107  1  0.07268771  0.92279677  0.90587460  1
  Te  Te108  1  0.46082881  0.27889468  0.22745623  1
  Te  Te109  1  0.40223997  0.24992903  0.58882324  1
  Te  Te110  1  0.44967359  0.25391600  0.95171485  1
  Te  Te111  1  0.38738916  0.62672731  0.23154152  1
  Te  Te112  1  0.47227341  0.58949163  0.54828117  1
  Te  Te113  1  0.43338545  0.58119090  0.93230870  1
  Te  Te114  1  0.42532909  0.89546375  0.24574083  1
  Te  Te115  1  0.42159598  0.97928743  0.54904333  1
  Te  Te116  1  0.41373620  0.91131766  0.91248919  1
  Te  Te117  1  0.69394219  0.28626464  0.27970745  1
  Te  Te118  1  0.76980960  0.24512756  0.59520817  1
  Te  Te119  1  0.74262430  0.26405359  0.92145203  1
  Te  Te120  1  0.72616011  0.52705644  0.26485271  1
  Te  Te121  1  0.71955524  0.58065660  0.56935853  1
  Te  Te122  1  0.77334380  0.58854751  0.92700167  1
  Te  Te123  1  0.77517208  0.90261064  0.28493220  1
  Te  Te124  1  0.71375347  0.91250848  0.58264237  1
  Te  Te125  1  0.75526668  0.91715303  0.91831087  1
  Te  Te126  1  0.25997299  0.24312674  0.08038648  1
  Te  Te127  1  0.27750746  0.25492984  0.39797509  1
  Te  Te128  1  0.24946982  0.25819150  0.77879770  1
  Te  Te129  1  0.25069325  0.57616341  0.07815365  1
  Te  Te130  1  0.25651412  0.60002601  0.44286799  1
  Te  Te131  1  0.24121697  0.57942434  0.73179154  1
  Te  Te132  1  0.27618256  0.88815376  0.08934329  1
  Te  Te133  1  0.24678462  0.91768153  0.41492248  1
  Te  Te134  1  0.25808866  0.91365259  0.73074805  1
  Te  Te135  1  0.64817978  0.30708533  0.10282360  1
  Te  Te136  1  0.61604036  0.25467089  0.42962857  1
  Te  Te137  1  0.57016678  0.24011676  0.76004469  1
  Te  Te138  1  0.60064831  0.55149022  0.12811593  1
  Te  Te139  1  0.61990504  0.58149708  0.35732053  1
  Te  Te140  1  0.56944690  0.58489185  0.74204216  1
  Te  Te141  1  0.61368974  0.90534846  0.11463571  1
  Te  Te142  1  0.58291485  0.88136361  0.40880444  1
  Te  Te143  1  0.55496815  0.91217937  0.74029792  1
  Te  Te144  1  0.90917492  0.25975572  0.10665401  1
  Te  Te145  1  0.90139898  0.22488989  0.37760042  1
  Te  Te146  1  0.91555536  0.24563031  0.76399046  1
  Te  Te147  1  0.89337696  0.57284834  0.11530596  1
  Te  Te148  1  0.87652508  0.62843028  0.37780313  1
  Te  Te149  1  0.91188176  0.56932004  0.71854617  1
  Te  Te150  1  0.89412241  0.89965321  0.09055060  1
  Te  Te151  1  0.90243586  0.89484913  0.39200915  1
  Te  Te152  1  0.89883993  0.92814681  0.75054086  1
  Te  Te153  1  0.27778013  0.06949477  0.25087133  1
  Te  Te154  1  0.24609589  0.07514035  0.58099138  1
  Te  Te155  1  0.23793867  0.08540603  0.91194981  1
  Te  Te156  1  0.27612296  0.43292352  0.26161660  1
  Te  Te157  1  0.28706255  0.43780850  0.55315703  1
  Te  Te158  1  0.27610032  0.41218356  0.92570227  1
  Te  Te159  1  0.22119016  0.75298504  0.27216139  1
  Te  Te160  1  0.26429116  0.75256190  0.57689320  1
  Te  Te161  1  0.25762995  0.74318991  0.89401829  1
  Te  Te162  1  0.57036246  0.09079893  0.27184406  1
  Te  Te163  1  0.55842247  0.05639205  0.55085480  1
  Te  Te164  1  0.58785520  0.07282692  0.94462616  1
  Te  Te165  1  0.56958708  0.37126493  0.29058008  1
  Te  Te166  1  0.57350704  0.40496107  0.58077995  1
  Te  Te167  1  0.59207829  0.42690549  0.91193641  1
  Te  Te168  1  0.51634790  0.68599481  0.30612451  1
  Te  Te169  1  0.58962049  0.79768908  0.55513167  1
  Te  Te170  1  0.60318141  0.74178718  0.92691739  1
  Te  Te171  1  0.89882989  0.06637217  0.20200304  1
  Te  Te172  1  0.90145283  0.06051953  0.57101743  1
  Te  Te173  1  0.90165362  0.09487513  0.93547466  1
  Te  Te174  1  0.92060679  0.41165880  0.25567930  1
  Te  Te175  1  0.92309852  0.40056269  0.54834857  1
  Te  Te176  1  0.90346130  0.42675777  0.90614130  1
  Te  Te177  1  0.93463066  0.74014227  0.26794151  1
  Te  Te178  1  0.86415086  0.74013963  0.56376673  1
  Te  Te179  1  0.91929022  0.76043174  0.91929425  1
