# generated using pymatgen
data_In2Te3
_symmetry_space_group_name_H-M   'P 1'
_cell_length_a   18.78036921
_cell_length_b   18.78534905
_cell_length_c   18.78062845
_cell_angle_alpha   89.94655893
_cell_angle_beta   90.00631567
_cell_angle_gamma   89.98913154
_symmetry_Int_Tables_number   1
_chemical_formula_structural   In2Te3
_chemical_formula_sum   'In72 Te108'
_cell_volume   6625.72362649
_cell_formula_units_Z   36
loop_
 _symmetry_equiv_pos_site_id
 _symmetry_equiv_pos_as_xyz
  1  'x, y, z'
loop_
 _atom_site_type_symbol
 _atom_site_label
 _atom_site_symmetry_multiplicity
 _atom_site_fract_x
 _atom_site_fract_y
 _atom_site_fract_z
 _atom_site_occupancy
  In  In0  1  0.48947350  0.50193485  0.32974014  1
  In  In1  1  0.02700517  -0.01312897  0.69626765  1
  In  In2  1  0.47555438  0.65504184  0.51166620  1
  In  In3  1  0.00771427  -0.01456091  0.31178547  1
  In  In4  1  0.18317684  0.49267661  0.66150990  1
  In  In5  1  0.32773847  0.01099300  0.32368591  1
  In  In6  1  0.17765842  0.66124055  0.49734785  1
  In  In7  1  0.82938554  0.49196134  0.33360561  1
  In  In8  1  0.50933665  0.02206721  0.15931224  1
  In  In9  1  0.85048809  0.14744746  0.31164931  1
  In  In10  1  0.33156021  0.49157982  0.82103099  1
  In  In11  1  0.34905139  0.17161981  0.51456901  1
  In  In12  1  0.01079974  0.17859566  0.51803397  1
  In  In13  1  0.17314303  0.67218926  0.15964715  1
  In  In14  1  0.65931104  0.17130304  0.15870633  1
  In  In15  1  0.81447321  0.66137556  0.83578839  1
  In  In16  1  0.50955955  0.64739977  0.16398450  1
  In  In17  1  0.16893735  -0.00555724  0.85748071  1
  In  In18  1  0.81817076  0.19092361  0.66709979  1
  In  In19  1  0.17126658  0.32730270  0.15774872  1
  In  In20  1  0.49936400  0.16988028  0.69810592  1
  In  In21  1  -0.01189972  0.49198321  0.14376448  1
  In  In22  1  0.17998548  0.18164456  0.31509483  1
  In  In23  1  0.50623688  0.48876622  0.65343616  1
  In  In24  1  0.83156537  0.84578622  0.01266252  1
  In  In25  1  0.83354903  0.81499390  0.66269312  1
  In  In26  1  0.80864616  0.49466875  -0.00277661  1
  In  In27  1  0.65542035  0.82870905  0.48892677  1
  In  In28  1  0.16755379  0.15481221  0.66779297  1
  In  In29  1  -0.00281534  0.81180522  0.51019641  1
  In  In30  1  -0.00028877  0.67658265  0.34217521  1
  In  In31  1  0.66212220  0.33790480  0.00101750  1
  In  In32  1  0.34579626  0.33637078  0.34223883  1
  In  In33  1  0.49005203  0.33597232  0.16190083  1
  In  In34  1  0.00983189  0.49839233  0.48690784  1
  In  In35  1  0.50042467  -0.01139176  0.50244133  1
  In  In36  1  0.50747512  0.84750334  -0.00931924  1
  In  In37  1  0.83160325  0.01606640  0.49158352  1
  In  In38  1  0.64195387  0.02416610  -0.01349971  1
  In  In39  1  0.02783978  0.84091497  0.15155380  1
  In  In40  1  0.84180651  0.02368827  0.86510961  1
  In  In41  1  -0.00816864  0.32425330  0.68191930  1
  In  In42  1  0.50353170  0.48865867  0.00851832  1
  In  In43  1  0.17472103  0.83439642  -0.00327588  1
  In  In44  1  0.81486695  0.33730615  0.82051907  1
  In  In45  1  0.31140719  0.83405067  0.16255975  1
  In  In46  1  0.34616256  0.15200450  0.84638091  1
  In  In47  1  0.16992307  0.33277708  0.85404741  1
  In  In48  1  0.83101164  0.67303745  0.15902712  1
  In  In49  1  0.17959265  0.50510417  0.33520437  1
  In  In50  1  0.67570780  0.65795177  0.67099402  1
  In  In51  1  0.34482618  0.16044647  0.14460407  1
  In  In52  1  0.34842345  0.83654070  0.85160450  1
  In  In53  1  0.66498844  0.66958720  0.33874253  1
  In  In54  1  0.81577348  0.49458264  0.67388390  1
  In  In55  1  0.01427337  0.82129417  0.82898021  1
  In  In56  1  0.31504174  0.67136352  -0.00298943  1
  In  In57  1  0.33736783  0.34591205  0.65873168  1
  In  In58  1  0.50996572  0.69221954  0.83903787  1
  In  In59  1  0.83217713  0.16723634  0.02046016  1
  In  In60  1  -0.00327189  0.33025846  0.00097043  1
  In  In61  1  0.02501258  0.32565362  0.30915213  1
  In  In62  1  0.80921984  0.31312445  0.50271078  1
  In  In63  1  0.17185354  0.81934168  0.67537652  1
  In  In64  1  0.50060173  0.81287643  0.33465557  1
  In  In65  1  0.80012980  0.86066149  0.30375350  1
  In  In66  1  0.65179708  0.32801269  0.32927687  1
  In  In67  1  0.48339243  0.85390886  0.67858052  1
  In  In68  1  0.67609408  0.17933940  0.48601817  1
  In  In69  1  0.64766585  -0.01046754  0.69102357  1
  In  In70  1  0.18972119  0.01501013  0.48432647  1
  In  In71  1  0.02128464  0.53649431  0.86291396  1
  Te  Te72  1  0.10717599  0.04673740  0.01521658  1
  Te  Te73  1  0.07886723  0.09406818  0.40966927  1
  Te  Te74  1  0.07952427  0.10086612  0.77820619  1
  Te  Te75  1  0.09890349  0.42705002  0.06488603  1
  Te  Te76  1  0.10209710  0.39913291  0.41748776  1
  Te  Te77  1  0.08010814  0.42059167  0.76157927  1
  Te  Te78  1  0.07199481  0.72760053  0.05627560  1
  Te  Te79  1  0.10151090  0.76546950  0.40888598  1
  Te  Te80  1  0.06590729  0.73006115  0.72673464  1
  Te  Te81  1  0.41440186  0.06461994  0.05094603  1
  Te  Te82  1  0.42531933  0.08876220  0.41237723  1
  Te  Te83  1  0.41263588  0.06133986  0.74850256  1
  Te  Te84  1  0.39553946  0.41388773  0.07853258  1
  Te  Te85  1  0.42862300  0.41587918  0.43474809  1
  Te  Te86  1  0.43611252  0.39790427  0.76164996  1
  Te  Te87  1  0.41683108  0.75578635  0.07954562  1
  Te  Te88  1  0.40259823  0.74926160  0.42328312  1
  Te  Te89  1  0.40188692  0.74198200  0.74370625  1
  Te  Te90  1  0.74979245  0.06022697  0.09637291  1
  Te  Te91  1  0.73782250  0.07745259  0.38921023  1
  Te  Te92  1  0.74994330  0.08435412  0.75426416  1
  Te  Te93  1  0.75116057  0.40486770  0.09892015  1
  Te  Te94  1  0.73125994  0.42000369  0.42488581  1
  Te  Te95  1  0.71250604  0.42229393  0.75379917  1
  Te  Te96  1  0.73647668  0.74625826  0.07062369  1
  Te  Te97  1  0.76632927  0.75679712  0.41353130  1
  Te  Te98  1  0.72931175  0.76862434  0.76267678  1
  Te  Te99  1  0.07356667  0.21981616  0.21048923  1
  Te  Te100  1  0.10518684  0.27242314  0.59143193  1
  Te  Te101  1  0.09367116  0.23709922  0.93815232  1
  Te  Te102  1  0.06646748  0.57253123  0.25145256  1
  Te  Te103  1  0.08024238  0.58326413  0.58909083  1
  Te  Te104  1  0.11355676  0.61544033  0.94257581  1
  Te  Te105  1  0.11638066  0.90858228  0.24840483  1
  Te  Te106  1  0.08625897  0.92682875  0.57058692  1
  Te  Te107  1  0.05151760  0.92459974  0.94044088  1
  Te  Te108  1  0.42079043  0.23591391  0.25474135  1
  Te  Te109  1  0.44652095  0.26233159  0.58857396  1
  Te  Te110  1  0.45677558  0.23270458  0.90956023  1
  Te  Te111  1  0.40397880  0.59387927  0.25080873  1
  Te  Te112  1  0.39379527  0.57275260  0.60462377  1
  Te  Te113  1  0.41846391  0.59248185  0.91520607  1
  Te  Te114  1  0.42189705  0.91738218  0.24179801  1
  Te  Te115  1  0.39929726  0.90252501  0.56672164  1
  Te  Te116  1  0.40448849  0.94447882  0.93922955  1
  Te  Te117  1  0.75592840  0.25058913  0.24775674  1
  Te  Te118  1  0.70132913  0.27779047  0.61170310  1
  Te  Te119  1  0.74683288  0.23899496  0.91674996  1
  Te  Te120  1  0.74336041  0.57884381  0.24277009  1
  Te  Te121  1  0.74912725  0.57839220  0.57160978  1
  Te  Te122  1  0.72028911  0.57453503  0.90989429  1
  Te  Te123  1  0.73244556  0.94633050  0.20703138  1
  Te  Te124  1  0.74569355  0.92090279  0.57846576  1
  Te  Te125  1  0.73816009  0.92711273  0.91744351  1
  Te  Te126  1  0.26031436  0.25282331  0.06440159  1
  Te  Te127  1  0.24932480  0.25177177  0.43010855  1
  Te  Te128  1  0.26045697  0.24818976  0.75195481  1
  Te  Te129  1  0.25454466  0.57177329  0.08769552  1
  Te  Te130  1  0.27420435  0.57461589  0.42342936  1
  Te  Te131  1  0.24444113  0.58971473  0.75340676  1
  Te  Te132  1  0.24478687  0.93592294  0.07820569  1
  Te  Te133  1  0.26808777  0.91135785  0.41595968  1
  Te  Te134  1  0.25524675  0.91795354  0.75726021  1
  Te  Te135  1  0.55940994  0.23940528  0.06546166  1
  Te  Te136  1  0.56528386  0.25237170  0.42172775  1
  Te  Te137  1  0.58264681  0.23636328  0.80288579  1
  Te  Te138  1  0.60253840  0.58063779  0.07131173  1
  Te  Te139  1  0.58033867  0.58098855  0.42788833  1
  Te  Te140  1  0.57629549  0.58236639  0.75631695  1
  Te  Te141  1  0.59900162  0.91712739  0.09333621  1
  Te  Te142  1  0.58888809  0.92517636  0.39316633  1
  Te  Te143  1  0.56143088  0.91820645  0.78664115  1
  Te  Te144  1  0.90818305  0.26568098  0.10014666  1
  Te  Te145  1  0.92138658  0.25064458  0.41325889  1
  Te  Te146  1  0.91946886  0.23119778  0.77649645  1
  Te  Te147  1  0.91245999  0.59135941  0.05822659  1
  Te  Te148  1  0.90436890  0.58942528  0.42388236  1
  Te  Te149  1  0.91681286  0.57723116  0.75892377  1
  Te  Te150  1  0.91517514  0.92829177  0.10606038  1
  Te  Te151  1  0.91600154  0.91482057  0.41413708  1
  Te  Te152  1  0.90405383  0.91952486  0.75624052  1
  Te  Te153  1  0.23695924  0.07805947  0.22071496  1
  Te  Te154  1  0.27367495  0.06962107  0.60041823  1
  Te  Te155  1  0.23719997  0.10135823  0.94124074  1
  Te  Te156  1  0.26287514  0.41687631  0.24227214  1
  Te  Te157  1  0.27415400  0.43584342  0.55782913  1
  Te  Te158  1  0.26521951  0.41568504  0.93030143  1
  Te  Te159  1  0.25915663  0.73656945  0.26028866  1
  Te  Te160  1  0.26146997  0.75287311  0.58020800  1
  Te  Te161  1  0.22972140  0.74249217  0.88895398  1
  Te  Te162  1  0.57532366  0.10545533  0.26153128  1
  Te  Te163  1  0.59011281  0.08457326  0.58473443  1
  Te  Te164  1  0.56035755  0.11205286  0.89651448  1
  Te  Te165  1  0.58601660  0.42890894  0.23502748  1
  Te  Te166  1  0.61876288  0.41196078  0.59743909  1
  Te  Te167  1  0.57483197  0.40956496  0.90446989  1
  Te  Te168  1  0.59775218  0.75491023  0.23273497  1
  Te  Te169  1  0.57498136  0.75366794  0.59335812  1
  Te  Te170  1  0.60302754  0.74381283  0.94295540  1
  Te  Te171  1  0.92912305  0.06665308  0.21371136  1
  Te  Te172  1  0.91808470  0.08588290  0.59669001  1
  Te  Te173  1  0.94128709  0.08804362  0.95454813  1
  Te  Te174  1  0.91101893  0.40259444  0.24109505  1
  Te  Te175  1  0.91505804  0.40623489  0.57771211  1
  Te  Te176  1  0.91651690  0.42061057  0.90384928  1
  Te  Te177  1  0.91857388  0.76543821  0.24786169  1
  Te  Te178  1  0.91186152  0.71819627  0.58537528  1
  Te  Te179  1  0.90927589  0.75215067  0.91542939  1
