# generated using pymatgen
data_In2Te3
_symmetry_space_group_name_H-M   'P 1'
_cell_length_a   18.97649653
_cell_length_b   18.97367344
_cell_length_c   18.98800236
_cell_angle_alpha   89.99339905
_cell_angle_beta   89.90019010
_cell_angle_gamma   90.05623665
_symmetry_Int_Tables_number   1
_chemical_formula_structural   In2Te3
_chemical_formula_sum   'In72 Te108'
_cell_volume   6836.68960593
_cell_formula_units_Z   36
loop_
 _symmetry_equiv_pos_site_id
 _symmetry_equiv_pos_as_xyz
  1  'x, y, z'
loop_
 _atom_site_type_symbol
 _atom_site_label
 _atom_site_symmetry_multiplicity
 _atom_site_fract_x
 _atom_site_fract_y
 _atom_site_fract_z
 _atom_site_occupancy
  In  In0  1  0.50431217  0.49953741  -0.00222017  1
  In  In1  1  0.01773395  0.49587477  0.81762596  1
  In  In2  1  0.19213905  0.66327898  0.49957114  1
  In  In3  1  0.80880583  0.32790341  0.51475304  1
  In  In4  1  0.34080617  0.52621662  0.17691430  1
  In  In5  1  0.15984189  0.00154117  0.19081558  1
  In  In6  1  0.35407666  0.17396272  0.50448169  1
  In  In7  1  0.79929226  -0.00486215  0.84037333  1
  In  In8  1  0.83867030  0.49249146  0.32777611  1
  In  In9  1  0.15245393  0.18035251  -0.00179862  1
  In  In10  1  0.65434528  0.35105633  -0.01453538  1
  In  In11  1  0.63743603  0.02576088  0.68249934  1
  In  In12  1  0.16214117  0.32857766  0.15584781  1
  In  In13  1  0.16798273  0.79366966  0.00323593  1
  In  In14  1  0.00082691  0.00458101  0.35706172  1
  In  In15  1  0.83010738  0.64758809  0.83646756  1
  In  In16  1  0.82928356  0.01647876  0.50465472  1
  In  In17  1  0.01341785  0.66551830  0.32263717  1
  In  In18  1  0.18973726  0.68725728  0.20342207  1
  In  In19  1  0.48608732  0.84049076  0.71072143  1
  In  In20  1  -0.01886313  0.15459959  0.82308458  1
  In  In21  1  0.66082302  0.65993955  0.01262177  1
  In  In22  1  0.34610202  0.78410580  0.44213126  1
  In  In23  1  -0.00275674  0.34725710  0.32563736  1
  In  In24  1  0.03727425  0.31006756  0.62526907  1
  In  In25  1  0.65989068  0.35420608  0.33835998  1
  In  In26  1  0.00522400  0.85478181  0.17426800  1
  In  In27  1  0.63559814  0.65371520  0.35996428  1
  In  In28  1  0.01035980  0.83019177  0.49838493  1
  In  In29  1  0.85020537  0.85889008  0.64192375  1
  In  In30  1  0.46921956  0.15984495  0.01096716  1
  In  In31  1  0.48596129  0.51176614  0.65646886  1
  In  In32  1  0.35996499  0.33556085  0.33723372  1
  In  In33  1  0.81382227  0.82106093  -0.02914918  1
  In  In34  1  0.80491490  0.50207318  0.01228816  1
  In  In35  1  0.32723230  0.02039676  0.65625916  1
  In  In36  1  0.51229896  0.17912630  0.33837368  1
  In  In37  1  0.32461327  0.32309415  -0.02114673  1
  In  In38  1  0.47390919  0.00685009  0.85423478  1
  In  In39  1  -0.01803239  0.00100622  -0.02245875  1
  In  In40  1  0.50543488  0.34451606  0.50931051  1
  In  In41  1  0.79472792  -0.00835888  0.16541027  1
  In  In42  1  0.48134382  -0.10523202  0.13812825  1
  In  In43  1  0.17861229  0.00985687  0.83692103  1
  In  In44  1  0.51680940  0.35043866  0.16450426  1
  In  In45  1  0.21094633  0.48549753  0.62833734  1
  In  In46  1  0.17657621  0.12585328  0.35117752  1
  In  In47  1  0.18105704  0.51074030  0.35140647  1
  In  In48  1  0.31704592  -0.01578207  0.01219576  1
  In  In49  1  0.48647075  0.68620358  0.19244026  1
  In  In50  1  0.49423857  0.66383220  0.84866284  1
  In  In51  1  0.17119715  0.84877105  0.65961518  1
  In  In52  1  0.66472994  -0.01586302  0.33918990  1
  In  In53  1  0.82028791  0.50615589  0.66757961  1
  In  In54  1  0.00361446  -0.00009798  0.64299046  1
  In  In55  1  0.66798009  0.17538987  0.20046195  1
  In  In56  1  0.32952374  0.51356303  0.83573461  1
  In  In57  1  0.63879516  0.18198021  0.82093439  1
  In  In58  1  0.23823571  0.33638083  0.77527598  1
  In  In59  1  0.65246801  0.82283516  0.49372157  1
  In  In60  1  -0.00617623  0.34388257  -0.00917832  1
  In  In61  1  0.84599003  0.16604508  0.32415925  1
  In  In62  1  0.01454246  0.49709891  0.49503062  1
  In  In63  1  0.16148716  0.66376920  0.81179057  1
  In  In64  1  0.50388684  -0.00906081  0.48357786  1
  In  In65  1  0.67479827  0.80504263  0.85925633  1
  In  In66  1  0.83821256  0.65854504  0.18086940  1
  In  In67  1  -0.01021823  0.18643422  0.15800673  1
  In  In68  1  -0.00897078  0.81609927  0.84003363  1
  In  In69  1  0.67116964  0.66917059  0.68001656  1
  In  In70  1  0.82371154  0.33393008  0.80955697  1
  In  In71  1  0.48667921  0.18657682  0.64816420  1
  Te  Te72  1  0.07419497  0.07404420  0.07529752  1
  Te  Te73  1  0.05529937  0.11668050  0.43865272  1
  Te  Te74  1  0.08739012  0.08283272  0.74150026  1
  Te  Te75  1  0.09195017  0.42003480  0.06790779  1
  Te  Te76  1  0.10253764  0.39953870  0.42142736  1
  Te  Te77  1  0.10658828  0.40810725  0.72227547  1
  Te  Te78  1  0.07485773  0.73810297  0.10819824  1
  Te  Te79  1  0.10380356  0.74854775  0.41109226  1
  Te  Te80  1  0.06992871  0.75801632  0.72630538  1
  Te  Te81  1  0.42851566  0.04229131  0.09546567  1
  Te  Te82  1  0.41476004  0.08009654  0.40103346  1
  Te  Te83  1  0.40964264  0.10472806  0.75526876  1
  Te  Te84  1  0.40110004  0.41354198  0.08195951  1
  Te  Te85  1  0.45802059  0.42882774  0.39645702  1
  Te  Te86  1  0.40379231  0.42413670  0.74586289  1
  Te  Te87  1  0.40189720  0.77409802  0.10852784  1
  Te  Te88  1  0.46207497  0.69034242  0.41509580  1
  Te  Te89  1  0.40519040  0.72627110  0.75036418  1
  Te  Te90  1  0.75212011  0.11216189  0.09810586  1
  Te  Te91  1  0.74275309  0.09473166  0.40932722  1
  Te  Te92  1  0.75288531  0.10166754  0.74330789  1
  Te  Te93  1  0.71611185  0.42259422  0.09643182  1
  Te  Te94  1  0.74277223  0.43764945  0.43403207  1
  Te  Te95  1  0.72745762  0.41114055  0.72983162  1
  Te  Te96  1  0.75317193  0.74900012  0.09018250  1
  Te  Te97  1  0.74269738  0.72237864  0.43836303  1
  Te  Te98  1  0.77736516  0.76905853  0.75160820  1
  Te  Te99  1  0.09232085  0.23578750  0.25629469  1
  Te  Te100  1  0.11633598  0.20645324  0.56037309  1
  Te  Te101  1  0.07256227  0.25389856  0.89536689  1
  Te  Te102  1  0.09422051  0.56793473  0.24275050  1
  Te  Te103  1  0.09743103  0.58301724  0.58620530  1
  Te  Te104  1  0.08286221  0.58802662  0.90982678  1
  Te  Te105  1  0.09336480  0.90610005  0.28748408  1
  Te  Te106  1  0.10706956  0.93410699  0.55200433  1
  Te  Te107  1  0.09056871  0.91173536  0.91700279  1
  Te  Te108  1  0.42784389  0.24748472  0.23356129  1
  Te  Te109  1  0.37991551  0.29580209  0.59567998  1
  Te  Te110  1  0.43703804  0.26056433  0.90756538  1
  Te  Te111  1  0.40624153  0.60075883  0.28671384  1
  Te  Te112  1  0.41922099  0.58981358  0.54749707  1
  Te  Te113  1  0.39836349  0.59312995  0.94443505  1
  Te  Te114  1  0.37956928  0.87404513  0.25592703  1
  Te  Te115  1  0.42770633  0.92453150  0.59611337  1
  Te  Te116  1  0.39626597  0.90238159  0.91801414  1
  Te  Te117  1  0.76355669  0.27719120  0.25881329  1
  Te  Te118  1  0.78719625  0.20532484  0.59011692  1
  Te  Te119  1  0.74099651  0.25426814  0.90836231  1
  Te  Te120  1  0.73735334  0.58337077  0.26294743  1
  Te  Te121  1  0.75999586  0.60845253  0.57988399  1
  Te  Te122  1  0.72071307  0.57043120  0.90582413  1
  Te  Te123  1  0.76096915  0.89810359  0.27036565  1
  Te  Te124  1  0.72569920  0.93107014  0.59097041  1
  Te  Te125  1  0.71353350  0.93670177  0.95618394  1
  Te  Te126  1  0.26101392  0.23594421  0.08782811  1
  Te  Te127  1  0.26157016  0.24396218  0.40371261  1
  Te  Te128  1  0.28218214  0.20375714  0.74089618  1
  Te  Te129  1  0.25191984  0.60930506  0.09576328  1
  Te  Te130  1  0.28562783  0.56094164  0.44424579  1
  Te  Te131  1  0.26291984  0.59057998  0.72236827  1
  Te  Te132  1  0.22455972  0.89975272  0.09735842  1
  Te  Te133  1  0.30242582  0.91163950  0.38436299  1
  Te  Te134  1  0.26649974  0.91962144  0.75340063  1
  Te  Te135  1  0.58362105  0.24034944  0.08379469  1
  Te  Te136  1  0.60205968  0.25227710  0.43437508  1
  Te  Te137  1  0.58743691  0.26948245  0.71512201  1
  Te  Te138  1  0.56792052  0.58454471  0.10357066  1
  Te  Te139  1  0.56031750  0.59226285  0.47865395  1
  Te  Te140  1  0.58224574  0.57891990  0.76083340  1
  Te  Te141  1  0.61007804  0.90980862  0.07073807  1
  Te  Te142  1  0.55891833  0.88569860  0.39081269  1
  Te  Te143  1  0.59664616  0.91720371  0.78103282  1
  Te  Te144  1  0.90214292  0.26290232  0.07228808  1
  Te  Te145  1  0.91245157  0.26383666  0.41873562  1
  Te  Te146  1  0.93325450  0.26483036  0.73170532  1
  Te  Te147  1  0.90848185  0.57671130  0.08222521  1
  Te  Te148  1  0.92365643  0.58553164  0.41428181  1
  Te  Te149  1  0.92771683  0.58891182  0.73764146  1
  Te  Te150  1  0.90328243  0.90855273  0.06797735  1
  Te  Te151  1  0.90213967  0.91175293  0.42436873  1
  Te  Te152  1  0.92243419  0.93308988  0.76438159  1
  Te  Te153  1  0.26619800  0.08533177  0.24346520  1
  Te  Te154  1  0.23916696  0.09748080  0.56577245  1
  Te  Te155  1  0.25934626  0.09938159  0.92650354  1
  Te  Te156  1  0.25490303  0.41520231  0.25069763  1
  Te  Te157  1  0.27210460  0.38910526  0.53895217  1
  Te  Te158  1  0.23176227  0.41544344  0.90469183  1
  Te  Te159  1  0.28424811  0.75753486  0.29960643  1
  Te  Te160  1  0.26922067  0.76864675  0.57645068  1
  Te  Te161  1  0.24915574  0.75217926  0.89068840  1
  Te  Te162  1  0.57415801  0.06857158  0.25215890  1
  Te  Te163  1  0.57743528  0.09651667  0.56431986  1
  Te  Te164  1  0.57725192  0.08989303  0.92461178  1
  Te  Te165  1  0.56518095  0.44414936  0.26782266  1
  Te  Te166  1  0.59239680  0.42672428  0.59553644  1
  Te  Te167  1  0.54614726  0.39930293  0.89852099  1
  Te  Te168  1  0.60097698  0.75295631  0.25601845  1
  Te  Te169  1  0.57650212  0.76405048  0.61118550  1
  Te  Te170  1  0.56276159  0.75653135  0.94788394  1
  Te  Te171  1  0.92672136  0.06655805  0.23925970  1
  Te  Te172  1  0.90915692  0.10648781  0.59248747  1
  Te  Te173  1  0.88188200  0.09769999  0.92277159  1
  Te  Te174  1  0.92254462  0.42446330  0.22841347  1
  Te  Te175  1  0.92354811  0.41463457  0.58439833  1
  Te  Te176  1  0.90054979  0.43315906  0.89663226  1
  Te  Te177  1  0.91771111  0.76350261  0.25972739  1
  Te  Te178  1  0.92289251  0.74815545  0.58159581  1
  Te  Te179  1  0.92229285  0.71970113  0.93355050  1
