# generated using pymatgen
data_In2Te3
_symmetry_space_group_name_H-M   'P 1'
_cell_length_a   18.76946539
_cell_length_b   18.77835018
_cell_length_c   18.77683170
_cell_angle_alpha   89.90301149
_cell_angle_beta   89.92209173
_cell_angle_gamma   89.93080960
_symmetry_Int_Tables_number   1
_chemical_formula_structural   In2Te3
_chemical_formula_sum   'In72 Te108'
_cell_volume   6618.05406962
_cell_formula_units_Z   36
loop_
 _symmetry_equiv_pos_site_id
 _symmetry_equiv_pos_as_xyz
  1  'x, y, z'
loop_
 _atom_site_type_symbol
 _atom_site_label
 _atom_site_symmetry_multiplicity
 _atom_site_fract_x
 _atom_site_fract_y
 _atom_site_fract_z
 _atom_site_occupancy
  In  In0  1  0.85552042  0.53414857  0.00828881  1
  In  In1  1  0.17920041  0.81801679  0.35870537  1
  In  In2  1  0.31639150  0.49170876  0.16954085  1
  In  In3  1  0.33297381  0.49579076  0.51946852  1
  In  In4  1  -0.00610760  0.03076515  0.35640590  1
  In  In5  1  0.48450912  0.49257384  0.65586766  1
  In  In6  1  0.83919347  0.47296220  0.65933205  1
  In  In7  1  0.35985112  0.86295946  0.84380958  1
  In  In8  1  0.81477161  0.84482969  0.32238127  1
  In  In9  1  0.83108450  0.14800285  -0.01726609  1
  In  In10  1  0.16469841  0.66014685  0.80951298  1
  In  In11  1  0.34031133  0.84042764  0.14449792  1
  In  In12  1  0.63426892  0.50495362  0.49997076  1
  In  In13  1  0.31964285  0.35090643  -0.00569193  1
  In  In14  1  0.68336504  0.83147437  0.82976277  1
  In  In15  1  0.14639437  0.66827380  0.16779178  1
  In  In16  1  0.51838433  -0.01547834  0.16256489  1
  In  In17  1  0.49982275  0.67320441  0.84483714  1
  In  In18  1  0.50677083  0.83348180  0.65397859  1
  In  In19  1  0.67042728  0.16717097  0.51851965  1
  In  In20  1  -0.00310747  0.35081297  0.00081657  1
  In  In21  1  0.81049644  0.80496301  0.01848958  1
  In  In22  1  0.14244759  0.35514956  0.16945311  1
  In  In23  1  0.69385208  0.49706017  0.83103785  1
  In  In24  1  0.84865027  0.68512811  0.51683766  1
  In  In25  1  0.46570133  0.33787567  0.18739340  1
  In  In26  1  0.65269138  0.50818412  0.15285310  1
  In  In27  1  0.67257250  0.68422093  0.67433216  1
  In  In28  1  0.65869724  0.16550400  0.82804013  1
  In  In29  1  0.49692826  0.16381469  0.00610130  1
  In  In30  1  -0.00645294  0.15727358  0.18983990  1
  In  In31  1  0.83800077  0.14391300  0.36749426  1
  In  In32  1  0.17375397  0.48849174  0.67447253  1
  In  In33  1  0.14816508  0.80834283  0.00808645  1
  In  In34  1  -0.02118061  0.18285930  0.78593038  1
  In  In35  1  0.34385611  0.66352263  -0.00145163  1
  In  In36  1  0.18718119  0.17376574  -0.01788378  1
  In  In37  1  -0.00660215  -0.01139910  0.00900555  1
  In  In38  1  0.16715649  0.00439759  0.83637978  1
  In  In39  1  0.01506028  0.66312670  0.65543489  1
  In  In40  1  0.66112302  -0.00790300  -0.01819322  1
  In  In41  1  0.83966765  0.51383869  0.32036197  1
  In  In42  1  0.37894771  0.16973394  0.16677991  1
  In  In43  1  0.01167179  0.49234056  0.83221024  1
  In  In44  1  0.49969528  0.18221742  0.32712995  1
  In  In45  1  0.16496880  0.17769784  0.65916371  1
  In  In46  1  0.17402618  -0.01197693  0.16713490  1
  In  In47  1  0.32812565  -0.01052934  0.32632981  1
  In  In48  1  0.48501732  0.50775624  0.34661917  1
  In  In49  1  0.17011064  0.65738686  0.49747201  1
  In  In50  1  0.18068401  0.32910428  0.83156666  1
  In  In51  1  0.34173191  0.18895441  0.52803026  1
  In  In52  1  0.00252434  0.65596076  0.33919806  1
  In  In53  1  0.67058164  0.00085960  0.66273861  1
  In  In54  1  0.83588687  0.00677360  0.50982782  1
  In  In55  1  0.34124003  0.66657619  0.36388952  1
  In  In56  1  0.52390474  0.68676559  0.17189348  1
  In  In57  1  0.66127143  0.31156837  0.35376997  1
  In  In58  1  0.66538801  0.82246998  0.48859935  1
  In  In59  1  0.65573522  0.15546655  0.15832773  1
  In  In60  1  0.49855582  0.34331073  0.81412923  1
  In  In61  1  0.83024811  0.32177262  0.50834604  1
  In  In62  1  0.82897475  0.66391636  0.85078049  1
  In  In63  1  0.01494711  0.83028710  0.17063995  1
  In  In64  1  0.17037381  0.16350291  0.37387258  1
  In  In65  1  0.33942723  0.81532589  0.50631441  1
  In  In66  1  0.36149383  0.14853321  0.79349301  1
  In  In67  1  -0.01210150  0.17897721  0.51231032  1
  In  In68  1  0.83945322  0.34538106  0.18038866  1
  In  In69  1  0.50749407  -0.00454716  0.50247103  1
  In  In70  1  0.66607916  0.33066587  -0.02601165  1
  In  In71  1  0.15254049  0.84970759  0.64503823  1
  Te  Te72  1  0.08919762  0.09057987  0.08062333  1
  Te  Te73  1  0.09415712  0.06519882  0.46947762  1
  Te  Te74  1  0.07774246  0.07514124  0.73481411  1
  Te  Te75  1  0.06107380  0.45380120  0.08880971  1
  Te  Te76  1  0.06119555  0.44616721  0.35898241  1
  Te  Te77  1  0.07352012  0.39032198  0.74000902  1
  Te  Te78  1  0.03746493  0.71451383  0.06753751  1
  Te  Te79  1  0.06738295  0.75487557  0.43894632  1
  Te  Te80  1  0.07305663  0.76815286  0.75142633  1
  Te  Te81  1  0.41069993  0.04953164  0.07119984  1
  Te  Te82  1  0.40991736  0.08550564  0.41487632  1
  Te  Te83  1  0.44108726  0.05983244  0.70816439  1
  Te  Te84  1  0.42247066  0.43067704  0.07477015  1
  Te  Te85  1  0.42487274  0.40597936  0.43718289  1
  Te  Te86  1  0.39191761  0.42663715  0.75218119  1
  Te  Te87  1  0.44083207  0.76272422  0.06275439  1
  Te  Te88  1  0.43825108  0.76800770  0.40519000  1
  Te  Te89  1  0.41419866  0.75496542  0.74760176  1
  Te  Te90  1  0.75286980  0.06583942  0.08387207  1
  Te  Te91  1  0.72118492  0.06127972  0.42098893  1
  Te  Te92  1  0.76029541  0.06458060  0.76783710  1
  Te  Te93  1  0.75578387  0.41444332  0.07332244  1
  Te  Te94  1  0.74958960  0.42113071  0.41413140  1
  Te  Te95  1  0.74103309  0.39279202  0.73659401  1
  Te  Te96  1  0.74317525  0.72031070  0.12276937  1
  Te  Te97  1  0.75397991  0.72852331  0.40575515  1
  Te  Te98  1  0.78553996  0.76125570  0.73954637  1
  Te  Te99  1  0.08945178  0.24349912  0.26836911  1
  Te  Te100  1  0.07664024  0.27321257  0.58372812  1
  Te  Te101  1  0.07058137  0.24379914  0.91050608  1
  Te  Te102  1  0.10772127  0.56445100  0.27667827  1
  Te  Te103  1  0.08186338  0.55680495  0.57057826  1
  Te  Te104  1  0.08592153  0.58918567  0.91300278  1
  Te  Te105  1  0.08657079  0.92415265  0.27498874  1
  Te  Te106  1  0.07315562  0.92818951  0.54948288  1
  Te  Te107  1  0.07625926  0.90574025  0.91156203  1
  Te  Te108  1  0.37790287  0.26589760  0.28912348  1
  Te  Te109  1  0.44016505  0.29493490  0.56145845  1
  Te  Te110  1  0.40949296  0.25151811  0.91485409  1
  Te  Te111  1  0.41127792  0.59770923  0.23746412  1
  Te  Te112  1  0.42507854  0.59883349  0.57093314  1
  Te  Te113  1  0.40473651  0.57246963  0.89914469  1
  Te  Te114  1  0.42816070  0.89903871  0.25500709  1
  Te  Te115  1  0.40154976  0.92795392  0.59245742  1
  Te  Te116  1  0.43388579  0.94447473  0.93938351  1
  Te  Te117  1  0.75339582  0.24033369  0.25298413  1
  Te  Te118  1  0.77764755  0.22172459  0.61064110  1
  Te  Te119  1  0.76880721  0.25382901  0.89292704  1
  Te  Te120  1  0.75570758  0.59490448  0.22157041  1
  Te  Te121  1  0.74859800  0.58143733  0.58565675  1
  Te  Te122  1  0.73033608  0.59521249  0.94382676  1
  Te  Te123  1  0.71819734  0.91009504  0.23094523  1
  Te  Te124  1  0.75523443  0.89630672  0.58592756  1
  Te  Te125  1  0.77665073  0.91850612  0.91407553  1
  Te  Te126  1  0.25629080  0.25155843  0.09375400  1
  Te  Te127  1  0.23234504  0.26935657  0.45815374  1
  Te  Te128  1  0.27457399  0.25880901  0.73460129  1
  Te  Te129  1  0.23728318  0.58408352  0.07758158  1
  Te  Te130  1  0.24471595  0.56019351  0.40535947  1
  Te  Te131  1  0.26919157  0.57564222  0.74594292  1
  Te  Te132  1  0.24592068  0.91865704  0.05347624  1
  Te  Te133  1  0.25010222  0.92374290  0.44028066  1
  Te  Te134  1  0.25304702  0.91585948  0.74700523  1
  Te  Te135  1  0.57795528  0.26999051  0.09201614  1
  Te  Te136  1  0.55728238  0.25481884  0.45178689  1
  Te  Te137  1  0.57772573  0.24698435  0.73497026  1
  Te  Te138  1  0.56169753  0.58665331  0.06801436  1
  Te  Te139  1  0.59670044  0.59399529  0.38876779  1
  Te  Te140  1  0.59044277  0.57917113  0.74898556  1
  Te  Te141  1  0.60969139  0.89454044  0.08468198  1
  Te  Te142  1  0.57722943  0.90799029  0.40575845  1
  Te  Te143  1  0.58076252  0.91784876  0.75610288  1
  Te  Te144  1  0.91447379  0.24215636  0.08439384  1
  Te  Te145  1  0.92556524  0.26184047  0.39824963  1
  Te  Te146  1  0.88636468  0.27215812  0.71367060  1
  Te  Te147  1  0.95130558  0.57630153  0.11050811  1
  Te  Te148  1  0.91935197  0.57287431  0.43765628  1
  Te  Te149  1  0.91355925  0.58336482  0.74714775  1
  Te  Te150  1  0.90432866  0.90641018  0.09803556  1
  Te  Te151  1  0.91443205  0.91400549  0.41690934  1
  Te  Te152  1  0.86474885  0.97063405  0.70271494  1
  Te  Te153  1  0.24778903  0.09456067  0.24747034  1
  Te  Te154  1  0.26281149  0.08477365  0.59714525  1
  Te  Te155  1  0.27979119  0.08034268  0.90640529  1
  Te  Te156  1  0.24702065  0.40207237  0.26448562  1
  Te  Te157  1  0.23584400  0.39562388  0.57345488  1
  Te  Te158  1  0.22294317  0.43617138  0.92301517  1
  Te  Te159  1  0.25249265  0.75364129  0.24045394  1
  Te  Te160  1  0.24843180  0.73633047  0.60043615  1
  Te  Te161  1  0.25368509  0.75487280  0.90953694  1
  Te  Te162  1  0.58833120  0.07409918  0.26764122  1
  Te  Te163  1  0.55703714  0.09968896  0.60793064  1
  Te  Te164  1  0.55831015  0.07131764  0.89985389  1
  Te  Te165  1  0.58659008  0.40873472  0.25901541  1
  Te  Te166  1  0.58864747  0.40191265  0.59539829  1
  Te  Te167  1  0.57508719  0.43311467  0.91165602  1
  Te  Te168  1  0.63173790  0.78112076  0.22807413  1
  Te  Te169  1  0.57224949  0.72656996  0.56757406  1
  Te  Te170  1  0.59752623  0.75322254  0.92179821  1
  Te  Te171  1  0.89056560  0.06099404  0.24702258  1
  Te  Te172  1  0.91735689  0.08199035  0.61328448  1
  Te  Te173  1  0.93687974  0.07976656  0.89903606  1
  Te  Te174  1  0.94492303  0.42317815  0.25651566  1
  Te  Te175  1  0.93579960  0.40862350  0.56706551  1
  Te  Te176  1  0.89854821  0.42248812  0.90878508  1
  Te  Te177  1  0.91593932  0.74819466  0.25360183  1
  Te  Te178  1  0.93455563  0.77426499  0.59648599  1
  Te  Te179  1  0.91540702  0.76048319  0.92079381  1
