# generated using pymatgen
data_In2Te3
_symmetry_space_group_name_H-M   'P 1'
_cell_length_a   18.80101056
_cell_length_b   18.80542008
_cell_length_c   18.80874191
_cell_angle_alpha   90.04738532
_cell_angle_beta   89.88027944
_cell_angle_gamma   89.96277937
_symmetry_Int_Tables_number   1
_chemical_formula_structural   In2Te3
_chemical_formula_sum   'In72 Te108'
_cell_volume   6650.01754448
_cell_formula_units_Z   36
loop_
 _symmetry_equiv_pos_site_id
 _symmetry_equiv_pos_as_xyz
  1  'x, y, z'
loop_
 _atom_site_type_symbol
 _atom_site_label
 _atom_site_symmetry_multiplicity
 _atom_site_fract_x
 _atom_site_fract_y
 _atom_site_fract_z
 _atom_site_occupancy
  In  In0  1  0.64273142  0.02326363  0.66919162  1
  In  In1  1  0.83309474  0.31657231  0.15986000  1
  In  In2  1  0.67034068  0.70857116  0.34907474  1
  In  In3  1  0.01259315  -0.00222419  0.66750053  1
  In  In4  1  0.65054527  0.51471511  0.85049123  1
  In  In5  1  0.50050797  0.00572765  0.84855578  1
  In  In6  1  0.30292784  0.16825597  0.83445949  1
  In  In7  1  0.30560722  0.33640251  0.31212349  1
  In  In8  1  0.83610544  0.17804100  0.30876824  1
  In  In9  1  0.48283357  0.48721900  -0.00501413  1
  In  In10  1  0.01788981  0.33517333  0.34115734  1
  In  In11  1  0.85243801  0.52504893  0.36082561  1
  In  In12  1  0.46917212  0.18482793  0.64274393  1
  In  In13  1  -0.00460448  0.51985898  0.84026769  1
  In  In14  1  0.82915978  0.66821029  0.15009930  1
  In  In15  1  0.00194176  -0.00960749  -0.00438703  1
  In  In16  1  0.79557360  0.85369147  0.30967296  1
  In  In17  1  0.85290915  0.17447848  0.65889034  1
  In  In18  1  0.18325574  0.16640079  -0.00156836  1
  In  In19  1  0.49334017  0.65534795  0.18979671  1
  In  In20  1  0.01846595  0.65763770  0.32463884  1
  In  In21  1  -0.00074908  0.03292007  0.33337935  1
  In  In22  1  0.66877476  0.30899761  0.32898248  1
  In  In23  1  0.84655809  0.34674603  0.49501078  1
  In  In24  1  0.52008518  -0.00143415  0.15909767  1
  In  In25  1  0.32024401  0.68065064  0.67563527  1
  In  In26  1  0.64859538  0.34987717  0.66821820  1
  In  In27  1  0.16947436  0.15013849  0.65389393  1
  In  In28  1  0.67059142  0.65627022  0.68217630  1
  In  In29  1  -0.00343765  0.49997587  0.16281142  1
  In  In30  1  0.32817117  0.66634702  -0.00422614  1
  In  In31  1  0.33982712  0.31723506  0.01131093  1
  In  In32  1  0.48994645  0.50420254  0.34301881  1
  In  In33  1  0.33196908  0.00287929  -0.02502827  1
  In  In34  1  0.46657205  0.14957019  0.35462144  1
  In  In35  1  0.01185813  0.33392997  0.67272262  1
  In  In36  1  0.32071088  0.17259943  0.17546344  1
  In  In37  1  0.49068797  0.34332372  0.82605964  1
  In  In38  1  0.31647158  0.64385864  0.35630873  1
  In  In39  1  0.67067932  0.67904158  -0.00579316  1
  In  In40  1  0.84499938  0.52634899  0.66833885  1
  In  In41  1  0.83792002  0.82090889  0.65589036  1
  In  In42  1  0.66290652  0.15096826  0.85160785  1
  In  In43  1  0.15744299  0.82302527  -0.02549872  1
  In  In44  1  0.14803528  0.49299076  -0.00730231  1
  In  In45  1  0.17418588  0.00610150  0.15890147  1
  In  In46  1  0.49936819  0.67305417  0.49995967  1
  In  In47  1  0.19339331  0.85501311  0.35239953  1
  In  In48  1  0.83181435  0.32938820  0.84591974  1
  In  In49  1  0.16167965  0.65317441  0.15294416  1
  In  In50  1  0.33748134  0.85294631  0.81284659  1
  In  In51  1  0.15330158  0.17023697  0.35003111  1
  In  In52  1  0.51856099  0.85299809  0.31799107  1
  In  In53  1  0.32390914  0.51462732  0.81364707  1
  In  In54  1  0.32207186  0.49668138  0.51025725  1
  In  In55  1  0.35407677  0.82549039  0.17135758  1
  In  In56  1  0.66707952  0.14980563  0.49470139  1
  In  In57  1  0.53198260  0.17503402  0.02307349  1
  In  In58  1  0.01529089  0.84246915  0.51161289  1
  In  In59  1  0.32508930  0.81924838  0.52020731  1
  In  In60  1  0.66936059  0.49148416  0.18062233  1
  In  In61  1  0.83545785  -0.00079150  0.48914634  1
  In  In62  1  0.66748249  0.83130424  0.48130349  1
  In  In63  1  0.65901751  0.84522424  0.84376897  1
  In  In64  1  0.84757667  -0.02189282  0.83552104  1
  In  In65  1  0.33013761  -0.01653850  0.65488909  1
  In  In66  1  -0.01816027  0.85198273  0.16083907  1
  In  In67  1  0.66008824  0.48384820  0.53754041  1
  In  In68  1  0.16195219  0.32973398  0.82019782  1
  In  In69  1  0.84476329  0.50232919  -0.00339493  1
  In  In70  1  0.17670072  0.34029454  0.50274953  1
  In  In71  1  0.82799003  0.14209623  0.02456786  1
  Te  Te72  1  0.07619142  0.09133133  0.08490462  1
  Te  Te73  1  0.09774424  0.06286325  0.43646636  1
  Te  Te74  1  0.08002876  0.09465353  0.75678558  1
  Te  Te75  1  0.07296977  0.40306781  0.08238705  1
  Te  Te76  1  0.08081759  0.43057717  0.43201893  1
  Te  Te77  1  0.08958355  0.44376421  0.74481228  1
  Te  Te78  1  0.07235679  0.75476750  0.08238165  1
  Te  Te79  1  0.09969636  0.75486672  0.41482088  1
  Te  Te80  1  0.06272323  0.71531270  0.78831714  1
  Te  Te81  1  0.40532557  0.08867538  0.07711212  1
  Te  Te82  1  0.38732257  0.07099396  0.45219017  1
  Te  Te83  1  0.41087958  0.08393201  0.75315628  1
  Te  Te84  1  0.42243101  0.40229257  0.09834180  1
  Te  Te85  1  0.40362003  0.40501846  0.41756840  1
  Te  Te86  1  0.39679737  0.40938123  0.73580493  1
  Te  Te87  1  0.43631608  0.74111830  0.07544527  1
  Te  Te88  1  0.42260327  0.75014191  0.39264124  1
  Te  Te89  1  0.42691409  0.75749431  0.74398759  1
  Te  Te90  1  0.75073226  0.05841759  0.11847448  1
  Te  Te91  1  0.74984431  0.07607725  0.38999801  1
  Te  Te92  1  0.76214326  0.08440011  0.74644011  1
  Te  Te93  1  0.74877646  0.41450271  0.07553054  1
  Te  Te94  1  0.73999840  0.41921138  0.41240847  1
  Te  Te95  1  0.76005956  0.42409892  0.74910442  1
  Te  Te96  1  0.77080289  0.76842264  0.05919003  1
  Te  Te97  1  0.78982401  0.75461314  0.43133613  1
  Te  Te98  1  0.75479711  0.75320904  0.76381553  1
  Te  Te99  1  0.08118927  0.24469595  0.24499514  1
  Te  Te100  1  0.07851979  0.24295216  0.57227542  1
  Te  Te101  1  0.09017291  0.24991122  0.92018665  1
  Te  Te102  1  0.11114494  0.54949795  0.26106983  1
  Te  Te103  1  0.05620104  0.63221822  0.56026853  1
  Te  Te104  1  0.09014962  0.61276210  0.91863157  1
  Te  Te105  1  0.09090039  0.91388371  0.25051296  1
  Te  Te106  1  0.11598119  0.91260229  0.59792630  1
  Te  Te107  1  0.07194436  0.90940342  0.89206491  1
  Te  Te108  1  0.42188171  0.25499894  0.25026283  1
  Te  Te109  1  0.42524287  0.29564270  0.55812855  1
  Te  Te110  1  0.42335135  0.22819876  0.91402210  1
  Te  Te111  1  0.38651632  0.56230427  0.24575946  1
  Te  Te112  1  0.41694760  0.58776425  0.59028258  1
  Te  Te113  1  0.42443709  0.59116990  0.90143875  1
  Te  Te114  1  0.40887449  0.93814957  0.25397999  1
  Te  Te115  1  0.43008903  0.89249504  0.59363141  1
  Te  Te116  1  0.43181417  0.89837778  0.93239420  1
  Te  Te117  1  0.71391501  0.22135769  0.21010311  1
  Te  Te118  1  0.74800798  0.25571017  0.58033757  1
  Te  Te119  1  0.74393550  0.24551034  0.93677887  1
  Te  Te120  1  0.75074443  0.59377300  0.26010100  1
  Te  Te121  1  0.75694767  0.59875246  0.56732058  1
  Te  Te122  1  0.76639759  0.59461234  0.90468246  1
  Te  Te123  1  0.71533391  0.93660904  0.21242242  1
  Te  Te124  1  0.74729974  0.93084285  0.59451611  1
  Te  Te125  1  0.75362458  0.91845365  0.93166918  1
  Te  Te126  1  0.22835917  0.26960461  0.10404251  1
  Te  Te127  1  0.26414928  0.24311671  0.42424444  1
  Te  Te128  1  0.25711718  0.25862940  0.72271457  1
  Te  Te129  1  0.25760426  0.56013657  0.07824646  1
  Te  Te130  1  0.21737630  0.58109219  0.44487609  1
  Te  Te131  1  0.22015138  0.59169646  0.74192487  1
  Te  Te132  1  0.25452615  0.90371054  0.07590119  1
  Te  Te133  1  0.28445134  0.93768155  0.43531457  1
  Te  Te134  1  0.22506628  0.91100258  0.73293210  1
  Te  Te135  1  0.60430910  0.26674142  0.10830827  1
  Te  Te136  1  0.57165268  0.24681822  0.42654164  1
  Te  Te137  1  0.58308242  0.23070145  0.74826419  1
  Te  Te138  1  0.58446698  0.57668802  0.08424045  1
  Te  Te139  1  0.59666383  0.58483689  0.41714168  1
  Te  Te140  1  0.57390307  0.55699932  0.73300607  1
  Te  Te141  1  0.60563288  0.89070823  0.10737766  1
  Te  Te142  1  0.59109886  0.93744609  0.41487998  1
  Te  Te143  1  0.56665840  0.91626759  0.74269665  1
  Te  Te144  1  0.92544708  0.24353950  0.07266944  1
  Te  Te145  1  0.92285171  0.23988564  0.41846923  1
  Te  Te146  1  0.93268585  0.24414604  0.76759339  1
  Te  Te147  1  0.93741274  0.60148004  0.06599040  1
  Te  Te148  1  0.95737320  0.58663943  0.44783789  1
  Te  Te149  1  0.92152406  0.62384909  0.75667020  1
  Te  Te150  1  0.89068011  0.91839202  0.06610255  1
  Te  Te151  1  0.92412039  0.90916895  0.40385119  1
  Te  Te152  1  0.93681486  0.89113703  0.74835025  1
  Te  Te153  1  0.25037824  0.07691816  0.26868066  1
  Te  Te154  1  0.28268065  0.09835121  0.56743912  1
  Te  Te155  1  0.21735283  0.05582001  0.89357436  1
  Te  Te156  1  0.22693886  0.44211781  0.25058979  1
  Te  Te157  1  0.23575957  0.42574415  0.60853297  1
  Te  Te158  1  0.26161073  0.40883307  0.91550784  1
  Te  Te159  1  0.24663362  0.74407748  0.24633040  1
  Te  Te160  1  0.21668455  0.74715031  0.59025967  1
  Te  Te161  1  0.25523621  0.74423068  0.88855519  1
  Te  Te162  1  0.56710638  0.09202237  0.26269295  1
  Te  Te163  1  0.54873082  0.07898286  0.56443429  1
  Te  Te164  1  0.59990495  0.05701024  0.95301108  1
  Te  Te165  1  0.57072658  0.40552632  0.25677622  1
  Te  Te166  1  0.54051503  0.40112614  0.57678152  1
  Te  Te167  1  0.59039859  0.39795583  0.92673136  1
  Te  Te168  1  0.60136196  0.76088587  0.22219615  1
  Te  Te169  1  0.59284252  0.75343046  0.58856478  1
  Te  Te170  1  0.57349369  0.73894198  0.90168698  1
  Te  Te171  1  0.90643526  0.07560154  0.22747621  1
  Te  Te172  1  0.93442628  0.08490358  0.56676676  1
  Te  Te173  1  0.91866715  0.08855724  0.90954922  1
  Te  Te174  1  0.89925328  0.42065102  0.25861623  1
  Te  Te175  1  0.93323414  0.43242499  0.58522407  1
  Te  Te176  1  0.93791505  0.40474672  0.92527231  1
  Te  Te177  1  0.91390225  0.74781454  0.25486343  1
  Te  Te178  1  0.94827126  0.73164569  0.59432667  1
  Te  Te179  1  0.96134693  0.72223143  0.89005362  1
