# generated using pymatgen
data_In2Te3
_symmetry_space_group_name_H-M   'P 1'
_cell_length_a   18.82407069
_cell_length_b   18.81668617
_cell_length_c   18.82337275
_cell_angle_alpha   90.04686180
_cell_angle_beta   90.08672117
_cell_angle_gamma   89.92490470
_symmetry_Int_Tables_number   1
_chemical_formula_structural   In2Te3
_chemical_formula_sum   'In72 Te108'
_cell_volume   6667.34785546
_cell_formula_units_Z   36
loop_
 _symmetry_equiv_pos_site_id
 _symmetry_equiv_pos_as_xyz
  1  'x, y, z'
loop_
 _atom_site_type_symbol
 _atom_site_label
 _atom_site_symmetry_multiplicity
 _atom_site_fract_x
 _atom_site_fract_y
 _atom_site_fract_z
 _atom_site_occupancy
  In  In0  1  0.16219091  0.12354489  0.31115140  1
  In  In1  1  0.15267404  -0.01366214  0.83101750  1
  In  In2  1  0.00515904  -0.01521623  0.31987997  1
  In  In3  1  0.67169868  0.67979231  0.66595647  1
  In  In4  1  -0.02622441  0.33334871  0.00123884  1
  In  In5  1  -0.00591911  0.15180391  0.83946179  1
  In  In6  1  -0.03025464  0.30702396  0.35688522  1
  In  In7  1  0.32157684  0.66504670  0.68585595  1
  In  In8  1  0.53305094  0.49757966  0.28677066  1
  In  In9  1  0.65268363  0.65270312  -0.00394334  1
  In  In10  1  0.86804640  0.52543549  0.68863350  1
  In  In11  1  0.82545876  0.48597097  0.32936113  1
  In  In12  1  0.67098115  0.48330351  0.47225031  1
  In  In13  1  0.30792948  0.14641315  0.49104383  1
  In  In14  1  -0.00207200  0.68489422  -0.01078224  1
  In  In15  1  0.15746635  0.00921720  0.50811382  1
  In  In16  1  0.49596200  0.49842552  0.67064639  1
  In  In17  1  0.84195003  -0.00390301  0.48950295  1
  In  In18  1  0.35794512  0.32403109  0.32478409  1
  In  In19  1  0.82785947  0.86048694  -0.02128592  1
  In  In20  1  0.50229275  0.83913851  0.30806494  1
  In  In21  1  0.50520881  0.33211884  0.49056267  1
  In  In22  1  0.67677247  0.16489397  0.18235016  1
  In  In23  1  0.65710531  0.68307136  0.33237860  1
  In  In24  1  0.65506041  0.13884405  0.82043648  1
  In  In25  1  -0.00766089  -0.00838171  0.67274025  1
  In  In26  1  0.80451737  0.14820134  0.67183082  1
  In  In27  1  0.17524681  0.69817928  0.83993150  1
  In  In28  1  0.65949378  0.85154230  0.15590446  1
  In  In29  1  -0.00088925  0.15915518  0.14967594  1
  In  In30  1  0.34320967  0.50245810  0.16342604  1
  In  In31  1  0.50705209  0.16571541  0.66949667  1
  In  In32  1  0.65622413  0.15649581  0.50656944  1
  In  In33  1  0.00754460  0.69244034  0.31880552  1
  In  In34  1  0.19385799  0.51513055  0.00601480  1
  In  In35  1  0.84369628  0.66292047  0.50830436  1
  In  In36  1  0.14703911  0.82700718  0.68110029  1
  In  In37  1  0.32341853  0.49589206  0.51150614  1
  In  In38  1  0.17628616  0.33421615  0.51606301  1
  In  In39  1  0.69352548  0.81788500  0.50939945  1
  In  In40  1  0.47920052  0.14926639  -0.00774475  1
  In  In41  1  0.81802948  0.48833134  0.00277814  1
  In  In42  1  0.00678389  0.50766593  0.19087366  1
  In  In43  1  0.17363066  0.32983922  0.16231659  1
  In  In44  1  0.66671657  0.50803878  0.83402536  1
  In  In45  1  0.33900486  -0.02138133  0.29312376  1
  In  In46  1  0.84237039  -0.01018093  0.16951588  1
  In  In47  1  0.47093282  0.53356700  0.02060273  1
  In  In48  1  0.33406729  0.83910216  0.86570131  1
  In  In49  1  0.01037173  0.33141123  0.66334027  1
  In  In50  1  0.16162521  0.15276382  0.03005050  1
  In  In51  1  0.33371901  0.84166653  0.48456732  1
  In  In52  1  0.84610833  0.13535812  -0.00406386  1
  In  In53  1  0.16161460  0.83058885  -0.00875067  1
  In  In54  1  0.14071437  0.66349996  0.49778220  1
  In  In55  1  0.83712072  0.67948792  0.17780410  1
  In  In56  1  0.49246514  -0.02636235  0.84807037  1
  In  In57  1  -0.00102911  0.51306975  0.52276543  1
  In  In58  1  0.16419992  0.35726811  0.83876370  1
  In  In59  1  0.50060222  0.33533063  0.81641772  1
  In  In60  1  0.82705029  0.34352211  0.84561926  1
  In  In61  1  0.49839500  0.16456674  0.30564953  1
  In  In62  1  0.66850930  0.33020580  0.00843674  1
  In  In63  1  0.15142362  0.51810851  0.34502397  1
  In  In64  1  0.33143851  0.17862056  0.82312910  1
  In  In65  1  0.33677547  0.35041959  0.67170679  1
  In  In66  1  0.84246840  0.82248211  0.68302630  1
  In  In67  1  0.67614927  0.02129384  0.33499204  1
  In  In68  1  0.32163282  0.70897068  0.29416581  1
  In  In69  1  0.51437086  0.84961735  0.66790866  1
  In  In70  1  0.51129697  0.00024017  0.50271746  1
  In  In71  1  0.33523962  -0.02199284  -0.01006732  1
  Te  Te72  1  0.07681893  0.04914981  0.08948052  1
  Te  Te73  1  0.06552455  0.09409305  0.42089938  1
  Te  Te74  1  0.09051511  0.09056376  0.73853205  1
  Te  Te75  1  0.07667112  0.42022681  0.08214692  1
  Te  Te76  1  0.07158058  0.41196106  0.42038314  1
  Te  Te77  1  0.06215273  0.42950600  0.76021667  1
  Te  Te78  1  0.07930567  0.75571569  0.08911360  1
  Te  Te79  1  0.09408067  0.77040560  0.40939955  1
  Te  Te80  1  0.05480282  0.73292619  0.75424614  1
  Te  Te81  1  0.39271698  0.07617579  0.08693099  1
  Te  Te82  1  0.41841679  0.07773193  0.40852513  1
  Te  Te83  1  0.41967947  0.07417086  0.75494759  1
  Te  Te84  1  0.43276429  0.40956360  0.09283902  1
  Te  Te85  1  0.42379789  0.43384340  0.41078171  1
  Te  Te86  1  0.39954012  0.44309092  0.77506786  1
  Te  Te87  1  0.42488737  0.73315805  0.04092347  1
  Te  Te88  1  0.42253109  0.74914451  0.40295302  1
  Te  Te89  1  0.41080386  0.77106319  0.75018143  1
  Te  Te90  1  0.74325757  0.06612681  0.08326809  1
  Te  Te91  1  0.77345165  0.11464504  0.40603405  1
  Te  Te92  1  0.77316070  0.05074876  0.78400059  1
  Te  Te93  1  0.73666417  0.41951138  0.10603777  1
  Te  Te94  1  0.76682166  0.38149635  0.41991265  1
  Te  Te95  1  0.75666560  0.42835544  0.74075533  1
  Te  Te96  1  0.75164960  0.75351114  0.07295409  1
  Te  Te97  1  0.77608771  0.74958057  0.40137430  1
  Te  Te98  1  0.73080255  0.76846723  0.76772168  1
  Te  Te99  1  0.08125051  0.24897542  0.25423772  1
  Te  Te100  1  0.07917057  0.23957611  0.57113712  1
  Te  Te101  1  0.07812966  0.24776484  0.92886420  1
  Te  Te102  1  0.10909231  0.61232083  0.23301502  1
  Te  Te103  1  0.08844009  0.58769626  0.61187428  1
  Te  Te104  1  0.09464051  0.58982104  0.91774769  1
  Te  Te105  1  0.12100547  0.91550532  0.25931098  1
  Te  Te106  1  0.06981861  0.90300622  0.57439158  1
  Te  Te107  1  0.06164029  0.89131569  0.89704121  1
  Te  Te108  1  0.42606816  0.25692695  0.21432624  1
  Te  Te109  1  0.40884541  0.24854515  0.57689187  1
  Te  Te110  1  0.41190327  0.26533199  0.91855771  1
  Te  Te111  1  0.42200402  0.59801436  0.25281663  1
  Te  Te112  1  0.41469079  0.59431950  0.58400789  1
  Te  Te113  1  0.42835925  0.62685635  0.91241841  1
  Te  Te114  1  0.40952814  0.88500206  0.20234019  1
  Te  Te115  1  0.40733644  0.92800370  0.58640040  1
  Te  Te116  1  0.46475903  0.87606393  0.97864359  1
  Te  Te117  1  0.72788222  0.27628146  0.26285503  1
  Te  Te118  1  0.73723718  0.24975251  0.58843565  1
  Te  Te119  1  0.74622865  0.23269840  0.91450756  1
  Te  Te120  1  0.74150568  0.58446128  0.24848666  1
  Te  Te121  1  0.74560360  0.57336766  0.58143939  1
  Te  Te122  1  0.76559069  0.59632218  0.90782047  1
  Te  Te123  1  0.75147375  0.90977304  0.26341278  1
  Te  Te124  1  0.75755563  0.92374513  0.59416367  1
  Te  Te125  1  0.73974901  0.93328565  0.88355616  1
  Te  Te126  1  0.26113374  0.25063971  0.07546052  1
  Te  Te127  1  0.24503673  0.25250230  0.40100180  1
  Te  Te128  1  0.23421763  0.26003085  0.73941704  1
  Te  Te129  1  0.25400815  0.60646691  0.10491977  1
  Te  Te130  1  0.26198461  0.59821922  0.41313101  1
  Te  Te131  1  0.24512352  0.58300241  0.77990963  1
  Te  Te132  1  0.24509498  0.90977859  0.08780242  1
  Te  Te133  1  0.24406786  0.93354852  0.40358633  1
  Te  Te134  1  0.25553148  0.90815136  0.75082024  1
  Te  Te135  1  0.58139781  0.22850857  0.07908453  1
  Te  Te136  1  0.58876168  0.24492769  0.39948074  1
  Te  Te137  1  0.60630412  0.26028967  0.73829541  1
  Te  Te138  1  0.59119934  0.56835634  0.10006766  1
  Te  Te139  1  0.57488026  0.58389119  0.41300269  1
  Te  Te140  1  0.57475932  0.59917583  0.75417805  1
  Te  Te141  1  0.58725391  0.93175785  0.05653704  1
  Te  Te142  1  0.59635638  0.90751352  0.41636635  1
  Te  Te143  1  0.60371864  0.89968146  0.77811444  1
  Te  Te144  1  0.88737769  0.24869288  0.09154074  1
  Te  Te145  1  0.87159262  0.23789298  0.43943797  1
  Te  Te146  1  0.90583959  0.24542843  0.75627978  1
  Te  Te147  1  0.91864574  0.57753035  0.08654869  1
  Te  Te148  1  0.92799146  0.58039288  0.39903104  1
  Te  Te149  1  0.92109934  0.64655837  0.75286206  1
  Te  Te150  1  0.92524400  0.90247368  0.08379478  1
  Te  Te151  1  0.92187191  0.90238348  0.40973684  1
  Te  Te152  1  0.93039191  0.90459953  0.77386826  1
  Te  Te153  1  0.27523724  0.09379387  0.22262263  1
  Te  Te154  1  0.24922617  0.07539586  0.60388817  1
  Te  Te155  1  0.24507983  0.08383583  0.90863146  1
  Te  Te156  1  0.24432961  0.42437217  0.26496138  1
  Te  Te157  1  0.22591574  0.44092921  0.61306343  1
  Te  Te158  1  0.26532131  0.41084189  0.93121207  1
  Te  Te159  1  0.23170076  0.80838994  0.22849755  1
  Te  Te160  1  0.24643097  0.75728836  0.57831655  1
  Te  Te161  1  0.28887764  0.72753586  0.96123338  1
  Te  Te162  1  0.57189803  0.05456940  0.23090112  1
  Te  Te163  1  0.60002423  0.05862776  0.61184739  1
  Te  Te164  1  0.58860415  0.06084607  0.93351511  1
  Te  Te165  1  0.62000976  0.38772164  0.24450787  1
  Te  Te166  1  0.58999495  0.41375770  0.58601547  1
  Te  Te167  1  0.57837116  0.41964483  0.92042986  1
  Te  Te168  1  0.57590893  0.74004054  0.21686085  1
  Te  Te169  1  0.57255135  0.74793538  0.56955047  1
  Te  Te170  1  0.54514694  0.73039822  0.92503595  1
  Te  Te171  1  0.91268159  0.09357515  0.25558140  1
  Te  Te172  1  0.91571469  0.09015778  0.58541367  1
  Te  Te173  1  0.94402699  0.04691541  0.93016629  1
  Te  Te174  1  0.91636531  0.39674344  0.24295901  1
  Te  Te175  1  0.90421274  0.41462294  0.58699260  1
  Te  Te176  1  0.92814327  0.44180399  0.90377348  1
  Te  Te177  1  0.93086400  0.78226918  0.22792023  1
  Te  Te178  1  0.93063539  0.75164553  0.58562772  1
  Te  Te179  1  0.89368632  0.74673159  0.90318697  1
