# generated using pymatgen
data_In2Te3
_symmetry_space_group_name_H-M   'P 1'
_cell_length_a   18.91383825
_cell_length_b   18.91829558
_cell_length_c   18.92505938
_cell_angle_alpha   90.00630288
_cell_angle_beta   90.07494505
_cell_angle_gamma   89.95924646
_symmetry_Int_Tables_number   1
_chemical_formula_structural   In2Te3
_chemical_formula_sum   'In72 Te108'
_cell_volume   6771.71145420
_cell_formula_units_Z   36
loop_
 _symmetry_equiv_pos_site_id
 _symmetry_equiv_pos_as_xyz
  1  'x, y, z'
loop_
 _atom_site_type_symbol
 _atom_site_label
 _atom_site_symmetry_multiplicity
 _atom_site_fract_x
 _atom_site_fract_y
 _atom_site_fract_z
 _atom_site_occupancy
  In  In0  1  0.34302469  0.48693793  0.83895103  1
  In  In1  1  -0.00600777  0.69866881  0.32119403  1
  In  In2  1  0.80563650  0.48891098  0.67111012  1
  In  In3  1  0.52351444  0.00392416  0.82662608  1
  In  In4  1  0.35247219  -0.02032138  0.33160105  1
  In  In5  1  0.33705157  0.14812337  0.18305172  1
  In  In6  1  -0.02197818  0.16985462  0.50116721  1
  In  In7  1  0.01221108  0.00219073  0.68817902  1
  In  In8  1  0.86724736  0.50959746  0.32291279  1
  In  In9  1  0.17312073  -0.01221646  0.15073402  1
  In  In10  1  -0.03229710  0.32122204  0.66955736  1
  In  In11  1  0.19683313  0.31729418  0.84499535  1
  In  In12  1  0.49351940  0.82299288  -0.00863020  1
  In  In13  1  0.33171320  0.32990781  0.67278772  1
  In  In14  1  0.04583419  0.33539047  0.28136152  1
  In  In15  1  0.50927261  0.66812299  0.82047020  1
  In  In16  1  0.47271305  0.33209276  0.16512553  1
  In  In17  1  0.01826443  0.83971142  0.85269834  1
  In  In18  1  0.13838046  0.50813814  0.67547497  1
  In  In19  1  0.15506713  0.00532709  0.49575927  1
  In  In20  1  0.46603434  0.50455398  0.30505772  1
  In  In21  1  0.85188807  0.82332891  -0.00292073  1
  In  In22  1  0.32173551  0.36332056  0.02362913  1
  In  In23  1  0.15307278  0.67183880  0.17112241  1
  In  In24  1  0.48896864  0.32962982  0.84479893  1
  In  In25  1  0.16487996  0.65635576  0.85284871  1
  In  In26  1  0.16553858  0.32760084  0.48479538  1
  In  In27  1  0.87577091  0.15054603  -0.01338472  1
  In  In28  1  0.04541127  0.35122230  0.04259423  1
  In  In29  1  0.33715507  0.14248683  0.85071569  1
  In  In30  1  0.17923218  0.14808884  -0.00418284  1
  In  In31  1  0.67605266  0.01444976  -0.00995696  1
  In  In32  1  0.65525441  0.51179970  0.51666890  1
  In  In33  1  0.82711316  0.32633801  0.15195983  1
  In  In34  1  0.35031385  0.50381541  0.50120775  1
  In  In35  1  0.66713780  0.33520931  0.35853606  1
  In  In36  1  0.49372089  0.34607304  0.48609065  1
  In  In37  1  0.30769325  -0.00152331  0.01024031  1
  In  In38  1  0.85899619  0.53628078  0.02360059  1
  In  In39  1  0.85071223  0.01127588  0.83269533  1
  In  In40  1  0.17688230  0.84049191  0.32327080  1
  In  In41  1  0.49608043  0.00585196  0.16725004  1
  In  In42  1  0.64715576  0.15910203  0.16926507  1
  In  In43  1  0.68114728  0.86139559  0.51097624  1
  In  In44  1  0.83354199  0.31306093  0.49260808  1
  In  In45  1  0.50700647  0.83506722  0.66137347  1
  In  In46  1  0.85080564  -0.01698709  0.16618315  1
  In  In47  1  0.83142802  0.15379952  0.64915663  1
  In  In48  1  0.01704663  0.52862846  0.50693773  1
  In  In49  1  0.82287363  0.82885667  0.31877648  1
  In  In50  1  0.65794110  0.66154715  0.34362172  1
  In  In51  1  0.66298496  0.15731079  0.52558131  1
  In  In52  1  0.65075677  0.52813931  0.16987535  1
  In  In53  1  0.66455081  0.81423515  0.17540938  1
  In  In54  1  0.01754303  0.49274197  0.85602760  1
  In  In55  1  0.20698549  0.50043687  0.32140695  1
  In  In56  1  -0.01655692  0.67800853  0.67420989  1
  In  In57  1  0.35454177  0.69710932  0.49037950  1
  In  In58  1  0.83801942  0.15489148  0.35563417  1
  In  In59  1  0.31384860  0.83374542  0.83123733  1
  In  In60  1  0.65879404  0.34452355  -0.01511400  1
  In  In61  1  0.31426389  0.16267183  0.49020883  1
  In  In62  1  0.02083240  -0.00128536  0.32162798  1
  In  In63  1  0.66538100  0.18480238  0.83145075  1
  In  In64  1  0.65139257  0.67790135  0.66249068  1
  In  In65  1  0.50711648  -0.00508115  0.50407845  1
  In  In66  1  0.31412623  0.66984196  0.01252776  1
  In  In67  1  -0.01356862  0.83850238  0.50683736  1
  In  In68  1  0.84987845  0.34278078  0.82737693  1
  In  In69  1  0.33511172  -0.01060905  0.66868238  1
  In  In70  1  0.81023661  0.66420730  0.81201008  1
  In  In71  1  0.64931506  0.66049416  -0.01251753  1
  Te  Te72  1  0.09026040  0.10620751  0.11110553  1
  Te  Te73  1  0.08298319  0.10712026  0.40883169  1
  Te  Te74  1  0.05337050  0.13416840  0.73199813  1
  Te  Te75  1  0.12888514  0.45134687  0.11930679  1
  Te  Te76  1  0.07748091  0.42633540  0.40827010  1
  Te  Te77  1  0.08112416  0.38677489  0.75791383  1
  Te  Te78  1  0.06062906  0.71641151  0.06304732  1
  Te  Te79  1  0.08791340  0.76443148  0.42007257  1
  Te  Te80  1  0.09145387  0.74816253  0.75560664  1
  Te  Te81  1  0.41663162  0.08910826  0.06826398  1
  Te  Te82  1  0.42113533  0.08575311  0.41425870  1
  Te  Te83  1  0.42726939  0.08682878  0.74165092  1
  Te  Te84  1  0.41265925  0.44969869  0.10104659  1
  Te  Te85  1  0.38890106  0.40464429  0.39134570  1
  Te  Te86  1  0.43059776  0.42602051  0.73332990  1
  Te  Te87  1  0.43000664  0.72984729  0.08666046  1
  Te  Te88  1  0.42420438  0.72575448  0.36196535  1
  Te  Te89  1  0.40719876  0.75182524  0.74430055  1
  Te  Te90  1  0.76717229  0.09286863  0.08630191  1
  Te  Te91  1  0.74746826  0.06852773  0.43561831  1
  Te  Te92  1  0.74297184  0.08196384  0.75054615  1
  Te  Te93  1  0.74184411  0.43525228  0.08605479  1
  Te  Te94  1  0.76703948  0.43405187  0.41601579  1
  Te  Te95  1  0.73255806  0.40872525  0.76936568  1
  Te  Te96  1  0.74756896  0.73983218  0.07344342  1
  Te  Te97  1  0.75027382  0.75056388  0.42423317  1
  Te  Te98  1  0.75108924  0.76712674  0.72658411  1
  Te  Te99  1  0.11651691  0.24011022  0.19396923  1
  Te  Te100  1  0.07590905  0.25213340  0.58327081  1
  Te  Te101  1  0.08901608  0.25527277  0.93085634  1
  Te  Te102  1  0.08571609  0.58537099  0.27758010  1
  Te  Te103  1  0.10567654  0.63015275  0.58364971  1
  Te  Te104  1  0.07293030  0.59193124  0.95280823  1
  Te  Te105  1  0.07437551  0.89499607  0.22498002  1
  Te  Te106  1  0.08935870  0.91003583  0.59374244  1
  Te  Te107  1  0.06916790  0.93967763  0.94787706  1
  Te  Te108  1  0.41851578  0.23987815  0.26398264  1
  Te  Te109  1  0.41032535  0.25005031  0.57175984  1
  Te  Te110  1  0.39102708  0.25617189  0.93344032  1
  Te  Te111  1  0.36494495  0.61207302  0.28173608  1
  Te  Te112  1  0.43107503  0.60098202  0.57344673  1
  Te  Te113  1  0.41057073  0.59939039  0.91378301  1
  Te  Te114  1  0.40435299  0.90114668  0.21731788  1
  Te  Te115  1  0.40523731  0.89992424  0.56915041  1
  Te  Te116  1  0.41416216  0.92664735  0.91059806  1
  Te  Te117  1  0.74981278  0.24805291  0.25923535  1
  Te  Te118  1  0.74110042  0.26779180  0.60087537  1
  Te  Te119  1  0.76661246  0.24556458  0.93188833  1
  Te  Te120  1  0.76043103  0.59365017  0.25152221  1
  Te  Te121  1  0.76083234  0.59771469  0.57919237  1
  Te  Te122  1  0.75353431  0.57177129  0.91896844  1
  Te  Te123  1  0.73419438  0.93056397  0.24738228  1
  Te  Te124  1  0.76521025  0.97205795  0.56071051  1
  Te  Te125  1  0.76214555  0.91737296  0.91351042  1
  Te  Te126  1  0.25121253  0.24664606  0.09300014  1
  Te  Te127  1  0.24383485  0.24757660  0.39206863  1
  Te  Te128  1  0.25445908  0.22145682  0.74505309  1
  Te  Te129  1  0.23866412  0.57158021  0.09615285  1
  Te  Te130  1  0.24065883  0.58665298  0.43910424  1
  Te  Te131  1  0.24908644  0.57594565  0.75463645  1
  Te  Te132  1  0.27110094  0.88793396  0.10111364  1
  Te  Te133  1  0.25617579  0.91278098  0.43037349  1
  Te  Te134  1  0.23139341  0.90874801  0.73554411  1
  Te  Te135  1  0.57599317  0.25618726  0.07954893  1
  Te  Te136  1  0.57967185  0.23293121  0.42197447  1
  Te  Te137  1  0.56393131  0.24860407  0.74821839  1
  Te  Te138  1  0.55669070  0.61278301  0.09390346  1
  Te  Te139  1  0.56216802  0.56440300  0.41049306  1
  Te  Te140  1  0.60181773  0.57559715  0.75508401  1
  Te  Te141  1  0.59453462  0.91696597  0.07409551  1
  Te  Te142  1  0.57903439  0.90335981  0.41389226  1
  Te  Te143  1  0.60181979  0.91269121  0.74320161  1
  Te  Te144  1  0.93723024  0.24531411  0.08786234  1
  Te  Te145  1  0.93601732  0.27479650  0.38566174  1
  Te  Te146  1  0.92318706  0.21142377  0.76694975  1
  Te  Te147  1  0.94591728  0.62230448  0.10658219  1
  Te  Te148  1  0.91912749  0.61040989  0.42430710  1
  Te  Te149  1  0.92549003  0.55454405  0.75157432  1
  Te  Te150  1  0.94107825  0.92238417  0.06500090  1
  Te  Te151  1  0.91676503  0.91982673  0.39818523  1
  Te  Te152  1  0.91912975  0.90199991  0.75237148  1
  Te  Te153  1  0.24312142  0.06252791  0.26459390  1
  Te  Te154  1  0.23754219  0.08474599  0.59485403  1
  Te  Te155  1  0.22512360  0.04717571  0.88900820  1
  Te  Te156  1  0.23295470  0.40090312  0.21701333  1
  Te  Te157  1  0.23314937  0.41897923  0.59335010  1
  Te  Te158  1  0.22986200  0.43915023  0.92749296  1
  Te  Te159  1  0.26074082  0.73851947  0.25400519  1
  Te  Te160  1  0.23431525  0.72011050  0.56972281  1
  Te  Te161  1  0.22708981  0.76949226  0.93693731  1
  Te  Te162  1  0.57904212  0.07602721  0.26641492  1
  Te  Te163  1  0.57273924  0.07667092  0.60778581  1
  Te  Te164  1  0.57449259  0.10761880  0.92746872  1
  Te  Te165  1  0.58877253  0.41190752  0.25336660  1
  Te  Te166  1  0.57986171  0.40920837  0.58619980  1
  Te  Te167  1  0.55252032  0.42919139  0.93385264  1
  Te  Te168  1  0.56561913  0.74630689  0.26269845  1
  Te  Te169  1  0.57821063  0.75389401  0.55412856  1
  Te  Te170  1  0.59693069  0.76901035  0.89451654  1
  Te  Te171  1  0.92336438  0.09086188  0.24748306  1
  Te  Te172  1  0.91427565  0.05115734  0.56930696  1
  Te  Te173  1  0.96916839  0.05589056  0.91743189  1
  Te  Te174  1  0.93022391  0.41809304  0.21975249  1
  Te  Te175  1  0.91878116  0.42561305  0.56935158  1
  Te  Te176  1  0.92276323  0.41358306  0.94880064  1
  Te  Te177  1  0.90137825  0.75175887  0.21825637  1
  Te  Te178  1  0.89482870  0.75753947  0.58896913  1
  Te  Te179  1  0.91709079  0.73030020  0.89682830  1
