# generated using pymatgen
data_In2Te3
_symmetry_space_group_name_H-M   'P 1'
_cell_length_a   18.87829166
_cell_length_b   18.86143582
_cell_length_c   18.86789789
_cell_angle_alpha   90.02341872
_cell_angle_beta   90.02594153
_cell_angle_gamma   89.92119940
_symmetry_Int_Tables_number   1
_chemical_formula_structural   In2Te3
_chemical_formula_sum   'In72 Te108'
_cell_volume   6718.31662125
_cell_formula_units_Z   36
loop_
 _symmetry_equiv_pos_site_id
 _symmetry_equiv_pos_as_xyz
  1  'x, y, z'
loop_
 _atom_site_type_symbol
 _atom_site_label
 _atom_site_symmetry_multiplicity
 _atom_site_fract_x
 _atom_site_fract_y
 _atom_site_fract_z
 _atom_site_occupancy
  In  In0  1  0.00044726  0.33835568  0.65159803  1
  In  In1  1  0.20469316  -0.02617583  0.14936491  1
  In  In2  1  0.14382168  0.18108232  0.30120632  1
  In  In3  1  0.67297123  0.33643252  -0.01972253  1
  In  In4  1  0.81717578  -0.00128459  0.51113484  1
  In  In5  1  -0.01938959  0.36700141  0.02190037  1
  In  In6  1  -0.02553733  0.15749529  0.83873134  1
  In  In7  1  0.62119796  0.70526014  -0.03335355  1
  In  In8  1  0.49714864  0.17269890  -0.00120831  1
  In  In9  1  0.50457650  0.51381082  0.34044047  1
  In  In10  1  0.63782969  0.66020299  0.69084766  1
  In  In11  1  0.83042247  0.52474123  -0.00350036  1
  In  In12  1  0.65578456  0.15840420  0.16956108  1
  In  In13  1  0.81150225  0.85705201  0.00218479  1
  In  In14  1  0.64702717  -0.01379814  -0.01640191  1
  In  In15  1  -0.00514533  0.48821032  0.14118317  1
  In  In16  1  0.37274416  0.85086016  0.53400426  1
  In  In17  1  0.33837580  0.71272096  0.00561200  1
  In  In18  1  0.80624446  0.66911258  0.49213258  1
  In  In19  1  -0.02058105  0.68544881  0.32133555  1
  In  In20  1  0.18518066  -0.00339769  0.49832896  1
  In  In21  1  -0.00293982  0.79796462  0.49266631  1
  In  In22  1  0.52053244  0.14810896  0.33033848  1
  In  In23  1  0.00468537  -0.02661094  0.33347150  1
  In  In24  1  0.16491886  0.34125318  0.84181844  1
  In  In25  1  0.35078794  0.13974528  0.49849365  1
  In  In26  1  0.34326292  0.32003352  -0.00329633  1
  In  In27  1  0.47407556  0.51101764  0.00469068  1
  In  In28  1  0.16209165  0.16696160  -0.01663436  1
  In  In29  1  0.15038662  0.49955226  -0.00138034  1
  In  In30  1  0.34499846  0.16160007  0.84995273  1
  In  In31  1  0.17830695  0.83231013  0.35824482  1
  In  In32  1  0.18147279  0.81249544  0.68361670  1
  In  In33  1  0.82441055  0.83745762  0.65040435  1
  In  In34  1  0.32954219  0.63961895  0.35294229  1
  In  In35  1  0.63415949  0.00462193  0.66890472  1
  In  In36  1  0.81121285  0.51535730  0.32368081  1
  In  In37  1  0.35329927  0.65970482  0.65004381  1
  In  In38  1  0.35773492  0.32841126  0.35501973  1
  In  In39  1  0.33237783  0.34947893  0.67686370  1
  In  In40  1  0.18389168  0.33793777  0.50369928  1
  In  In41  1  0.16905365  0.66936188  0.16292910  1
  In  In42  1  0.00569783  0.19139191  0.50144299  1
  In  In43  1  0.64179566  0.83537533  0.16001829  1
  In  In44  1  0.02628964  -0.01131264  0.68066345  1
  In  In45  1  0.50723862  0.20720795  0.67707444  1
  In  In46  1  0.34208961  0.82858458  0.83321574  1
  In  In47  1  0.83303340  0.32343615  0.15797890  1
  In  In48  1  0.83507331  0.65863017  0.83171520  1
  In  In49  1  0.82836909  0.17794290  -0.00082239  1
  In  In50  1  -0.00067601  0.83529696  0.82611614  1
  In  In51  1  0.84482308  0.34847560  0.46076306  1
  In  In52  1  0.34490566  0.14596077  0.17881713  1
  In  In53  1  0.00544226  0.66191972  0.01738575  1
  In  In54  1  0.48312924  0.83622674  0.30819973  1
  In  In55  1  0.17034964  0.49969349  0.34891154  1
  In  In56  1  -0.00168412  -0.00649130  0.01264904  1
  In  In57  1  0.67289932  0.33988943  0.32695978  1
  In  In58  1  0.85266002  0.12207745  0.35190604  1
  In  In59  1  0.03572570  0.53263106  0.52453436  1
  In  In60  1  0.65874353  0.53705729  0.17400093  1
  In  In61  1  0.34470623  0.52656915  0.80697726  1
  In  In62  1  -0.00567113  0.48714028  0.83966773  1
  In  In63  1  0.49630641  0.00129509  0.83185210  1
  In  In64  1  0.82012752  -0.02081101  0.18648090  1
  In  In65  1  0.63957638  0.21341636  0.54301780  1
  In  In66  1  0.18579108  -0.01266902  0.82796392  1
  In  In67  1  0.65727261  -0.00856974  0.34908216  1
  In  In68  1  0.82655343  0.15146402  0.66644252  1
  In  In69  1  0.51665798  0.65732106  0.51130788  1
  In  In70  1  0.32975375  0.49422630  0.18666892  1
  In  In71  1  0.79585374  0.47547462  0.67645433  1
  Te  Te72  1  0.10173756  0.07329080  0.08858235  1
  Te  Te73  1  0.07899312  0.07725068  0.41964920  1
  Te  Te74  1  0.09312859  0.09497031  0.76627345  1
  Te  Te75  1  0.11405659  0.39067792  0.10119733  1
  Te  Te76  1  0.07367102  0.41520666  0.43071519  1
  Te  Te77  1  0.09136719  0.42537903  0.73925631  1
  Te  Te78  1  0.10216815  0.75948426  0.06806149  1
  Te  Te79  1  0.09848460  0.71556766  0.41524435  1
  Te  Te80  1  0.06098617  0.73716925  0.73102649  1
  Te  Te81  1  0.42264744  0.07348319  0.07697390  1
  Te  Te82  1  0.41438687  0.06404310  0.38858543  1
  Te  Te83  1  0.41938400  0.09329882  0.73834402  1
  Te  Te84  1  0.41690142  0.40431676  0.10002842  1
  Te  Te85  1  0.42142400  0.43463013  0.43440268  1
  Te  Te86  1  0.44002431  0.43542636  0.73813746  1
  Te  Te87  1  0.42910054  0.78476851  0.10023314  1
  Te  Te88  1  0.41458030  0.74335896  0.42498244  1
  Te  Te89  1  0.43397320  0.74779430  0.74383023  1
  Te  Te90  1  0.74886612  0.06896198  0.08465997  1
  Te  Te91  1  0.72923231  0.10191292  0.43714611  1
  Te  Te92  1  0.73677859  0.07401312  0.75094841  1
  Te  Te93  1  0.74731818  0.43120274  0.09146399  1
  Te  Te94  1  0.72691371  0.43867665  0.42922437  1
  Te  Te95  1  0.69063183  0.44345292  0.77784880  1
  Te  Te96  1  0.73177780  0.75018904  0.07010534  1
  Te  Te97  1  0.78011712  0.78848859  0.41205250  1
  Te  Te98  1  0.74749118  0.75256724  0.75203630  1
  Te  Te99  1  0.07450481  0.27514729  0.21752244  1
  Te  Te100  1  0.10819613  0.24373878  0.59965867  1
  Te  Te101  1  0.05883434  0.26507368  0.91974877  1
  Te  Te102  1  0.08323211  0.57050433  0.24239870  1
  Te  Te103  1  0.10365502  0.61361004  0.62553285  1
  Te  Te104  1  0.08219548  0.59463110  0.90191166  1
  Te  Te105  1  0.10488945  0.90169258  0.24485519  1
  Te  Te106  1  0.08454030  0.89850316  0.57231997  1
  Te  Te107  1  0.09013425  0.91264490  0.92125766  1
  Te  Te108  1  0.43321797  0.24761553  0.24982113  1
  Te  Te109  1  0.40616761  0.25916375  0.57475118  1
  Te  Te110  1  0.44188397  0.27082491  0.89288725  1
  Te  Te111  1  0.42393132  0.59864271  0.23947772  1
  Te  Te112  1  0.44954110  0.55774609  0.59905804  1
  Te  Te113  1  0.41244018  0.61359242  0.91064322  1
  Te  Te114  1  0.39063000  0.89727114  0.20698034  1
  Te  Te115  1  0.48026652  0.94344037  0.57736482  1
  Te  Te116  1  0.40995133  0.92477287  0.92370106  1
  Te  Te117  1  0.75727909  0.22870031  0.25900781  1
  Te  Te118  1  0.78117223  0.26275677  0.57226532  1
  Te  Te119  1  0.75083991  0.24524307  0.89490404  1
  Te  Te120  1  0.74242668  0.62696003  0.25663103  1
  Te  Te121  1  0.72769802  0.58116221  0.59051768  1
  Te  Te122  1  0.72501344  0.59908284  0.91780573  1
  Te  Te123  1  0.74368123  0.88601188  0.27743919  1
  Te  Te124  1  0.71466596  0.90787066  0.57287835  1
  Te  Te125  1  0.72915910  0.90496110  0.89081182  1
  Te  Te126  1  0.25719576  0.23260175  0.08349068  1
  Te  Te127  1  0.24493826  0.23157528  0.41124369  1
  Te  Te128  1  0.25235077  0.24717589  0.76228262  1
  Te  Te129  1  0.25846128  0.57637904  0.07500427  1
  Te  Te130  1  0.26505166  0.54940998  0.45280151  1
  Te  Te131  1  0.23972667  0.59515972  0.72648981  1
  Te  Te132  1  0.28852263  0.86565759  0.08609698  1
  Te  Te133  1  0.28770992  0.91743927  0.41912723  1
  Te  Te134  1  0.27490599  0.92356840  0.72384178  1
  Te  Te135  1  0.58710863  0.26140395  0.08552229  1
  Te  Te136  1  0.57305534  0.26523871  0.41305389  1
  Te  Te137  1  0.61774797  0.28212458  0.74422267  1
  Te  Te138  1  0.56730810  0.60988071  0.07540786  1
  Te  Te139  1  0.60486785  0.60001247  0.40645434  1
  Te  Te140  1  0.58053500  0.54459586  0.76740960  1
  Te  Te141  1  0.55311970  0.89344016  0.05355427  1
  Te  Te142  1  0.55010928  0.91422191  0.41792674  1
  Te  Te143  1  0.58761976  0.89776959  0.76861913  1
  Te  Te144  1  0.93555983  0.23253593  0.09083647  1
  Te  Te145  1  0.93164663  0.24993647  0.38220532  1
  Te  Te146  1  0.91005602  0.25915908  0.74525722  1
  Te  Te147  1  0.89835719  0.60310911  0.10733846  1
  Te  Te148  1  0.91755280  0.58274322  0.41758686  1
  Te  Te149  1  0.90702537  0.56263963  0.73966968  1
  Te  Te150  1  0.92491284  0.89051833  0.10842306  1
  Te  Te151  1  0.90048103  0.90040806  0.42218822  1
  Te  Te152  1  0.90527986  0.92636319  0.74713386  1
  Te  Te153  1  0.24201316  0.07121432  0.26275867  1
  Te  Te154  1  0.25717600  0.07899789  0.59522966  1
  Te  Te155  1  0.26388728  0.06401563  0.93405500  1
  Te  Te156  1  0.25033161  0.39618092  0.26936635  1
  Te  Te157  1  0.25111042  0.43879299  0.58826172  1
  Te  Te158  1  0.26584393  0.42936322  0.91490068  1
  Te  Te159  1  0.25768078  0.74036590  0.26349024  1
  Te  Te160  1  0.25953901  0.75437504  0.56809470  1
  Te  Te161  1  0.23902123  0.75088300  0.90467545  1
  Te  Te162  1  0.57746284  0.04388662  0.22793732  1
  Te  Te163  1  0.55513318  0.08227656  0.56333816  1
  Te  Te164  1  0.59106907  0.10142734  0.90210287  1
  Te  Te165  1  0.58096577  0.42373567  0.24043906  1
  Te  Te166  1  0.59070898  0.34121081  0.61144980  1
  Te  Te167  1  0.57303123  0.43220056  0.92521866  1
  Te  Te168  1  0.58685567  0.74184890  0.26035502  1
  Te  Te169  1  0.58363524  0.75897754  0.59527639  1
  Te  Te170  1  0.54352678  0.77264612  0.85720259  1
  Te  Te171  1  0.93416203  0.06976969  0.23551501  1
  Te  Te172  1  0.93693543  0.07639009  0.57926035  1
  Te  Te173  1  0.89591947  0.05895465  0.92279578  1
  Te  Te174  1  0.90613089  0.42148068  0.24892981  1
  Te  Te175  1  0.91459797  0.43508296  0.57069242  1
  Te  Te176  1  0.88394614  0.41056057  0.91106547  1
  Te  Te177  1  0.93699679  0.78319513  0.22383502  1
  Te  Te178  1  0.90898323  0.72534482  0.59210222  1
  Te  Te179  1  0.91158788  0.75467446  0.92600635  1
