# generated using pymatgen
data_In2Te3
_symmetry_space_group_name_H-M   'P 1'
_cell_length_a   18.76599067
_cell_length_b   18.77743576
_cell_length_c   18.76992135
_cell_angle_alpha   89.95495107
_cell_angle_beta   90.00762753
_cell_angle_gamma   89.99876704
_symmetry_Int_Tables_number   1
_chemical_formula_structural   In2Te3
_chemical_formula_sum   'In72 Te108'
_cell_volume   6614.08992938
_cell_formula_units_Z   36
loop_
 _symmetry_equiv_pos_site_id
 _symmetry_equiv_pos_as_xyz
  1  'x, y, z'
loop_
 _atom_site_type_symbol
 _atom_site_label
 _atom_site_symmetry_multiplicity
 _atom_site_fract_x
 _atom_site_fract_y
 _atom_site_fract_z
 _atom_site_occupancy
  In  In0  1  0.31651509  0.17576557  0.51875868  1
  In  In1  1  0.50331023  0.01223846  0.16651601  1
  In  In2  1  0.50100321  0.82048625  0.35799809  1
  In  In3  1  0.00759538  0.64777233  0.34618189  1
  In  In4  1  0.48552206  0.67567324  0.81333418  1
  In  In5  1  0.17352070  0.48898630  0.33250890  1
  In  In6  1  0.33031893  0.33285680  0.35263720  1
  In  In7  1  0.83006595  0.32912814  0.83173055  1
  In  In8  1  0.49467975  -0.00794110  0.50925942  1
  In  In9  1  0.34540954  -0.01644668  0.67405498  1
  In  In10  1  0.67208789  0.14712553  0.83035842  1
  In  In11  1  0.83870898  0.17426132  0.32930719  1
  In  In12  1  -0.01392644  0.49239821  0.17319084  1
  In  In13  1  0.01159566  0.17676497  0.80813504  1
  In  In14  1  0.86356304  0.66024008  0.50090183  1
  In  In15  1  -0.00114502  0.32586695  -0.03360458  1
  In  In16  1  0.66309808  0.33589696  0.33941697  1
  In  In17  1  0.49897309  0.17965315  0.32735689  1
  In  In18  1  0.32552964  0.17748717  0.82110600  1
  In  In19  1  -0.01763200  0.82959308  0.82787333  1
  In  In20  1  0.30749630  -0.01171095  0.35374129  1
  In  In21  1  0.65664027  0.83467792  0.51087073  1
  In  In22  1  0.48660821  0.18018773  0.65012519  1
  In  In23  1  0.00426913  0.82035327  0.13913070  1
  In  In24  1  0.17285991  0.50702732  -0.00823688  1
  In  In25  1  0.19433098  0.69354652  0.52887413  1
  In  In26  1  0.48112095  0.61518638  0.17047104  1
  In  In27  1  0.33007723  0.82061583  0.17158774  1
  In  In28  1  0.50496359  0.50687359  0.67898930  1
  In  In29  1  0.17766574  0.82797810  -0.00772210  1
  In  In30  1  0.65382653  -0.01753401  0.69714310  1
  In  In31  1  -0.00647201  0.33649735  0.34540870  1
  In  In32  1  -0.01237673  0.17182526  0.16662542  1
  In  In33  1  -0.00476973  0.65594806  0.68153079  1
  In  In34  1  0.51590703  0.82602496  -0.03138058  1
  In  In35  1  0.33836699  0.34904634  0.00108869  1
  In  In36  1  0.02065722  0.84468412  0.54998253  1
  In  In37  1  -0.00413586  -0.00087199  0.02128000  1
  In  In38  1  0.17921372  0.82509555  0.32935854  1
  In  In39  1  0.83488617  0.18559920  0.00186777  1
  In  In40  1  0.84599327  0.01792580  0.52425499  1
  In  In41  1  0.32215542  0.48188874  0.51129945  1
  In  In42  1  0.13955764  0.01175702  0.17028296  1
  In  In43  1  0.84648022  0.83923632  -0.01947980  1
  In  In44  1  0.68474570  0.82624293  0.16739684  1
  In  In45  1  0.35654721  -0.01769533  -0.01954877  1
  In  In46  1  0.81952558  0.65594003  0.14791636  1
  In  In47  1  0.83603100  -0.00331401  0.82052754  1
  In  In48  1  0.15429428  0.47819196  0.68250280  1
  In  In49  1  0.65345604  0.18129571  0.15145103  1
  In  In50  1  0.18363183  0.01826917  0.81786077  1
  In  In51  1  0.51089801  0.35275537  0.13795904  1
  In  In52  1  0.49597837  0.67718038  0.51084622  1
  In  In53  1  0.17514594  0.67102021  0.84135720  1
  In  In54  1  0.83558222  0.83507186  0.33419460  1
  In  In55  1  0.67898875  0.33447448  0.66125944  1
  In  In56  1  0.65812052  0.65888324  0.31837629  1
  In  In57  1  0.68167140  0.17813175  0.49278465  1
  In  In58  1  0.00793846  0.67667675  -0.01644278  1
  In  In59  1  0.00991153  0.03114133  0.37751132  1
  In  In60  1  0.51845573  0.36547273  0.84790570  1
  In  In61  1  -0.00942712  0.48592885  0.50721706  1
  In  In62  1  0.33167827  0.50650399  0.82996614  1
  In  In63  1  0.32829597  0.14763918  0.16055621  1
  In  In64  1  0.68351117  0.01003596  -0.01444722  1
  In  In65  1  0.66768444  0.49059159  0.13987828  1
  In  In66  1  0.15306293  0.16107406  0.66347320  1
  In  In67  1  0.17681215  0.34098912  0.18562068  1
  In  In68  1  0.33463771  0.65669649  -0.01226952  1
  In  In69  1  0.66382212  0.49890125  0.47824637  1
  In  In70  1  0.68648222  0.68957526  0.69019352  1
  In  In71  1  0.83440963  0.48977059  0.65507329  1
  Te  Te72  1  0.08787710  0.11190568  0.06658095  1
  Te  Te73  1  0.10722917  0.12339450  0.43751982  1
  Te  Te74  1  0.06005970  0.05074525  0.73339688  1
  Te  Te75  1  0.08644484  0.41173021  0.08020439  1
  Te  Te76  1  0.09871268  0.40471332  0.43421378  1
  Te  Te77  1  0.07909822  0.43272935  0.80071738  1
  Te  Te78  1  0.11223301  0.72606512  0.08574708  1
  Te  Te79  1  0.07634896  0.75087885  0.43347639  1
  Te  Te80  1  0.09058822  0.75758124  0.74709013  1
  Te  Te81  1  0.42977498  0.09256013  0.05984314  1
  Te  Te82  1  0.41304776  0.08878546  0.41815964  1
  Te  Te83  1  0.42753523  0.08543049  0.75341965  1
  Te  Te84  1  0.41995073  0.45124093  0.07222794  1
  Te  Te85  1  0.42472334  0.42134473  0.42174704  1
  Te  Te86  1  0.41168167  0.40586657  0.74583206  1
  Te  Te87  1  0.42488027  0.75311534  0.07287593  1
  Te  Te88  1  0.39445737  0.75117515  0.42974625  1
  Te  Te89  1  0.38543328  0.72481924  0.71718206  1
  Te  Te90  1  0.76083521  0.08664790  0.09227480  1
  Te  Te91  1  0.75705339  0.07269330  0.41267616  1
  Te  Te92  1  0.76592747  0.09347503  0.72566545  1
  Te  Te93  1  0.74940810  0.40507432  0.04696347  1
  Te  Te94  1  0.76081158  0.39760232  0.43267412  1
  Te  Te95  1  0.73773688  0.43187999  0.76173214  1
  Te  Te96  1  0.74385506  0.74747086  0.05165071  1
  Te  Te97  1  0.74286500  0.74052214  0.41890825  1
  Te  Te98  1  0.75790029  0.77998656  0.78169711  1
  Te  Te99  1  0.08347194  0.24552394  0.25948915  1
  Te  Te100  1  0.06566100  0.21952084  0.55486308  1
  Te  Te101  1  0.10312140  0.24327452  0.90225749  1
  Te  Te102  1  0.09236819  0.58043777  0.23958623  1
  Te  Te103  1  0.08310698  0.58899452  0.57487252  1
  Te  Te104  1  0.07123469  0.56463155  0.88724251  1
  Te  Te105  1  0.07108125  0.90331286  0.25423015  1
  Te  Te106  1  0.10779965  0.95288427  0.59423367  1
  Te  Te107  1  0.07709062  0.91794555  0.91962904  1
  Te  Te108  1  0.41221032  0.25718151  0.22991239  1
  Te  Te109  1  0.40651065  0.27872585  0.57601498  1
  Te  Te110  1  0.42198085  0.26099600  0.90830054  1
  Te  Te111  1  0.36925819  0.60144707  0.26066136  1
  Te  Te112  1  0.40539768  0.58509542  0.59410684  1
  Te  Te113  1  0.43855310  0.57061291  0.91707417  1
  Te  Te114  1  0.41078132  0.92574844  0.25429010  1
  Te  Te115  1  0.41531702  0.88980811  0.57948956  1
  Te  Te116  1  0.43211515  0.90852908  0.87225666  1
  Te  Te117  1  0.75038909  0.26186906  0.23792674  1
  Te  Te118  1  0.77262714  0.25632696  0.57802325  1
  Te  Te119  1  0.72744932  0.25652788  0.92183581  1
  Te  Te120  1  0.75370858  0.56360592  0.25005977  1
  Te  Te121  1  0.73927738  0.59382195  0.57539052  1
  Te  Te122  1  0.71820858  0.53622342  0.98362044  1
  Te  Te123  1  0.74603992  0.92374999  0.25835660  1
  Te  Te124  1  0.75021484  0.91829661  0.59608226  1
  Te  Te125  1  0.73504303  0.89857740  0.88631553  1
  Te  Te126  1  0.24872072  0.25343881  0.08257008  1
  Te  Te127  1  0.23098958  0.23719629  0.41087777  1
  Te  Te128  1  0.24393251  0.25895078  0.72801025  1
  Te  Te129  1  0.25875957  0.57895211  0.08794431  1
  Te  Te130  1  0.24278896  0.58719482  0.43059763  1
  Te  Te131  1  0.24792462  0.58933840  0.73352111  1
  Te  Te132  1  0.24718073  0.92944577  0.08940920  1
  Te  Te133  1  0.22314285  0.90837255  0.44453614  1
  Te  Te134  1  0.24841320  0.90161295  0.75534502  1
  Te  Te135  1  0.57164103  0.25042618  0.05051336  1
  Te  Te136  1  0.56736915  0.26169246  0.43514242  1
  Te  Te137  1  0.58147143  0.25315232  0.75107001  1
  Te  Te138  1  0.59447148  0.60841166  0.07693231  1
  Te  Te139  1  0.55821697  0.58322375  0.40546350  1
  Te  Te140  1  0.60528630  0.58113341  0.76472684  1
  Te  Te141  1  0.58570657  0.91794508  0.07775113  1
  Te  Te142  1  0.59405951  0.92962089  0.40870333  1
  Te  Te143  1  0.55716700  0.90567114  0.77583469  1
  Te  Te144  1  0.91395676  0.28041226  0.08990171  1
  Te  Te145  1  0.92159048  0.23850741  0.43660067  1
  Te  Te146  1  0.91937177  0.26265151  0.73033828  1
  Te  Te147  1  0.92015712  0.57727579  0.06373677  1
  Te  Te148  1  0.90104568  0.55298705  0.40034058  1
  Te  Te149  1  0.89521071  0.57832067  0.75776381  1
  Te  Te150  1  0.89310663  0.91974944  0.10180105  1
  Te  Te151  1  0.92497902  0.90977321  0.43419018  1
  Te  Te152  1  0.91874482  0.91746215  0.72623640  1
  Te  Te153  1  0.23271490  0.08817315  0.26424014  1
  Te  Te154  1  0.24262933  0.05858913  0.58638366  1
  Te  Te155  1  0.25764808  0.08889882  0.92915719  1
  Te  Te156  1  0.28494976  0.43257392  0.24302025  1
  Te  Te157  1  0.23236837  0.39205674  0.59123235  1
  Te  Te158  1  0.23838468  0.40521917  0.89728634  1
  Te  Te159  1  0.26101664  0.71950372  0.25917451  1
  Te  Te160  1  0.27232178  0.77833203  0.62186453  1
  Te  Te161  1  0.28028254  0.76827251  0.89803440  1
  Te  Te162  1  0.59838311  0.08631860  0.26029873  1
  Te  Te163  1  0.59111612  0.08297190  0.58774595  1
  Te  Te164  1  0.57338015  0.07233866  0.91030657  1
  Te  Te165  1  0.57657007  0.42755752  0.25297312  1
  Te  Te166  1  0.58058916  0.41911875  0.58003213  1
  Te  Te167  1  0.60575582  0.42745813  0.95127610  1
  Te  Te168  1  0.56667483  0.75197651  0.23688822  1
  Te  Te169  1  0.57352006  0.76105946  0.61457503  1
  Te  Te170  1  0.60100628  0.73316746  0.89003790  1
  Te  Te171  1  0.92241866  0.06627263  0.25558601  1
  Te  Te172  1  0.94195869  0.12164521  0.56505343  1
  Te  Te173  1  0.91722001  0.08623485  0.91762643  1
  Te  Te174  1  0.89894195  0.40519113  0.25294326  1
  Te  Te175  1  0.94536015  0.39646628  0.61795459  1
  Te  Te176  1  0.91474859  0.42940860  0.90333111  1
  Te  Te177  1  0.91884681  0.73505026  0.24469841  1
  Te  Te178  1  0.90447728  0.75905687  0.60561211  1
  Te  Te179  1  0.89214897  0.72062234  0.89098311  1
