# generated using pymatgen
data_In2Te3
_symmetry_space_group_name_H-M   'P 1'
_cell_length_a   18.87873292
_cell_length_b   18.86000607
_cell_length_c   18.86838553
_cell_angle_alpha   90.05119525
_cell_angle_beta   89.96434809
_cell_angle_gamma   90.15481542
_symmetry_Int_Tables_number   1
_chemical_formula_structural   In2Te3
_chemical_formula_sum   'In72 Te108'
_cell_volume   6718.11710477
_cell_formula_units_Z   36
loop_
 _symmetry_equiv_pos_site_id
 _symmetry_equiv_pos_as_xyz
  1  'x, y, z'
loop_
 _atom_site_type_symbol
 _atom_site_label
 _atom_site_symmetry_multiplicity
 _atom_site_fract_x
 _atom_site_fract_y
 _atom_site_fract_z
 _atom_site_occupancy
  In  In0  1  0.63860252  0.46639949  0.86227197  1
  In  In1  1  0.19208146  0.67645628  0.47779661  1
  In  In2  1  0.82442376  0.81196044  -0.01975764  1
  In  In3  1  0.15890601  0.17922685  0.68373880  1
  In  In4  1  -0.02297242  0.49156992  0.82443042  1
  In  In5  1  0.00768604  0.32631749  0.32726852  1
  In  In6  1  -0.02312845  0.64516895  0.68494740  1
  In  In7  1  0.36933424  0.23763240  0.14855393  1
  In  In8  1  0.83081694  0.17877844  0.01688535  1
  In  In9  1  0.82472941  0.83248335  0.67548210  1
  In  In10  1  0.00444448  0.84702300  0.49497400  1
  In  In11  1  0.81771552  0.65837069  0.48701467  1
  In  In12  1  0.31823127  0.01198241  0.34314171  1
  In  In13  1  0.83880037  0.33548576  0.15814423  1
  In  In14  1  0.66810625  0.17776627  0.86909598  1
  In  In15  1  0.49771837  0.48972277  0.67708426  1
  In  In16  1  0.65084910  0.82279192  0.16421635  1
  In  In17  1  0.82183457  0.00955688  0.84181373  1
  In  In18  1  0.66324019  0.65766696  0.66239644  1
  In  In19  1  0.30160178  0.18368373  0.49747712  1
  In  In20  1  0.82535850  0.50004001  -0.02005387  1
  In  In21  1  -0.02651284  0.84400296  0.84616188  1
  In  In22  1  0.36912010  0.82222622  0.84703168  1
  In  In23  1  0.49731246  0.17209056  0.68202153  1
  In  In24  1  0.81281026  0.36656096  0.47481012  1
  In  In25  1  0.65144068  0.15937528  0.13252983  1
  In  In26  1  0.47834429  -0.02004353  0.52551970  1
  In  In27  1  0.48538599  0.20083055  -0.01262422  1
  In  In28  1  0.14862621  0.67204236  0.84414194  1
  In  In29  1  0.35338090  0.63241995  0.32070472  1
  In  In30  1  0.02647317  0.48204880  0.16703504  1
  In  In31  1  0.16004953  0.82605414  0.31502402  1
  In  In32  1  0.33520098  0.00252038  -0.01638360  1
  In  In33  1  0.35248737  0.00247779  0.68790954  1
  In  In34  1  0.49418066  0.19327617  0.33818271  1
  In  In35  1  0.66000748  0.81439713  0.51313224  1
  In  In36  1  0.15856553  0.18798059  0.34263400  1
  In  In37  1  0.63822200  0.17067804  0.51313166  1
  In  In38  1  0.18004108  0.47998465  0.29843451  1
  In  In39  1  0.36122143  0.79922123  0.16973624  1
  In  In40  1  -0.00989132  0.50904985  0.50053265  1
  In  In41  1  0.83440025  -0.00298678  0.52476207  1
  In  In42  1  0.00468952  0.82656061  0.15212651  1
  In  In43  1  -0.01541330  0.00941444  -0.01235277  1
  In  In44  1  0.36235601  0.62112874  0.05215941  1
  In  In45  1  0.83421413  0.16143127  0.67884085  1
  In  In46  1  0.62599276  0.81066287  0.84487919  1
  In  In47  1  -0.00023432  0.17195007  0.18788989  1
  In  In48  1  0.49059011  -0.01282683  0.15935215  1
  In  In49  1  0.17752956  0.49861726  0.64248083  1
  In  In50  1  0.17128568  0.84159040  0.65503791  1
  In  In51  1  0.34567547  0.49871770  0.83070383  1
  In  In52  1  0.83048630  0.17291017  0.33269872  1
  In  In53  1  0.52172171  0.80969019  0.33369636  1
  In  In54  1  0.19496535  0.33682748  0.50550994  1
  In  In55  1  0.16701217  0.17959553  -0.00329312  1
  In  In56  1  0.37016681  0.85943662  0.50735386  1
  In  In57  1  0.19246546  0.33699902  0.83529637  1
  In  In58  1  0.68161754  -0.00702715  0.31441780  1
  In  In59  1  0.14546441  0.02277229  0.48125941  1
  In  In60  1  0.50662234  0.34499610  0.49232761  1
  In  In61  1  0.37016002  0.66343312  0.68252211  1
  In  In62  1  0.66019358  0.65877162  0.32934491  1
  In  In63  1  -0.00720441  0.31773068  0.65283919  1
  In  In64  1  0.51296922  0.51230922  0.33015479  1
  In  In65  1  0.65102426  0.51700671  0.13623518  1
  In  In66  1  0.17509487  0.02581218  0.83599483  1
  In  In67  1  0.68100563  0.34945914  0.67798686  1
  In  In68  1  0.17544226  -0.01500892  0.17903939  1
  In  In69  1  0.83828058  0.68209715  0.17520740  1
  In  In70  1  -0.00064670  0.66976006  0.01014698  1
  In  In71  1  0.17522575  0.80735013  0.00259388  1
  Te  Te72  1  0.08860959  0.06971413  0.08251493  1
  Te  Te73  1  0.05681480  0.09265414  0.38852515  1
  Te  Te74  1  0.07012283  0.08888547  0.75711851  1
  Te  Te75  1  0.13154587  0.43815163  0.07325084  1
  Te  Te76  1  0.08873275  0.41813109  0.42542455  1
  Te  Te77  1  0.08282792  0.42025610  0.73135012  1
  Te  Te78  1  0.10561535  0.72106882  0.10679130  1
  Te  Te79  1  0.07368579  0.74088507  0.40821534  1
  Te  Te80  1  0.07083424  0.76512374  0.74747854  1
  Te  Te81  1  0.40054522  0.09065323  0.09544451  1
  Te  Te82  1  0.42062755  0.08945361  0.42737187  1
  Te  Te83  1  0.42760373  0.08721152  0.78095333  1
  Te  Te84  1  0.38286445  0.38381551  0.09820057  1
  Te  Te85  1  0.42034396  0.41535015  0.39594910  1
  Te  Te86  1  0.42391013  0.38996498  0.76200093  1
  Te  Te87  1  0.43908186  0.75510579  0.05110489  1
  Te  Te88  1  0.41066519  0.74394427  0.41259455  1
  Te  Te89  1  0.45264165  0.71012552  0.79547364  1
  Te  Te90  1  0.75534013  0.06996191  0.08137663  1
  Te  Te91  1  0.73439943  0.08627655  0.42670039  1
  Te  Te92  1  0.72601419  0.08632930  0.75388819  1
  Te  Te93  1  0.73936247  0.41043899  0.07055127  1
  Te  Te94  1  0.70896636  0.42248839  0.38820858  1
  Te  Te95  1  0.75700745  0.42899016  0.77749295  1
  Te  Te96  1  0.73840038  0.73096670  0.07343512  1
  Te  Te97  1  0.74801448  0.76301842  0.40105934  1
  Te  Te98  1  0.74046258  0.74368309  0.76255168  1
  Te  Te99  1  0.10846884  0.27361973  0.22644044  1
  Te  Te100  1  0.09098640  0.24078710  0.56298639  1
  Te  Te101  1  0.08802741  0.25527707  0.89977202  1
  Te  Te102  1  0.07647248  0.57754733  0.26780330  1
  Te  Te103  1  0.08706481  0.60888705  0.58089735  1
  Te  Te104  1  0.07181512  0.56871760  0.92170747  1
  Te  Te105  1  0.06220456  0.92742793  0.25913692  1
  Te  Te106  1  0.07598870  0.94125341  0.59156259  1
  Te  Te107  1  0.09257888  0.91083259  0.92551295  1
  Te  Te108  1  0.45467581  0.30652311  0.24940461  1
  Te  Te109  1  0.42111162  0.24461821  0.57194366  1
  Te  Te110  1  0.42347192  0.30010280  0.89662687  1
  Te  Te111  1  0.43281407  0.56822088  0.21129890  1
  Te  Te112  1  0.39557508  0.55285290  0.58776080  1
  Te  Te113  1  0.43222982  0.53990608  0.94806392  1
  Te  Te114  1  0.40850548  0.90944009  0.27132471  1
  Te  Te115  1  0.44786175  0.88065860  0.64465604  1
  Te  Te116  1  0.44423957  0.93347920  0.91040818  1
  Te  Te117  1  0.74334208  0.24161945  0.23007686  1
  Te  Te118  1  0.74840608  0.25541260  0.57667709  1
  Te  Te119  1  0.75687323  0.27533973  0.93434769  1
  Te  Te120  1  0.75077693  0.57577475  0.23980601  1
  Te  Te121  1  0.74813488  0.56922553  0.58010984  1
  Te  Te122  1  0.71464504  0.58432213  0.92444717  1
  Te  Te123  1  0.75733727  0.89256532  0.24083258  1
  Te  Te124  1  0.72495012  0.91907138  0.60175827  1
  Te  Te125  1  0.73254248  0.90913904  0.90975305  1
  Te  Te126  1  0.25709106  0.28343819  0.06028152  1
  Te  Te127  1  0.27232467  0.28078605  0.38404323  1
  Te  Te128  1  0.26790897  0.26265680  0.73206669  1
  Te  Te129  1  0.22858017  0.55804668  0.08643989  1
  Te  Te130  1  0.25570112  0.55767862  0.41318419  1
  Te  Te131  1  0.23897072  0.59507202  0.74641761  1
  Te  Te132  1  0.26902781  0.90242859  0.08942588  1
  Te  Te133  1  0.23830711  0.90627685  0.42127419  1
  Te  Te134  1  0.25314208  0.90419891  0.76937388  1
  Te  Te135  1  0.58234555  0.27808183  0.07415487  1
  Te  Te136  1  0.61030302  0.27182785  0.40214340  1
  Te  Te137  1  0.59205987  0.25970663  0.76159611  1
  Te  Te138  1  0.58174264  0.58684304  0.02033099  1
  Te  Te139  1  0.57136303  0.60345043  0.43497653  1
  Te  Te140  1  0.58380555  0.57509428  0.76701264  1
  Te  Te141  1  0.59084830  0.92454343  0.07523614  1
  Te  Te142  1  0.58040247  0.92303565  0.41856591  1
  Te  Te143  1  0.55373090  0.90288443  0.75774795  1
  Te  Te144  1  0.94768776  0.26306563  0.08000158  1
  Te  Te145  1  0.91161607  0.26103285  0.42635374  1
  Te  Te146  1  0.89978139  0.26909783  0.75500521  1
  Te  Te147  1  0.91434020  0.57117143  0.09049333  1
  Te  Te148  1  0.90340094  0.57351189  0.40205611  1
  Te  Te149  1  0.87107070  0.56114366  0.74539775  1
  Te  Te150  1  0.90585337  0.90745783  0.06855242  1
  Te  Te151  1  0.90096502  0.91827005  0.42066615  1
  Te  Te152  1  0.91404034  0.93645682  0.74301556  1
  Te  Te153  1  0.24847606  0.10186282  0.24457803  1
  Te  Te154  1  0.25968269  0.06195827  0.58204022  1
  Te  Te155  1  0.27389698  0.11763950  0.90403604  1
  Te  Te156  1  0.29352465  0.46149822  0.20069735  1
  Te  Te157  1  0.28908582  0.41719920  0.58825861  1
  Te  Te158  1  0.23980849  0.44751768  0.92310219  1
  Te  Te159  1  0.25399341  0.72632673  0.24856118  1
  Te  Te160  1  0.27145470  0.74951498  0.58686613  1
  Te  Te161  1  0.27027536  0.72211207  0.92204733  1
  Te  Te162  1  0.57023053  0.08813358  0.25499790  1
  Te  Te163  1  0.57761748  0.06691500  0.60545484  1
  Te  Te164  1  0.57365195  0.09132228  0.94333554  1
  Te  Te165  1  0.61965704  0.43103325  0.25915821  1
  Te  Te166  1  0.59828095  0.43051955  0.57911194  1
  Te  Te167  1  0.55208524  0.37263470  0.94440502  1
  Te  Te168  1  0.56114199  0.71486790  0.22298416  1
  Te  Te169  1  0.56351321  0.71467286  0.56566896  1
  Te  Te170  1  0.56524862  0.73266400  0.95765823  1
  Te  Te171  1  0.89344500  0.08255804  0.23417281  1
  Te  Te172  1  0.92442924  0.09696970  0.58236768  1
  Te  Te173  1  0.91696402  0.11128088  0.90219587  1
  Te  Te174  1  0.91230585  0.42029770  0.26024530  1
  Te  Te175  1  0.90080451  0.42181569  0.58664662  1
  Te  Te176  1  0.92825416  0.40504471  0.93332107  1
  Te  Te177  1  0.92859567  0.76035736  0.25944103  1
  Te  Te178  1  0.91465719  0.74769488  0.58642729  1
  Te  Te179  1  0.90836869  0.71660115  0.89579721  1
