# generated using pymatgen
data_In2Te3
_symmetry_space_group_name_H-M   'P 1'
_cell_length_a   18.85592509
_cell_length_b   18.83572485
_cell_length_c   18.84325122
_cell_angle_alpha   90.09160604
_cell_angle_beta   90.09401937
_cell_angle_gamma   89.88955956
_symmetry_Int_Tables_number   1
_chemical_formula_structural   In2Te3
_chemical_formula_sum   'In72 Te108'
_cell_volume   6692.43366960
_cell_formula_units_Z   36
loop_
 _symmetry_equiv_pos_site_id
 _symmetry_equiv_pos_as_xyz
  1  'x, y, z'
loop_
 _atom_site_type_symbol
 _atom_site_label
 _atom_site_symmetry_multiplicity
 _atom_site_fract_x
 _atom_site_fract_y
 _atom_site_fract_z
 _atom_site_occupancy
  In  In0  1  0.66196469  0.63888313  0.01197682  1
  In  In1  1  0.80375699  0.34680310  0.82961596  1
  In  In2  1  -0.01401574  0.16172233  0.82680690  1
  In  In3  1  0.65962998  0.32393119  0.00895006  1
  In  In4  1  0.32213832  0.16119443  0.18528846  1
  In  In5  1  0.68838890  0.82461180  0.80272063  1
  In  In6  1  0.32345832  0.64528918  0.02972759  1
  In  In7  1  0.82755691  0.83813779  -0.02085099  1
  In  In8  1  0.66423485  -0.02311896  0.35419484  1
  In  In9  1  0.33821897  0.81056623  0.80879565  1
  In  In10  1  0.82500474  0.32991244  0.49995737  1
  In  In11  1  0.49525299  0.47658709  0.64879482  1
  In  In12  1  0.00276454  0.64702666  0.64728483  1
  In  In13  1  0.34058452  0.52046493  0.82590612  1
  In  In14  1  -0.01092161  0.68468747  0.01053731  1
  In  In15  1  0.17896553  0.81809577  0.66647244  1
  In  In16  1  -0.02551437  0.17142049  0.49438102  1
  In  In17  1  0.53124166  0.01654013  0.82852082  1
  In  In18  1  0.79760742  0.00102748  0.17220429  1
  In  In19  1  0.15529402  0.34256477  0.17384466  1
  In  In20  1  0.14684671  0.17729543  0.01347974  1
  In  In21  1  0.13567157  0.83309932  0.00061983  1
  In  In22  1  0.49470701  0.83028668  0.01086502  1
  In  In23  1  0.49298220  0.18186063  0.65259771  1
  In  In24  1  0.66181109  -0.00520500  0.65066870  1
  In  In25  1  0.33013068  0.64651807  0.65491096  1
  In  In26  1  0.18602449  0.18404621  0.30812090  1
  In  In27  1  0.33753748  0.19093258  0.82390004  1
  In  In28  1  0.16923393  0.68249316  0.83112958  1
  In  In29  1  0.17334580  0.47711037  0.00914285  1
  In  In30  1  -0.01746160  0.33928893  0.66353942  1
  In  In31  1  0.66312266  0.18828532  0.16884767  1
  In  In32  1  0.68167995  0.17100705  0.85718707  1
  In  In33  1  0.50010941  0.35304643  0.84129679  1
  In  In34  1  0.83546107  0.18364495  0.32333141  1
  In  In35  1  0.64764050  0.83883766  0.18447767  1
  In  In36  1  0.17646216  -0.03308077  0.86177999  1
  In  In37  1  0.34378867  0.81788479  0.50189159  1
  In  In38  1  0.48454169  0.81432333  0.33586081  1
  In  In39  1  -0.00583154  0.81764126  0.17724114  1
  In  In40  1  0.18284196  0.39466016  0.49792140  1
  In  In41  1  0.16291099  0.80841066  0.33938109  1
  In  In42  1  0.67779660  0.33473412  0.65396205  1
  In  In43  1  0.35828449  0.36393824  0.01181744  1
  In  In44  1  0.50512846  0.18543325  0.35835767  1
  In  In45  1  0.01695079  0.00114804  0.01028238  1
  In  In46  1  0.15270159  0.15498297  0.64558054  1
  In  In47  1  0.83444867  0.00712552  0.49862657  1
  In  In48  1  0.63820713  0.47680321  0.20182279  1
  In  In49  1  0.33815559  -0.00043125  0.00054519  1
  In  In50  1  0.34882195  0.16532276  0.48790563  1
  In  In51  1  0.83996278  0.66755685  0.17016436  1
  In  In52  1  0.50354385  -0.00222516  0.16712045  1
  In  In53  1  0.15898589  0.30188186  0.82240833  1
  In  In54  1  0.50203306  0.46455059  0.03378551  1
  In  In55  1  0.67770075  0.54356880  0.81667275  1
  In  In56  1  0.84120135  0.00425085  0.83085737  1
  In  In57  1  0.82802264  0.49419450  0.00850360  1
  In  In58  1  0.30848366  0.81346749  0.16257641  1
  In  In59  1  0.49108785  0.00312672  0.49737902  1
  In  In60  1  -0.00922250  -0.02565736  0.68093387  1
  In  In61  1  0.68662227  0.67811570  0.37651486  1
  In  In62  1  0.00873209  0.50265886  0.83257076  1
  In  In63  1  0.01355001  0.62276201  0.30737681  1
  In  In64  1  -0.00396775  0.01798476  0.31166606  1
  In  In65  1  0.85171035  0.49082221  0.32280859  1
  In  In66  1  0.00350693  0.81334834  0.48696617  1
  In  In67  1  0.33461922  0.36845724  0.35083694  1
  In  In68  1  -0.00332381  0.49886068  0.48754530  1
  In  In69  1  0.49502719  0.68086453  0.82358636  1
  In  In70  1  0.18536655  0.00240653  0.48725386  1
  In  In71  1  0.67110078  0.51326992  0.51361887  1
  Te  Te72  1  0.09295621  0.07968492  0.10852661  1
  Te  Te73  1  0.08197789  0.09231097  0.41698512  1
  Te  Te74  1  0.09198710  0.07388604  0.76048169  1
  Te  Te75  1  0.05913556  0.40207417  0.07211710  1
  Te  Te76  1  0.08463924  0.42637233  0.38986464  1
  Te  Te77  1  0.09183864  0.41190012  0.74032225  1
  Te  Te78  1  0.09934732  0.73184722  0.10803980  1
  Te  Te79  1  0.08553256  0.70513058  0.41716164  1
  Te  Te80  1  0.06933649  0.75660031  0.74812256  1
  Te  Te81  1  0.41990562  0.09519806  0.08570857  1
  Te  Te82  1  0.40935127  0.06900400  0.38746292  1
  Te  Te83  1  0.42178531  0.08718023  0.74857123  1
  Te  Te84  1  0.39504207  0.44275812  0.13223255  1
  Te  Te85  1  0.45095681  0.46005192  0.38058835  1
  Te  Te86  1  0.39792950  0.40588143  0.74227262  1
  Te  Te87  1  0.42612898  0.73295850  0.10454406  1
  Te  Te88  1  0.41924808  0.71314099  0.42468637  1
  Te  Te89  1  0.43125073  0.75181984  0.70373487  1
  Te  Te90  1  0.73606975  0.09443419  0.07846265  1
  Te  Te91  1  0.74594528  0.09382515  0.41060000  1
  Te  Te92  1  0.74204693  0.08522984  0.74701848  1
  Te  Te93  1  0.74087956  0.41509925  0.10268417  1
  Te  Te94  1  0.74729439  0.42483601  0.41062795  1
  Te  Te95  1  0.75331970  0.44682755  0.72654152  1
  Te  Te96  1  0.74294772  0.75259959  0.08588137  1
  Te  Te97  1  0.74307439  0.78396292  0.46403816  1
  Te  Te98  1  0.73681543  0.71428635  0.71774893  1
  Te  Te99  1  0.06530656  0.24148304  0.24043456  1
  Te  Te100  1  0.07540457  0.26282899  0.56855711  1
  Te  Te101  1  0.05445990  0.25872470  0.92371575  1
  Te  Te102  1  0.11475127  0.56670231  0.21619926  1
  Te  Te103  1  0.10039512  0.56383868  0.57231031  1
  Te  Te104  1  0.09836484  0.59163373  0.93267462  1
  Te  Te105  1  0.08825204  0.91104465  0.25177258  1
  Te  Te106  1  0.09100068  0.91861570  0.57588862  1
  Te  Te107  1  0.04627621  0.90077749  0.89763817  1
  Te  Te108  1  0.40512215  0.25915111  0.26701657  1
  Te  Te109  1  0.42244067  0.27150367  0.55955605  1
  Te  Te110  1  0.42899292  0.25203651  0.92911814  1
  Te  Te111  1  0.39327994  0.57124343  0.28590646  1
  Te  Te112  1  0.41320872  0.56690835  0.55907312  1
  Te  Te113  1  0.43066971  0.58401840  0.93047111  1
  Te  Te114  1  0.40878518  0.90404861  0.23802905  1
  Te  Te115  1  0.41249462  0.91787846  0.58732340  1
  Te  Te116  1  0.41889120  0.91092559  0.90415685  1
  Te  Te117  1  0.74999266  0.27800652  0.24839416  1
  Te  Te118  1  0.75548705  0.23155918  0.58382758  1
  Te  Te119  1  0.77786372  0.25079153  0.94589614  1
  Te  Te120  1  0.74286684  0.58441790  0.25229844  1
  Te  Te121  1  0.75892287  0.61452832  0.58299320  1
  Te  Te122  1  0.77559256  0.60463320  0.91597251  1
  Te  Te123  1  0.76109706  0.89198581  0.27152891  1
  Te  Te124  1  0.75629759  0.90542613  0.57629844  1
  Te  Te125  1  0.73065712  0.92981480  0.90729850  1
  Te  Te126  1  0.25702760  0.26239272  0.07955489  1
  Te  Te127  1  0.23903125  0.25823096  0.43049439  1
  Te  Te128  1  0.25250136  0.25265599  0.71191058  1
  Te  Te129  1  0.23866611  0.55886068  0.11863876  1
  Te  Te130  1  0.28807370  0.60726858  0.38102249  1
  Te  Te131  1  0.22710293  0.57506322  0.74051276  1
  Te  Te132  1  0.23580102  0.92026839  0.07964630  1
  Te  Te133  1  0.26369726  0.90425901  0.40312606  1
  Te  Te134  1  0.25944312  0.92396091  0.74151745  1
  Te  Te135  1  0.55927826  0.27096454  0.10109105  1
  Te  Te136  1  0.61195438  0.27755225  0.39605606  1
  Te  Te137  1  0.58797643  0.25807043  0.75961621  1
  Te  Te138  1  0.56620944  0.58041347  0.11144354  1
  Te  Te139  1  0.57978720  0.58604610  0.42080570  1
  Te  Te140  1  0.56728620  0.58966246  0.72370008  1
  Te  Te141  1  0.59723349  0.92670806  0.07043914  1
  Te  Te142  1  0.57359011  0.88851198  0.43694367  1
  Te  Te143  1  0.57494490  0.90278648  0.73576425  1
  Te  Te144  1  0.94894856  0.30236961  0.13662955  1
  Te  Te145  1  0.92856726  0.27943994  0.39868866  1
  Te  Te146  1  0.89203033  0.25060183  0.74640798  1
  Te  Te147  1  0.92947826  0.57138310  0.09365860  1
  Te  Te148  1  0.90321659  0.59637522  0.41763017  1
  Te  Te149  1  0.91758537  0.57873141  0.74772769  1
  Te  Te150  1  0.91039371  0.91048602  0.08842408  1
  Te  Te151  1  0.92755677  0.92500759  0.41060955  1
  Te  Te152  1  0.88277051  0.89511044  0.74001004  1
  Te  Te153  1  0.24403734  0.05876741  0.25562585  1
  Te  Te154  1  0.27160777  0.07807963  0.58685434  1
  Te  Te155  1  0.24836385  0.09770807  0.91544310  1
  Te  Te156  1  0.21316627  0.43092086  0.28256004  1
  Te  Te157  1  0.29162578  0.46792276  0.56004084  1
  Te  Te158  1  0.25285681  0.40523316  0.90014221  1
  Te  Te159  1  0.26386333  0.71732543  0.27002379  1
  Te  Te160  1  0.23635745  0.72615316  0.56328005  1
  Te  Te161  1  0.26316537  0.75706258  0.93371915  1
  Te  Te162  1  0.58819770  0.07698831  0.26533238  1
  Te  Te163  1  0.58767924  0.09923139  0.56587585  1
  Te  Te164  1  0.57962335  0.10156342  0.93681718  1
  Te  Te165  1  0.56467170  0.38605032  0.29569550  1
  Te  Te166  1  0.57873926  0.39241392  0.55485146  1
  Te  Te167  1  0.60415369  0.44130695  0.91021128  1
  Te  Te168  1  0.58717583  0.72762081  0.26357103  1
  Te  Te169  1  0.65503725  0.72507645  0.57841042  1
  Te  Te170  1  0.59430760  0.74879801  0.91828336  1
  Te  Te171  1  0.90669482  0.09744566  0.21798766  1
  Te  Te172  1  0.91538489  0.08396718  0.60373784  1
  Te  Te173  1  0.91387140  0.08753103  0.93889345  1
  Te  Te174  1  0.93835154  0.42456481  0.22156087  1
  Te  Te175  1  0.89725307  0.43558199  0.58438564  1
  Te  Te176  1  0.91417601  0.41265494  0.91291011  1
  Te  Te177  1  0.91336908  0.74302769  0.27974372  1
  Te  Te178  1  0.91410951  0.74707627  0.58122253  1
  Te  Te179  1  0.91065133  0.74459484  0.90134071  1
