# generated using pymatgen
data_In2Te3
_symmetry_space_group_name_H-M   'P 1'
_cell_length_a   18.98559912
_cell_length_b   18.99231339
_cell_length_c   18.99549833
_cell_angle_alpha   90.33926207
_cell_angle_beta   90.17369213
_cell_angle_gamma   90.03228390
_symmetry_Int_Tables_number   1
_chemical_formula_structural   In2Te3
_chemical_formula_sum   'In72 Te108'
_cell_volume   6849.25259946
_cell_formula_units_Z   36
loop_
 _symmetry_equiv_pos_site_id
 _symmetry_equiv_pos_as_xyz
  1  'x, y, z'
loop_
 _atom_site_type_symbol
 _atom_site_label
 _atom_site_symmetry_multiplicity
 _atom_site_fract_x
 _atom_site_fract_y
 _atom_site_fract_z
 _atom_site_occupancy
  In  In0  1  0.29905592  0.63655662  0.70765289  1
  In  In1  1  0.49792975  0.33336370  0.15526689  1
  In  In2  1  0.17630789  -0.00757012  0.17721166  1
  In  In3  1  0.65978991  0.50856050  0.17313137  1
  In  In4  1  0.67234827  0.67451278  0.35603770  1
  In  In5  1  0.16913737  0.66879972  0.50662822  1
  In  In6  1  0.66170729  0.14561746  0.49417884  1
  In  In7  1  0.48966664  -0.03429983  0.21335344  1
  In  In8  1  0.83189043  0.15743796  -0.00529903  1
  In  In9  1  0.33930408  0.14778697  0.15818937  1
  In  In10  1  0.83931256  0.01192548  0.17797196  1
  In  In11  1  0.51828225  0.67718426  0.18992961  1
  In  In12  1  0.30303545  0.10393037  0.50374507  1
  In  In13  1  0.50697125  0.32849313  0.50107466  1
  In  In14  1  0.16438721  0.51407801  0.00279085  1
  In  In15  1  0.67271009  0.67656254  0.65727883  1
  In  In16  1  0.31098297  0.35334410  0.68514384  1
  In  In17  1  0.30992890  0.01517157  0.00424423  1
  In  In18  1  0.84508257  -0.01435063  0.81068572  1
  In  In19  1  0.49859553  -0.01315382  0.47105287  1
  In  In20  1  0.67387155  0.18007780  0.81407944  1
  In  In21  1  0.00826000  0.34378730  0.67456457  1
  In  In22  1  0.01630674  0.83186933  0.81025860  1
  In  In23  1  0.15043871  0.82943209  -0.00455460  1
  In  In24  1  0.82979192  0.82604185  0.34305566  1
  In  In25  1  0.48622138  0.82404209  0.66097983  1
  In  In26  1  0.34859496  0.49361643  0.51755813  1
  In  In27  1  0.66755415  0.65250966  0.00953569  1
  In  In28  1  0.00957703  0.66788084  0.33464095  1
  In  In29  1  0.50981651  0.16376924  0.65132955  1
  In  In30  1  0.80558263  0.81581598  0.00572195  1
  In  In31  1  0.30573224  0.86332280  0.48714222  1
  In  In32  1  0.00563092  0.84063613  0.16289347  1
  In  In33  1  0.15731348  0.36385670  0.15067704  1
  In  In34  1  0.18267902  0.16169113  0.33002669  1
  In  In35  1  0.83950639  0.49516776  -0.00427567  1
  In  In36  1  0.01063818  -0.00562293  -0.01836543  1
  In  In37  1  0.62846281  0.36494830  0.70807547  1
  In  In38  1  0.48607098  0.48123428  0.68861768  1
  In  In39  1  0.65681436  -0.01461950  0.00842090  1
  In  In40  1  -0.00414307  0.34729251  0.32871648  1
  In  In41  1  0.50779195  0.65753362  0.49382183  1
  In  In42  1  0.50196693  0.65193564  0.85960948  1
  In  In43  1  0.68538911  0.80070571  0.79112473  1
  In  In44  1  0.00318203  0.65708866  -0.00891659  1
  In  In45  1  0.48815955  0.82672264  0.01476963  1
  In  In46  1  0.82227132  -0.03181023  0.52934501  1
  In  In47  1  0.34647213  0.32303095  0.00672475  1
  In  In48  1  0.02704426  0.50310568  0.50711923  1
  In  In49  1  0.32254679  0.31542300  0.33050484  1
  In  In50  1  0.81620950  0.53150050  0.68656466  1
  In  In51  1  0.16820967  0.83532274  0.66266088  1
  In  In52  1  0.85887561  0.33678830  0.85236166  1
  In  In53  1  0.02237647  0.17929036  0.49531370  1
  In  In54  1  0.83186840  0.49526164  0.33297268  1
  In  In55  1  0.83840465  0.31862264  0.49903629  1
  In  In56  1  0.34971768  0.71614482  0.30844507  1
  In  In57  1  0.16354652  0.17869218  -0.02895467  1
  In  In58  1  0.67220553  0.31786902  0.31487458  1
  In  In59  1  0.06160751  0.03098793  0.64612768  1
  In  In60  1  0.66613353  0.00217753  0.33037297  1
  In  In61  1  0.31652820  0.84906760  0.81901114  1
  In  In62  1  0.14526553  0.33693059  0.83436010  1
  In  In63  1  -0.01255023  0.16752627  0.16223508  1
  In  In64  1  0.16616448  0.49601098  0.33812181  1
  In  In65  1  0.83524015  0.17823664  0.65709758  1
  In  In66  1  0.49729468  0.17402331  0.00233527  1
  In  In67  1  0.82599835  0.34141528  0.17439128  1
  In  In68  1  0.32860591  0.64625048  -0.01830261  1
  In  In69  1  0.81782269  0.67350652  0.83611339  1
  In  In70  1  0.48775276  0.01064147  0.81383259  1
  In  In71  1  -0.01273292  0.80087065  0.50458533  1
  Te  Te72  1  0.08868486  0.07980000  0.07995236  1
  Te  Te73  1  0.09701685  0.07959841  0.41563544  1
  Te  Te74  1  0.11558886  0.12974088  0.74323077  1
  Te  Te75  1  0.06002381  0.43720580  0.07291026  1
  Te  Te76  1  0.09907100  0.39522235  0.42848761  1
  Te  Te77  1  0.10234468  0.44443758  0.73787656  1
  Te  Te78  1  0.08902911  0.73472997  0.09442973  1
  Te  Te79  1  0.10294857  0.76163093  0.40827075  1
  Te  Te80  1  0.07951543  0.73231105  0.72168470  1
  Te  Te81  1  0.43423151  0.05360436  0.08620589  1
  Te  Te82  1  0.42893004  0.10721787  0.42830584  1
  Te  Te83  1  0.40620761  0.09465512  0.72917495  1
  Te  Te84  1  0.40716783  0.42648749  0.08902111  1
  Te  Te85  1  0.41477056  0.40855020  0.41183030  1
  Te  Te86  1  0.39596861  0.42099233  0.78725465  1
  Te  Te87  1  0.40941897  0.72617542  0.08850278  1
  Te  Te88  1  0.40802901  0.76087405  0.44129683  1
  Te  Te89  1  0.41541368  0.74216043  0.76887786  1
  Te  Te90  1  0.73915674  0.08470951  0.08904104  1
  Te  Te91  1  0.76744576  0.06766505  0.42260336  1
  Te  Te92  1  0.75054218  0.07813521  0.73342102  1
  Te  Te93  1  0.73741796  0.41842001  0.07916918  1
  Te  Te94  1  0.74534432  0.40582880  0.41671126  1
  Te  Te95  1  0.77660470  0.39605130  0.73825320  1
  Te  Te96  1  0.72937298  0.74481620  0.10576793  1
  Te  Te97  1  0.77192410  0.73946982  0.44881878  1
  Te  Te98  1  0.81947885  0.77487033  0.71285155  1
  Te  Te99  1  0.08917487  0.25631713  0.24751773  1
  Te  Te100  1  0.09753664  0.25583682  0.59619173  1
  Te  Te101  1  0.05588615  0.26472685  0.92656704  1
  Te  Te102  1  0.09300880  0.58408771  0.24886772  1
  Te  Te103  1  0.06993786  0.61099778  0.59939365  1
  Te  Te104  1  0.10641443  0.60489890  0.89689520  1
  Te  Te105  1  0.07160703  0.93023225  0.25898133  1
  Te  Te106  1  0.08439454  0.90431653  0.55878218  1
  Te  Te107  1  0.10719538  0.92710557  0.88739353  1
  Te  Te108  1  0.42150351  0.23803922  0.24634052  1
  Te  Te109  1  0.41228411  0.27058550  0.60118099  1
  Te  Te110  1  0.38774728  0.21473564  0.91631191  1
  Te  Te111  1  0.43042639  0.59764693  0.27582097  1
  Te  Te112  1  0.42109580  0.59476373  0.60972227  1
  Te  Te113  1  0.40673468  0.54772366  0.90127193  1
  Te  Te114  1  0.38939714  0.86202725  0.26246593  1
  Te  Te115  1  0.41025946  0.92579267  0.58039840  1
  Te  Te116  1  0.41235759  0.91862740  0.91868233  1
  Te  Te117  1  0.76797384  0.23053927  0.24817541  1
  Te  Te118  1  0.72773764  0.25262796  0.58063926  1
  Te  Te119  1  0.74613248  0.25940954  0.91999988  1
  Te  Te120  1  0.75466352  0.59575943  0.25201834  1
  Te  Te121  1  0.73828294  0.57631573  0.57184701  1
  Te  Te122  1  0.73436075  0.56772116  0.90425157  1
  Te  Te123  1  0.75191823  0.90948723  0.24349083  1
  Te  Te124  1  0.75395762  0.89155869  0.63241923  1
  Te  Te125  1  0.74668354  0.91296056  0.90226705  1
  Te  Te126  1  0.23838969  0.23958850  0.09689605  1
  Te  Te127  1  0.25494597  0.23884618  0.43943245  1
  Te  Te128  1  0.22133495  0.24477737  0.74101810  1
  Te  Te129  1  0.24912656  0.59449306  0.09278554  1
  Te  Te130  1  0.25912300  0.57934527  0.42527224  1
  Te  Te131  1  0.20831913  0.55292187  0.78595373  1
  Te  Te132  1  0.25356510  0.90029641  0.08291650  1
  Te  Te133  1  0.25528930  0.98496990  0.42076134  1
  Te  Te134  1  0.25655173  0.94065571  0.72099855  1
  Te  Te135  1  0.59297036  0.25327520  0.07664291  1
  Te  Te136  1  0.58044533  0.23655944  0.40583175  1
  Te  Te137  1  0.54999015  0.25259638  0.77185937  1
  Te  Te138  1  0.56115660  0.57332759  0.07880603  1
  Te  Te139  1  0.57512745  0.57111278  0.39787311  1
  Te  Te140  1  0.59191465  0.58876700  0.75212854  1
  Te  Te141  1  0.58343466  0.89941033  0.10731038  1
  Te  Te142  1  0.59296597  0.89495056  0.40256269  1
  Te  Te143  1  0.57656949  0.90432597  0.75317189  1
  Te  Te144  1  0.91162857  0.26131600  0.07308581  1
  Te  Te145  1  0.91743996  0.23955356  0.39839158  1
  Te  Te146  1  0.92986847  0.24178153  0.75572040  1
  Te  Te147  1  0.89072823  0.61031796  0.07059964  1
  Te  Te148  1  0.92588034  0.57650925  0.42087596  1
  Te  Te149  1  0.92117951  0.58582608  0.77461411  1
  Te  Te150  1  0.90708618  0.92349978  0.06607359  1
  Te  Te151  1  0.92018692  0.91417603  0.42654689  1
  Te  Te152  1  0.96025196  0.94297233  0.72481684  1
  Te  Te153  1  0.28288823  0.05825571  0.26444376  1
  Te  Te154  1  0.20884679  0.06775243  0.61610348  1
  Te  Te155  1  0.23965278  0.07944136  0.89422071  1
  Te  Te156  1  0.26160804  0.42291355  0.24356271  1
  Te  Te157  1  0.23678413  0.44152463  0.59465348  1
  Te  Te158  1  0.24159904  0.40235063  0.93249172  1
  Te  Te159  1  0.24774641  0.81191816  0.26770477  1
  Te  Te160  1  0.27066175  0.74485415  0.59328898  1
  Te  Te161  1  0.24366984  0.75060789  0.90567224  1
  Te  Te162  1  0.57308040  0.07945812  0.24746561  1
  Te  Te163  1  0.58799606  0.05272306  0.58429475  1
  Te  Te164  1  0.59512052  0.08034852  0.90696334  1
  Te  Te165  1  0.57502618  0.41744947  0.25727500  1
  Te  Te166  1  0.58113910  0.43397307  0.57995271  1
  Te  Te167  1  0.61362257  0.45448482  0.82591767  1
  Te  Te168  1  0.58036062  0.77067134  0.28962644  1
  Te  Te169  1  0.58973030  0.76446459  0.56795501  1
  Te  Te170  1  0.59116330  0.75994166  0.92169296  1
  Te  Te171  1  0.94616414  0.06823746  0.26117353  1
  Te  Te172  1  0.92066413  0.08795900  0.57272960  1
  Te  Te173  1  0.92362355  0.08493913  0.89778249  1
  Te  Te174  1  0.92880477  0.43955160  0.23102064  1
  Te  Te175  1  0.91683093  0.42107328  0.57872446  1
  Te  Te176  1  0.93536865  0.45811657  0.88855475  1
  Te  Te177  1  0.91761436  0.74944623  0.24532130  1
  Te  Te178  1  0.87796057  0.73260381  0.57483678  1
  Te  Te179  1  0.92263259  0.77032584  0.91245190  1
