# generated using pymatgen
data_In2Te3
_symmetry_space_group_name_H-M   'P 1'
_cell_length_a   18.76052432
_cell_length_b   18.76346903
_cell_length_c   18.76819606
_cell_angle_alpha   90.07497411
_cell_angle_beta   89.91113617
_cell_angle_gamma   90.13037658
_symmetry_Int_Tables_number   1
_chemical_formula_structural   In2Te3
_chemical_formula_sum   'In72 Te108'
_cell_volume   6606.60925713
_cell_formula_units_Z   36
loop_
 _symmetry_equiv_pos_site_id
 _symmetry_equiv_pos_as_xyz
  1  'x, y, z'
loop_
 _atom_site_type_symbol
 _atom_site_label
 _atom_site_symmetry_multiplicity
 _atom_site_fract_x
 _atom_site_fract_y
 _atom_site_fract_z
 _atom_site_occupancy
  In  In0  1  0.80657031  0.86030964  0.32343464  1
  In  In1  1  0.51876647  0.50328865  0.35437197  1
  In  In2  1  0.35340662  0.48223519  0.80812892  1
  In  In3  1  0.66287445  0.67187389  0.34791488  1
  In  In4  1  -0.01800631  0.83616204  0.46836073  1
  In  In5  1  0.65797926  -0.00779743  0.02796941  1
  In  In6  1  0.37037898  0.19032934  0.51588351  1
  In  In7  1  0.17569258  0.17494729  0.68011254  1
  In  In8  1  0.84423254  0.32022695  0.83686888  1
  In  In9  1  -0.02148624  0.34088058  0.67536754  1
  In  In10  1  0.15489338  0.84089337  0.01101281  1
  In  In11  1  0.17859910  0.30782307  0.83547012  1
  In  In12  1  0.32977170  0.69749618  0.35271609  1
  In  In13  1  0.65998620  0.32266681  0.64164500  1
  In  In14  1  -0.01930833  0.01375662  0.65424285  1
  In  In15  1  0.35390136  0.50387863  0.50595530  1
  In  In16  1  0.35357526  -0.00853440  0.65766713  1
  In  In17  1  0.69082950  0.30621801  0.33930390  1
  In  In18  1  0.83015062  0.47238860  0.33487203  1
  In  In19  1  0.51052778  0.29776718  0.14777839  1
  In  In20  1  0.68760318  0.14166960  0.81872938  1
  In  In21  1  0.34486817  0.16216214  0.14592278  1
  In  In22  1  0.34861684  0.14260872  0.82174370  1
  In  In23  1  -0.00985867  0.31722512  0.33340018  1
  In  In24  1  0.31353801  0.32320505  -0.00359939  1
  In  In25  1  0.50527464  0.51069092  -0.00644522  1
  In  In26  1  0.49431776  0.33296934  0.82195872  1
  In  In27  1  -0.00201646  0.49198692  0.85145966  1
  In  In28  1  0.13123381  0.52361334  0.29942019  1
  In  In29  1  0.32768191  0.49158374  0.18135014  1
  In  In30  1  0.33805233  0.84588551  0.85349681  1
  In  In31  1  -0.02913222  0.50312507  0.50771382  1
  In  In32  1  -0.00660045  0.65749775  0.01028786  1
  In  In33  1  0.81913440  0.65105921  0.49755309  1
  In  In34  1  -0.01333823  0.15845818  0.83595746  1
  In  In35  1  0.19592029  0.49811504  0.65702637  1
  In  In36  1  -0.02841919  0.18323093  0.17273611  1
  In  In37  1  0.17306529  0.67308188  0.48996366  1
  In  In38  1  0.81859113  0.49225376  0.65009838  1
  In  In39  1  0.16497976  -0.01918247  0.16891481  1
  In  In40  1  0.13182188  0.47323819  0.03806111  1
  In  In41  1  0.80771083  0.66768385  0.83726184  1
  In  In42  1  0.35425295  0.64355506  0.67165973  1
  In  In43  1  0.67343440  0.68372064  -0.02046673  1
  In  In44  1  0.67703418  0.48169229  0.16145341  1
  In  In45  1  -0.00728249  0.68300441  0.67219644  1
  In  In46  1  0.83497655  0.67460799  0.14443186  1
  In  In47  1  -0.00103906  0.83739728  0.18263577  1
  In  In48  1  0.33008980  0.33844028  0.33392044  1
  In  In49  1  0.17945084  0.83022928  0.67386153  1
  In  In50  1  -0.00665387  0.84420899  0.80207992  1
  In  In51  1  0.81771124  0.01243572  0.18080754  1
  In  In52  1  0.48397167  0.69037691  0.16703882  1
  In  In53  1  0.68130431  0.53718442  0.82842697  1
  In  In54  1  0.52229424  0.68321772  0.82052699  1
  In  In55  1  0.35638012  0.01123039  -0.00721619  1
  In  In56  1  -0.03166362  0.16726127  0.49025101  1
  In  In57  1  0.67723963  0.15173246  0.48485308  1
  In  In58  1  0.34593702  0.67900159  0.02735559  1
  In  In59  1  0.66087550  0.32816509  0.01994848  1
  In  In60  1  0.80986531  0.84484367  -0.02006826  1
  In  In61  1  0.78107932  0.85907833  0.65458594  1
  In  In62  1  0.53763619  0.17276172  0.01793965  1
  In  In63  1  0.17262454  0.82977195  0.31103812  1
  In  In64  1  0.13426131  0.01864915  0.50526943  1
  In  In65  1  0.16250805  0.17890778  0.00552936  1
  In  In66  1  0.16454321  0.32178518  0.48153874  1
  In  In67  1  0.50720398  0.84991852  0.35212906  1
  In  In68  1  -0.01324660  0.00483062  -0.01709603  1
  In  In69  1  0.36132464  0.84555606  0.47360180  1
  In  In70  1  0.52068912  -0.00096559  0.51927632  1
  In  In71  1  0.34541704  -0.00208346  0.32896179  1
  Te  Te72  1  0.07709316  0.07835171  0.08561035  1
  Te  Te73  1  0.07197898  0.10427874  0.40381515  1
  Te  Te74  1  0.08397681  0.07480123  0.75137104  1
  Te  Te75  1  0.04168217  0.38168973  0.11304359  1
  Te  Te76  1  0.07776036  0.43143428  0.42011488  1
  Te  Te77  1  0.09427721  0.41297470  0.74584851  1
  Te  Te78  1  0.09252209  0.74079483  0.10866283  1
  Te  Te79  1  0.07633970  0.73939127  0.39339819  1
  Te  Te80  1  0.09899538  0.73796133  0.76723313  1
  Te  Te81  1  0.46219646  0.06173321  0.11130906  1
  Te  Te82  1  0.42940328  0.08115776  0.42547013  1
  Te  Te83  1  0.44824527  0.07158123  0.73946399  1
  Te  Te84  1  0.41726336  0.41592769  0.07710678  1
  Te  Te85  1  0.43493051  0.39740441  0.42769198  1
  Te  Te86  1  0.43992627  0.41582608  0.70243552  1
  Te  Te87  1  0.45669726  0.78326198  0.05044444  1
  Te  Te88  1  0.45477648  0.72862454  0.43331656  1
  Te  Te89  1  0.41447944  0.76271616  0.74682524  1
  Te  Te90  1  0.76780164  0.08959818  0.06378129  1
  Te  Te91  1  0.78750773  0.06980752  0.41730287  1
  Te  Te92  1  0.77300664  0.05140837  0.74087893  1
  Te  Te93  1  0.77102953  0.38165052  0.10645534  1
  Te  Te94  1  0.72201999  0.42533978  0.42507852  1
  Te  Te95  1  0.74427377  0.40818978  0.75533520  1
  Te  Te96  1  0.73278028  0.77341149  0.09150333  1
  Te  Te97  1  0.74470081  0.76802973  0.43289561  1
  Te  Te98  1  0.71967887  0.74931518  0.74552761  1
  Te  Te99  1  0.08464687  0.23005625  0.25908118  1
  Te  Te100  1  0.07656907  0.24805590  0.58642352  1
  Te  Te101  1  0.06322246  0.26167618  0.92256143  1
  Te  Te102  1  0.06123357  0.60571581  0.20126470  1
  Te  Te103  1  0.08110611  0.58686289  0.58688566  1
  Te  Te104  1  0.09531873  0.58031960  0.92810082  1
  Te  Te105  1  0.06511357  0.93655840  0.27705808  1
  Te  Te106  1  0.07013718  0.89874578  0.58749788  1
  Te  Te107  1  0.08405170  0.91999574  0.90170081  1
  Te  Te108  1  0.42131462  0.23659006  0.26090093  1
  Te  Te109  1  0.45361863  0.27173582  0.60637992  1
  Te  Te110  1  0.42302891  0.23805553  0.93208147  1
  Te  Te111  1  0.42150957  0.58199797  0.26183178  1
  Te  Te112  1  0.44811469  0.60244824  0.56557232  1
  Te  Te113  1  0.41228143  0.59437009  0.90905017  1
  Te  Te114  1  0.41599470  0.89930375  0.24550678  1
  Te  Te115  1  0.44485848  0.88697013  0.59419120  1
  Te  Te116  1  0.44337274  0.94358922  0.89296282  1
  Te  Te117  1  0.76819247  0.23291518  0.23717782  1
  Te  Te118  1  0.76030029  0.23558712  0.57963538  1
  Te  Te119  1  0.74335572  0.24280048  0.92305266  1
  Te  Te120  1  0.74947364  0.58550080  0.25028179  1
  Te  Te121  1  0.72597438  0.59533613  0.60050410  1
  Te  Te122  1  0.77061372  0.56830863  0.94965627  1
  Te  Te123  1  0.70645669  0.93817722  0.24573611  1
  Te  Te124  1  0.68682379  0.94390319  0.57045125  1
  Te  Te125  1  0.71423508  0.92574481  0.90372708  1
  Te  Te126  1  0.23384382  0.26427079  0.11107758  1
  Te  Te127  1  0.26037545  0.22535740  0.41283475  1
  Te  Te128  1  0.28785488  0.25971343  0.74183795  1
  Te  Te129  1  0.24793833  0.57229200  0.08136709  1
  Te  Te130  1  0.25061967  0.56873189  0.40754998  1
  Te  Te131  1  0.24667223  0.59090916  0.76525743  1
  Te  Te132  1  0.27040896  0.91587396  0.07896406  1
  Te  Te133  1  0.23491758  0.91868041  0.42609329  1
  Te  Te134  1  0.25202752  0.93319123  0.75758979  1
  Te  Te135  1  0.64209628  0.20613062  0.14863671  1
  Te  Te136  1  0.58090528  0.23738184  0.40971722  1
  Te  Te137  1  0.58773093  0.23728402  0.74893730  1
  Te  Te138  1  0.58698030  0.59568754  0.08935823  1
  Te  Te139  1  0.61770204  0.56750179  0.44652325  1
  Te  Te140  1  0.57309921  0.57329084  0.73547518  1
  Te  Te141  1  0.54826133  0.90858877  0.08412491  1
  Te  Te142  1  0.61145226  0.93737728  0.41462532  1
  Te  Te143  1  0.62913571  0.90126408  0.70856438  1
  Te  Te144  1  0.93273395  0.27829425  0.06716232  1
  Te  Te145  1  0.87881446  0.25618511  0.41051322  1
  Te  Te146  1  0.89747644  0.22359315  0.72908600  1
  Te  Te147  1  0.93117860  0.56321844  0.11041045  1
  Te  Te148  1  0.91763479  0.59024082  0.39699279  1
  Te  Te149  1  0.91348295  0.57622244  0.74858334  1
  Te  Te150  1  0.91182807  0.91075972  0.08165235  1
  Te  Te151  1  0.88606936  0.94455929  0.42643709  1
  Te  Te152  1  0.88428418  0.94099685  0.75953669  1
  Te  Te153  1  0.25289515  0.08268264  0.24256985  1
  Te  Te154  1  0.25470867  0.08386224  0.58006654  1
  Te  Te155  1  0.24329352  0.08312100  0.91682315  1
  Te  Te156  1  0.22098764  0.40784114  0.25173910  1
  Te  Te157  1  0.26486895  0.39333557  0.57326343  1
  Te  Te158  1  0.24390577  0.42753514  0.91287025  1
  Te  Te159  1  0.27072690  0.75339600  0.23016695  1
  Te  Te160  1  0.26916358  0.75093003  0.57785895  1
  Te  Te161  1  0.24800274  0.74887674  0.93070195  1
  Te  Te162  1  0.54441172  0.11720091  0.22823551  1
  Te  Te163  1  0.60089577  0.09306241  0.60349463  1
  Te  Te164  1  0.58266647  0.07530666  0.90990982  1
  Te  Te165  1  0.57052355  0.40892633  0.24315921  1
  Te  Te166  1  0.54811277  0.40178636  0.58511294  1
  Te  Te167  1  0.59246096  0.41631243  0.91112862  1
  Te  Te168  1  0.58908069  0.76268017  0.25127049  1
  Te  Te169  1  0.62653140  0.78111951  0.61833373  1
  Te  Te170  1  0.58950630  0.78265925  0.90794268  1
  Te  Te171  1  0.89887728  0.09718527  0.27316202  1
  Te  Te172  1  0.87637412  0.06624619  0.55956288  1
  Te  Te173  1  0.88503629  0.09499019  0.92618477  1
  Te  Te174  1  0.93432695  0.42125427  0.23956191  1
  Te  Te175  1  0.88742633  0.38823908  0.56135798  1
  Te  Te176  1  0.90324896  0.41651301  0.93453024  1
  Te  Te177  1  0.89815692  0.75371747  0.25993500  1
  Te  Te178  1  0.90107567  0.76376416  0.58426945  1
  Te  Te179  1  0.92234833  0.75238863  0.91145996  1
