# generated using pymatgen
data_In2Te3
_symmetry_space_group_name_H-M   'P 1'
_cell_length_a   18.77744451
_cell_length_b   18.77334540
_cell_length_c   18.78090324
_cell_angle_alpha   89.97800672
_cell_angle_beta   90.04905296
_cell_angle_gamma   90.01635979
_symmetry_Int_Tables_number   1
_chemical_formula_structural   In2Te3
_chemical_formula_sum   'In72 Te108'
_cell_volume   6620.55540334
_cell_formula_units_Z   36
loop_
 _symmetry_equiv_pos_site_id
 _symmetry_equiv_pos_as_xyz
  1  'x, y, z'
loop_
 _atom_site_type_symbol
 _atom_site_label
 _atom_site_symmetry_multiplicity
 _atom_site_fract_x
 _atom_site_fract_y
 _atom_site_fract_z
 _atom_site_occupancy
  In  In0  1  -0.00145550  0.89370896  0.48177925  1
  In  In1  1  0.00709781  0.81816302  0.83336054  1
  In  In2  1  0.00063779  0.68003831  0.32473715  1
  In  In3  1  0.32364665  0.34560013  -0.00383824  1
  In  In4  1  0.02505059  0.03504440  0.67059827  1
  In  In5  1  0.01221583  0.66993070  0.00639741  1
  In  In6  1  0.50092044  0.33583017  0.48024170  1
  In  In7  1  0.68315836  0.01269390  0.35353166  1
  In  In8  1  0.84074702  0.47429759  0.32763536  1
  In  In9  1  0.48971204  0.18758053  0.01110184  1
  In  In10  1  0.84017487  0.31237188  0.83035769  1
  In  In11  1  0.33613121  0.49158049  0.48164709  1
  In  In12  1  0.15623706  0.66360569  0.83145583  1
  In  In13  1  0.16674650  0.31295896  0.46809288  1
  In  In14  1  0.50352037  0.64723750  0.18559171  1
  In  In15  1  0.17346522  0.32240440  0.83786287  1
  In  In16  1  -0.00804198  0.30603616  0.66709153  1
  In  In17  1  0.82782661  0.30127681  0.49348059  1
  In  In18  1  0.64747424  -0.00469256  0.64848556  1
  In  In19  1  0.31707726  0.17133222  0.84802660  1
  In  In20  1  0.15313659  0.83316364  -0.01073530  1
  In  In21  1  0.49097393  0.66056933  0.49539695  1
  In  In22  1  0.01747734  0.67211769  0.67559480  1
  In  In23  1  0.51654844  0.16835257  0.65204533  1
  In  In24  1  0.32746805  0.66858868  0.64516171  1
  In  In25  1  0.49307622  -0.00085368  0.81684363  1
  In  In26  1  0.83491305  0.32240195  0.17515195  1
  In  In27  1  0.83158889  0.53308610  0.66464004  1
  In  In28  1  0.84245260  0.68623776  0.16196847  1
  In  In29  1  0.32993859  0.01576536  0.33962921  1
  In  In30  1  0.16071251  0.68287981  0.15765864  1
  In  In31  1  0.17839344  0.50248706  0.34378062  1
  In  In32  1  0.32552070  0.02683109  -0.02051122  1
  In  In33  1  -0.00161940  0.15096189  0.47227835  1
  In  In34  1  0.16681811  0.83763607  0.32929012  1
  In  In35  1  0.32440755  0.51949983  0.17699188  1
  In  In36  1  0.66191460  0.32107243  0.32280936  1
  In  In37  1  0.49628559  0.84359428  0.66637198  1
  In  In38  1  0.67007918  0.64475823  0.67972680  1
  In  In39  1  0.01283831  0.32436712  0.00545614  1
  In  In40  1  0.49929217  0.66488589  0.83773342  1
  In  In41  1  0.66492939  0.17107031  0.82032716  1
  In  In42  1  0.00980273  0.49377389  0.50870650  1
  In  In43  1  0.66783884  0.32940689  0.63949824  1
  In  In44  1  0.51650284  0.49993057  0.00128942  1
  In  In45  1  0.81640899  0.67436232  0.50397184  1
  In  In46  1  0.68019129  0.83258652  0.17667600  1
  In  In47  1  0.89738404  -0.00339583  0.18237708  1
  In  In48  1  0.14247197  0.30494214  0.18854488  1
  In  In49  1  0.66014662  0.66842722  0.35141278  1
  In  In50  1  0.31946321  0.15594712  0.50464457  1
  In  In51  1  0.83778770  0.50730425  0.00601512  1
  In  In52  1  0.83147079  0.00060176  0.83944987  1
  In  In53  1  0.68046834  -0.00267840  -0.00754610  1
  In  In54  1  0.85502281  0.67041147  0.82775315  1
  In  In55  1  0.67244867  0.83771976  0.48792470  1
  In  In56  1  0.33905705  0.84075250  0.49970688  1
  In  In57  1  0.30208816  -0.01383221  0.66275580  1
  In  In58  1  0.82689609  0.84148936  0.65725124  1
  In  In59  1  0.66259900  0.49260214  0.83967658  1
  In  In60  1  0.49590551  0.83802123  -0.01785226  1
  In  In61  1  0.14926723  0.02004335  0.18956916  1
  In  In62  1  0.34807155  0.65489608  -0.00135067  1
  In  In63  1  0.65905854  0.49970371  0.16555274  1
  In  In64  1  0.15994996  0.49356888  0.66682801  1
  In  In65  1  0.34576271  0.35518966  0.69714344  1
  In  In66  1  0.31331304  0.84148316  0.17309521  1
  In  In67  1  0.47113147  0.30627922  0.20048422  1
  In  In68  1  0.15959299  0.15778742  -0.00292582  1
  In  In69  1  0.85303229  0.16209686  -0.01911903  1
  In  In70  1  0.49460393  0.01119960  0.18751974  1
  In  In71  1  0.67006184  0.16114728  0.16661163  1
  Te  Te72  1  0.06663233  0.08081720  0.08224049  1
  Te  Te73  1  0.08932483  0.08068024  0.37231764  1
  Te  Te74  1  0.10284810  0.10837648  0.77263280  1
  Te  Te75  1  0.09891363  0.40841956  0.09141470  1
  Te  Te76  1  0.06906143  0.40752576  0.39849244  1
  Te  Te77  1  0.07195383  0.40439767  0.75303786  1
  Te  Te78  1  0.05971959  0.78815989  0.10777477  1
  Te  Te79  1  0.07195770  0.76640726  0.42782687  1
  Te  Te80  1  0.11450702  0.77506598  0.73346202  1
  Te  Te81  1  0.40417900  0.09299929  0.09357263  1
  Te  Te82  1  0.42592565  0.08247508  0.43186936  1
  Te  Te83  1  0.40640773  0.09782453  0.74072442  1
  Te  Te84  1  0.41875336  0.42076394  0.09632398  1
  Te  Te85  1  0.40449124  0.40077181  0.38704786  1
  Te  Te86  1  0.42236447  0.44542836  0.78257251  1
  Te  Te87  1  0.41771294  0.75321104  0.09352745  1
  Te  Te88  1  0.41883791  0.75525930  0.40927234  1
  Te  Te89  1  0.40907053  0.75088094  0.74879434  1
  Te  Te90  1  0.77114310  0.07946899  0.08448403  1
  Te  Te91  1  0.79880335  0.07778717  0.42298607  1
  Te  Te92  1  0.74640875  0.07643217  0.73653841  1
  Te  Te93  1  0.74857136  0.40846036  0.08163637  1
  Te  Te94  1  0.74218291  0.40837749  0.42168684  1
  Te  Te95  1  0.76087600  0.41864674  0.74542829  1
  Te  Te96  1  0.74561976  0.75356217  0.07211770  1
  Te  Te97  1  0.77136579  0.76835649  0.39355456  1
  Te  Te98  1  0.74903409  0.75228632  0.75352117  1
  Te  Te99  1  0.06961021  0.20877698  0.28141498  1
  Te  Te100  1  0.08775037  0.23601159  0.57181336  1
  Te  Te101  1  0.06631830  0.22812140  0.89561211  1
  Te  Te102  1  0.08651968  0.58210485  0.24714455  1
  Te  Te103  1  0.10163604  0.59813178  0.57044310  1
  Te  Te104  1  0.08025981  0.57260668  0.91950812  1
  Te  Te105  1  0.06312267  0.92133002  0.26178994  1
  Te  Te106  1  0.09569822  0.93303613  0.58625355  1
  Te  Te107  1  0.06147423  0.92808051  0.91907143  1
  Te  Te108  1  0.38607608  0.21461760  0.28010444  1
  Te  Te109  1  0.40781440  0.26100116  0.58905564  1
  Te  Te110  1  0.42051649  0.26992707  0.90355168  1
  Te  Te111  1  0.41038879  0.58319680  0.27935774  1
  Te  Te112  1  0.42026950  0.56173240  0.58863721  1
  Te  Te113  1  0.40651238  0.54881168  0.90297744  1
  Te  Te114  1  0.41457966  0.90799691  0.26573867  1
  Te  Te115  1  0.42387545  0.94321452  0.57967383  1
  Te  Te116  1  0.39201630  0.91139831  0.89548879  1
  Te  Te117  1  0.76734804  0.22257301  0.26827390  1
  Te  Te118  1  0.74822351  0.21849026  0.58573381  1
  Te  Te119  1  0.73881952  0.24965890  0.92873486  1
  Te  Te120  1  0.75309326  0.58498038  0.25259141  1
  Te  Te121  1  0.72449504  0.56636355  0.56028260  1
  Te  Te122  1  0.75237670  0.59278307  0.91289576  1
  Te  Te123  1  0.75919376  0.94643923  0.23693873  1
  Te  Te124  1  0.76374736  0.93837312  0.56174620  1
  Te  Te125  1  0.75977751  0.89811936  0.91942049  1
  Te  Te126  1  0.24560009  0.24768926  0.08359338  1
  Te  Te127  1  0.27313593  0.24447092  0.38742740  1
  Te  Te128  1  0.24625375  0.24323256  0.73035054  1
  Te  Te129  1  0.23400520  0.58155395  0.06991641  1
  Te  Te130  1  0.24604813  0.59875496  0.43258774  1
  Te  Te131  1  0.25432642  0.57997758  0.74864617  1
  Te  Te132  1  0.24113804  0.93271640  0.07563262  1
  Te  Te133  1  0.23733935  0.93148724  0.42601414  1
  Te  Te134  1  0.26895471  0.91508169  0.78546136  1
  Te  Te135  1  0.58294390  0.26755477  0.10042058  1
  Te  Te136  1  0.59597153  0.23566822  0.42458934  1
  Te  Te137  1  0.57437426  0.27020975  0.75062684  1
  Te  Te138  1  0.59877558  0.60676928  0.07318867  1
  Te  Te139  1  0.57363014  0.56767080  0.41388153  1
  Te  Te140  1  0.56185472  0.55881425  0.74341596  1
  Te  Te141  1  0.57237780  0.92629509  0.08430004  1
  Te  Te142  1  0.58061079  0.91854685  0.40761288  1
  Te  Te143  1  0.59916342  0.90494024  0.76355753  1
  Te  Te144  1  0.92920726  0.23178339  0.09457177  1
  Te  Te145  1  0.93587414  0.26666395  0.39920819  1
  Te  Te146  1  0.91057752  0.21246644  0.74815606  1
  Te  Te147  1  0.93292598  0.57826598  0.10162110  1
  Te  Te148  1  0.91476602  0.58252869  0.42148494  1
  Te  Te149  1  0.94533611  0.56794078  0.76126431  1
  Te  Te150  1  0.93199518  0.88167032  0.09943854  1
  Te  Te151  1  0.88848759  0.95835046  0.40431356  1
  Te  Te152  1  0.92742547  0.91827621  0.74232253  1
  Te  Te153  1  0.26465794  0.10383324  0.23599021  1
  Te  Te154  1  0.21755825  0.07211111  0.57557135  1
  Te  Te155  1  0.21307282  0.05425592  0.87128645  1
  Te  Te156  1  0.24751006  0.40731655  0.24658964  1
  Te  Te157  1  0.24167816  0.40220622  0.57585333  1
  Te  Te158  1  0.23329648  0.43140201  0.91717202  1
  Te  Te159  1  0.25805281  0.73193286  0.26422018  1
  Te  Te160  1  0.23933118  0.76837878  0.58292949  1
  Te  Te161  1  0.25519265  0.74563766  0.91709095  1
  Te  Te162  1  0.57862240  0.10249229  0.27336700  1
  Te  Te163  1  0.58559070  0.08709267  0.54921624  1
  Te  Te164  1  0.56986357  0.08838366  0.92364398  1
  Te  Te165  1  0.56681399  0.41941164  0.25515497  1
  Te  Te166  1  0.56977893  0.42139934  0.58143788  1
  Te  Te167  1  0.59488073  0.39739214  0.92956116  1
  Te  Te168  1  0.57699458  0.76018514  0.26074462  1
  Te  Te169  1  0.59137802  0.74886930  0.58934014  1
  Te  Te170  1  0.59187831  0.75218600  0.91171963  1
  Te  Te171  1  0.95674292  0.09191266  0.28231445  1
  Te  Te172  1  0.91866808  0.08644695  0.57991778  1
  Te  Te173  1  0.93965188  0.05174917  0.92930291  1
  Te  Te174  1  0.93583145  0.41465138  0.23311240  1
  Te  Te175  1  0.90568495  0.41533675  0.58831813  1
  Te  Te176  1  0.91799724  0.41011839  0.91911194  1
  Te  Te177  1  0.91246754  0.77845078  0.25578030  1
  Te  Te178  1  0.92468634  0.75164076  0.58050433  1
  Te  Te179  1  0.91021750  0.76019977  0.93711989  1
