# generated using pymatgen
data_In2Te3
_symmetry_space_group_name_H-M   'P 1'
_cell_length_a   19.00594203
_cell_length_b   18.98267089
_cell_length_c   18.99690582
_cell_angle_alpha   90.01204346
_cell_angle_beta   89.81135041
_cell_angle_gamma   90.16549289
_symmetry_Int_Tables_number   1
_chemical_formula_structural   In2Te3
_chemical_formula_sum   'In72 Te108'
_cell_volume   6853.70509903
_cell_formula_units_Z   36
loop_
 _symmetry_equiv_pos_site_id
 _symmetry_equiv_pos_as_xyz
  1  'x, y, z'
loop_
 _atom_site_type_symbol
 _atom_site_label
 _atom_site_symmetry_multiplicity
 _atom_site_fract_x
 _atom_site_fract_y
 _atom_site_fract_z
 _atom_site_occupancy
  In  In0  1  0.80609617  0.32531583  0.17643057  1
  In  In1  1  0.51373245  -0.03300657  0.84145171  1
  In  In2  1  0.84574506  0.50374497  0.02355396  1
  In  In3  1  0.34917692  0.69311908  0.34339763  1
  In  In4  1  0.51853211  -0.03859666  0.14282102  1
  In  In5  1  0.36620756  0.16125630  0.49610015  1
  In  In6  1  0.84056437  0.66477042  0.81801284  1
  In  In7  1  0.34221545  0.51525129  0.84014853  1
  In  In8  1  0.66267560  0.48093761  0.83880604  1
  In  In9  1  0.14673971  0.01706334  0.15236332  1
  In  In10  1  0.00780972  0.32193197  0.02405503  1
  In  In11  1  0.38962517  -0.02475994  0.65090213  1
  In  In12  1  0.49056434  0.52530217  0.34623396  1
  In  In13  1  0.16097074  0.66173546  0.14268954  1
  In  In14  1  0.50945576  0.16040436  0.00022310  1
  In  In15  1  -0.02480647  0.12047869  0.46759971  1
  In  In16  1  0.90692115  0.06718062  0.03412546  1
  In  In17  1  0.17071211  0.66849436  0.85193509  1
  In  In18  1  0.18647945  -0.01077028  0.83533115  1
  In  In19  1  0.00455713  0.82265720  0.83826154  1
  In  In20  1  0.51919509  0.70542859  0.17805191  1
  In  In21  1  0.85292713  0.30203928  0.50099803  1
  In  In22  1  0.51789044  0.17174359  0.66391833  1
  In  In23  1  0.02094280  0.67010959  0.69358331  1
  In  In24  1  -0.02418710  0.17599675  0.85812973  1
  In  In25  1  0.00588116  0.50222514  0.48245684  1
  In  In26  1  0.82900162  0.33248659  0.84071991  1
  In  In27  1  0.65055510  0.15305957  0.82747437  1
  In  In28  1  0.29494041  0.32548268  0.02798111  1
  In  In29  1  0.64229564  0.31910753  -0.01151610  1
  In  In30  1  0.32303542  0.16419433  0.81910345  1
  In  In31  1  0.67798708  0.35273459  0.64035064  1
  In  In32  1  0.48689186  0.13493485  0.31363228  1
  In  In33  1  0.65980768  0.52361802  0.17949159  1
  In  In34  1  0.79860902  0.16091362  0.67428647  1
  In  In35  1  0.81811379  0.83679978  0.00992370  1
  In  In36  1  0.63700860  -0.00957549  0.64626011  1
  In  In37  1  0.50738510  0.33435607  0.49378190  1
  In  In38  1  0.14928377  0.82039431  -0.00003021  1
  In  In39  1  0.66701814  0.67681838  0.00501708  1
  In  In40  1  0.65287638  0.67056635  0.65839238  1
  In  In41  1  -0.01617555  0.01152186  0.68738154  1
  In  In42  1  0.32699276  0.81647787  0.15505045  1
  In  In43  1  0.35340533  -0.00172557  -0.01112114  1
  In  In44  1  0.00925948  0.34489577  0.65006645  1
  In  In45  1  0.49181154  0.67872886  0.82094138  1
  In  In46  1  0.17256556  0.17646685  0.66273418  1
  In  In47  1  0.66316359  0.84351988  0.48156181  1
  In  In48  1  0.47507696  0.34949255  0.82631643  1
  In  In49  1  -0.00329874  0.51245950  0.16375835  1
  In  In50  1  0.30107202  0.33439981  0.32428097  1
  In  In51  1  0.48241122  0.31644130  0.13968433  1
  In  In52  1  0.17816670  0.51649957  -0.00983202  1
  In  In53  1  0.82863579  -0.03337070  0.18991029  1
  In  In54  1  0.83954118  0.49621697  0.34130809  1
  In  In55  1  0.19306802  0.01084252  0.49347636  1
  In  In56  1  0.15466625  0.33869068  0.50889222  1
  In  In57  1  0.35493778  0.52911508  0.52697557  1
  In  In58  1  0.16990812  0.48781727  0.68551479  1
  In  In59  1  0.21727892  0.85940488  0.64819841  1
  In  In60  1  0.82221925  0.82567083  0.64429007  1
  In  In61  1  0.15391574  0.16149795  0.32129471  1
  In  In62  1  0.17212655  0.49606113  0.33473965  1
  In  In63  1  -0.02112785  0.70657669  0.32176927  1
  In  In64  1  0.17433807  0.69290959  0.51109053  1
  In  In65  1  0.69600658  0.12317635  0.19579878  1
  In  In66  1  0.64996492  0.32659236  0.31884061  1
  In  In67  1  0.66236827  0.53047021  0.48901441  1
  In  In68  1  -0.00437116  0.17574426  0.18002526  1
  In  In69  1  -0.00369553  0.86021818  0.50688319  1
  In  In70  1  0.67908164  0.68519199  0.33525426  1
  In  In71  1  0.27795217  -0.03464904  0.30633799  1
  Te  Te72  1  0.05710335  0.09845226  0.06458369  1
  Te  Te73  1  0.08385342  0.04625842  0.39391739  1
  Te  Te74  1  0.09347761  0.08919031  0.76040804  1
  Te  Te75  1  0.09474344  0.42929524  0.08636638  1
  Te  Te76  1  0.07322802  0.39775883  0.39657996  1
  Te  Te77  1  0.07448581  0.40877083  0.76243860  1
  Te  Te78  1  0.06525112  0.76411668  0.10548395  1
  Te  Te79  1  0.08210549  0.76836797  0.41948930  1
  Te  Te80  1  0.11320887  0.78268397  0.73693859  1
  Te  Te81  1  0.42731468  0.07815265  0.09532589  1
  Te  Te82  1  0.38533584  0.05750643  0.39235456  1
  Te  Te83  1  0.44203180  0.08531408  0.76352057  1
  Te  Te84  1  0.39907921  0.41637917  0.07717789  1
  Te  Te85  1  0.40587875  0.41841209  0.41590779  1
  Te  Te86  1  0.41651254  0.44410785  0.73422681  1
  Te  Te87  1  0.44105009  0.77172640  0.07099236  1
  Te  Te88  1  0.39607973  0.80529353  0.42518191  1
  Te  Te89  1  0.40810410  0.73265644  0.71086153  1
  Te  Te90  1  0.75894070  0.05496236  0.08098495  1
  Te  Te91  1  0.80274663  0.01572436  0.34779998  1
  Te  Te92  1  0.73248393  0.05073171  0.75352697  1
  Te  Te93  1  0.72597645  0.41513778  0.08209962  1
  Te  Te94  1  0.73181266  0.41499968  0.41223809  1
  Te  Te95  1  0.76521553  0.42638999  0.73997345  1
  Te  Te96  1  0.72911458  0.76390395  0.10980790  1
  Te  Te97  1  0.75428865  0.72843274  0.45569299  1
  Te  Te98  1  0.74216040  0.75591380  0.75190046  1
  Te  Te99  1  0.10741719  0.26683735  0.22421249  1
  Te  Te100  1  0.06523593  0.22304705  0.56676090  1
  Te  Te101  1  0.08296336  0.24957835  0.92132108  1
  Te  Te102  1  0.07233186  0.59136344  0.27111827  1
  Te  Te103  1  0.09455312  0.57890873  0.57822372  1
  Te  Te104  1  0.07142744  0.59232346  0.92479447  1
  Te  Te105  1  0.14244981  0.92074326  0.26198908  1
  Te  Te106  1  0.09313928  0.94419351  0.59645724  1
  Te  Te107  1  0.07591289  0.92867795  0.91869773  1
  Te  Te108  1  0.40820629  0.25158195  0.25414927  1
  Te  Te109  1  0.41891933  0.26346230  0.59580716  1
  Te  Te110  1  0.41490609  0.24355628  0.91969803  1
  Te  Te111  1  0.41804514  0.60458061  0.24183353  1
  Te  Te112  1  0.43018117  0.63593653  0.59104742  1
  Te  Te113  1  0.41014329  0.61355604  0.92526745  1
  Te  Te114  1  0.40691219  0.91478655  0.23668468  1
  Te  Te115  1  0.45131488  0.89550002  0.54175397  1
  Te  Te116  1  0.43915085  0.88717558  0.94177053  1
  Te  Te117  1  0.76037338  0.22815735  0.28432547  1
  Te  Te118  1  0.73059837  0.23492938  0.55950550  1
  Te  Te119  1  0.74450225  0.23310489  0.91854967  1
  Te  Te120  1  0.77046961  0.59546006  0.24917953  1
  Te  Te121  1  0.75665942  0.60331678  0.57581001  1
  Te  Te122  1  0.75244034  0.57358688  0.91982991  1
  Te  Te123  1  0.73763635  0.89163865  0.28629925  1
  Te  Te124  1  0.75470058  0.93428241  0.56580562  1
  Te  Te125  1  0.69512097  0.87908435  0.93743012  1
  Te  Te126  1  0.22271273  0.24036716  0.12150031  1
  Te  Te127  1  0.24275554  0.23351627  0.43166022  1
  Te  Te128  1  0.25166794  0.26689195  0.74477611  1
  Te  Te129  1  0.26870638  0.61114269  0.05843725  1
  Te  Te130  1  0.25654125  0.58854269  0.42482396  1
  Te  Te131  1  0.25186032  0.59683339  0.74690506  1
  Te  Te132  1  0.24804679  0.92405652  0.07289118  1
  Te  Te133  1  0.26278761  0.89126928  0.43863111  1
  Te  Te134  1  0.29811213  0.91782445  0.76222616  1
  Te  Te135  1  0.60250307  0.22608014  0.11018280  1
  Te  Te136  1  0.56935305  0.22999815  0.40344501  1
  Te  Te137  1  0.59750851  0.27525803  0.75183951  1
  Te  Te138  1  0.56914241  0.59002802  0.08204111  1
  Te  Te139  1  0.56488496  0.62660587  0.42556368  1
  Te  Te140  1  0.58225745  0.57196313  0.75200880  1
  Te  Te141  1  0.63154876  0.88466091  0.08064651  1
  Te  Te142  1  0.56746730  0.95606641  0.45567233  1
  Te  Te143  1  0.56903947  0.88733892  0.72896172  1
  Te  Te144  1  0.88922797  0.24151114  0.08346713  1
  Te  Te145  1  0.93179318  0.24027996  0.39594443  1
  Te  Te146  1  0.90812693  0.24920122  0.73289058  1
  Te  Te147  1  0.90819888  0.60992014  0.10051813  1
  Te  Te148  1  0.91541434  0.60312517  0.41748314  1
  Te  Te149  1  0.93053678  0.57156559  0.75091032  1
  Te  Te150  1  0.92432229  0.92111756  0.07639199  1
  Te  Te151  1  0.90284416  0.90677676  0.40144047  1
  Te  Te152  1  0.90693559  0.89911535  0.75160084  1
  Te  Te153  1  0.25154387  0.10531587  0.22089864  1
  Te  Te154  1  0.28122898  0.07979797  0.60251766  1
  Te  Te155  1  0.24858260  0.09174148  0.92907421  1
  Te  Te156  1  0.26492631  0.44330712  0.23533040  1
  Te  Te157  1  0.25691287  0.42033589  0.58039179  1
  Te  Te158  1  0.25215715  0.41070372  0.91142453  1
  Te  Te159  1  0.23918057  0.73935768  0.25199754  1
  Te  Te160  1  0.29084963  0.73954737  0.59510551  1
  Te  Te161  1  0.25676767  0.76433575  0.91908575  1
  Te  Te162  1  0.58823182  0.03768675  0.25777095  1
  Te  Te163  1  0.56616005  0.08420507  0.55338677  1
  Te  Te164  1  0.59662988  0.05875034  0.93336297  1
  Te  Te165  1  0.56169793  0.42602747  0.24656173  1
  Te  Te166  1  0.57411206  0.44191723  0.57712800  1
  Te  Te167  1  0.55489791  0.42646432  0.93182538  1
  Te  Te168  1  0.58555168  0.78630306  0.28178215  1
  Te  Te169  1  0.57969063  0.78392253  0.59493787  1
  Te  Te170  1  0.59781469  0.75508136  0.89949115  1
  Te  Te171  1  0.92517473  0.06761373  0.25479201  1
  Te  Te172  1  0.89253792  0.07477746  0.58429761  1
  Te  Te173  1  0.88921756  0.06414528  0.88900979  1
  Te  Te174  1  0.91312966  0.40866277  0.24238551  1
  Te  Te175  1  0.90738112  0.42400063  0.56989122  1
  Te  Te176  1  0.92085952  0.41085909  0.93135929  1
  Te  Te177  1  0.87516293  0.80683567  0.28306002  1
  Te  Te178  1  0.93896473  0.74612265  0.58979368  1
  Te  Te179  1  0.90967917  0.74448256  0.92615642  1
