# generated using pymatgen
data_In2Te3
_symmetry_space_group_name_H-M   'P 1'
_cell_length_a   18.81155980
_cell_length_b   18.80573688
_cell_length_c   18.81957921
_cell_angle_alpha   89.96520101
_cell_angle_beta   89.99632279
_cell_angle_gamma   89.97803646
_symmetry_Int_Tables_number   1
_chemical_formula_structural   In2Te3
_chemical_formula_sum   'In72 Te108'
_cell_volume   6657.71129911
_cell_formula_units_Z   36
loop_
 _symmetry_equiv_pos_site_id
 _symmetry_equiv_pos_as_xyz
  1  'x, y, z'
loop_
 _atom_site_type_symbol
 _atom_site_label
 _atom_site_symmetry_multiplicity
 _atom_site_fract_x
 _atom_site_fract_y
 _atom_site_fract_z
 _atom_site_occupancy
  In  In0  1  0.82939639  0.15496709  0.01262605  1
  In  In1  1  0.16465371  0.50030772  -0.01144999  1
  In  In2  1  0.35787344  0.63642906  -0.00645670  1
  In  In3  1  0.20920015  0.36491596  0.18066809  1
  In  In4  1  0.83192153  0.66897508  0.84682901  1
  In  In5  1  0.32072680  -0.00623690  0.32985690  1
  In  In6  1  0.18071111  0.34612148  0.49981868  1
  In  In7  1  0.65664716  0.65002581  0.65295262  1
  In  In8  1  0.35164168  0.19395781  0.49439332  1
  In  In9  1  0.86014848  -0.01418340  0.50059374  1
  In  In10  1  0.50178065  0.48415571  0.65328456  1
  In  In11  1  0.18392956  0.49482085  0.66993716  1
  In  In12  1  0.50232162  0.34374575  0.81916251  1
  In  In13  1  0.67457054  0.81457160  0.46948121  1
  In  In14  1  0.31900365  0.80759164  0.82010709  1
  In  In15  1  -0.01642569  0.66558916  0.30970146  1
  In  In16  1  0.17680886  0.66312203  0.16024886  1
  In  In17  1  0.00111565  -0.00988154  0.33807922  1
  In  In18  1  0.81314625  0.32462075  0.16177639  1
  In  In19  1  0.81367611  0.15854708  0.66156331  1
  In  In20  1  0.16786456  0.00593649  0.18206262  1
  In  In21  1  0.49703314  0.65803920  0.48237314  1
  In  In22  1  0.80739754  -0.00604032  0.15438050  1
  In  In23  1  0.32675916  -0.01316980  0.65537760  1
  In  In24  1  0.00152150  0.67019127  0.67715525  1
  In  In25  1  0.82312457  0.17673161  0.33441272  1
  In  In26  1  0.83395500  0.48975611  0.66798311  1
  In  In27  1  0.65546465  0.01403295  0.65524688  1
  In  In28  1  0.86885683  0.36618816  0.87498069  1
  In  In29  1  0.15940184  0.83119346  0.00685693  1
  In  In30  1  0.67577229  0.68115139  0.02605435  1
  In  In31  1  0.00323737  0.18598071  0.83378144  1
  In  In32  1  0.17540962  0.33258429  0.84947897  1
  In  In33  1  0.01533489  0.32567349  0.66900955  1
  In  In34  1  0.48391612  -0.00268053  0.49803310  1
  In  In35  1  0.65280784  0.84942416  0.84866987  1
  In  In36  1  0.65714953  0.35076162  0.01065027  1
  In  In37  1  0.64988363  0.18349428  0.46706398  1
  In  In38  1  0.68614156  -0.00486717  0.00247129  1
  In  In39  1  0.50029722  0.81666676  0.00499641  1
  In  In40  1  0.01437458  0.33987564  0.35118750  1
  In  In41  1  0.84203966  0.83714444  0.67632439  1
  In  In42  1  0.63983261  0.36118217  0.65348010  1
  In  In43  1  0.64270772  0.47183874  0.49013693  1
  In  In44  1  0.68057527  0.17509295  0.81408225  1
  In  In45  1  0.14908990  0.14460588  0.33555758  1
  In  In46  1  0.81797015  0.52347137  0.31499343  1
  In  In47  1  0.84284195  0.68084351  0.48788784  1
  In  In48  1  0.35674278  0.35292206  0.03378623  1
  In  In49  1  0.49668501  0.66357302  0.15762995  1
  In  In50  1  0.66739207  0.83442459  0.16062678  1
  In  In51  1  0.34117287  0.65037445  0.67109749  1
  In  In52  1  0.00960985  -0.01631752  0.66388970  1
  In  In53  1  0.00140548  -0.00903787  -0.00271981  1
  In  In54  1  0.33020945  0.02036662  0.00558806  1
  In  In55  1  0.83749441  0.34624912  0.47829264  1
  In  In56  1  0.17364020  0.65510810  0.49434321  1
  In  In57  1  0.47789954  0.00247587  0.81997776  1
  In  In58  1  0.17952017  0.16314278  0.66103479  1
  In  In59  1  0.16824038  0.83555338  0.34180878  1
  In  In60  1  0.65636900  0.50306003  0.84525930  1
  In  In61  1  0.49257013  0.84214567  0.33464190  1
  In  In62  1  0.32356264  0.15646683  0.83080059  1
  In  In63  1  0.51494619  0.04226725  0.20318872  1
  In  In64  1  0.32922731  0.65747606  0.34528119  1
  In  In65  1  0.16125866  0.83315713  0.66616259  1
  In  In66  1  0.00607355  0.64791239  -0.00123948  1
  In  In67  1  -0.00325777  0.17493857  0.15709198  1
  In  In68  1  0.51756297  0.17119656  0.00079981  1
  In  In69  1  0.49558167  0.47056668  0.33331925  1
  In  In70  1  0.01521595  0.49715337  0.17080278  1
  In  In71  1  0.82784158  0.79723748  0.02049254  1
  Te  Te72  1  0.09107443  0.08722886  0.07772053  1
  Te  Te73  1  0.08479722  0.05934994  0.43777776  1
  Te  Te74  1  0.08581254  0.08682977  0.75234433  1
  Te  Te75  1  0.09332752  0.40318231  0.08224279  1
  Te  Te76  1  0.08970204  0.43947118  0.42787095  1
  Te  Te77  1  0.08190720  0.41997284  0.76493283  1
  Te  Te78  1  0.06671722  0.74747129  0.09868532  1
  Te  Te79  1  0.07501958  0.73801007  0.41250642  1
  Te  Te80  1  0.09228045  0.74634040  0.76369596  1
  Te  Te81  1  0.42142114  0.10356640  0.09822875  1
  Te  Te82  1  0.41655722  0.09201636  0.39903505  1
  Te  Te83  1  0.41292666  0.09707505  0.72207225  1
  Te  Te84  1  0.44252003  0.43029196  0.12519490  1
  Te  Te85  1  0.37819252  0.38676665  0.38154077  1
  Te  Te86  1  0.40237705  0.42411552  0.74581739  1
  Te  Te87  1  0.39383800  0.75375837  0.09084858  1
  Te  Te88  1  0.40135909  0.76402221  0.42790778  1
  Te  Te89  1  0.42871638  0.74464571  0.74669244  1
  Te  Te90  1  0.71591299  0.10719957  0.10157867  1
  Te  Te91  1  0.75655826  0.07937610  0.43151738  1
  Te  Te92  1  0.75920031  0.05540624  0.76027595  1
  Te  Te93  1  0.74379331  0.43875579  0.09455189  1
  Te  Te94  1  0.73462332  0.40851189  0.38608980  1
  Te  Te95  1  0.74367485  0.40806838  0.76243361  1
  Te  Te96  1  0.78442581  0.71028024  0.14486747  1
  Te  Te97  1  0.76335208  0.74052287  0.37471628  1
  Te  Te98  1  0.73693406  0.74168578  0.74752741  1
  Te  Te99  1  0.09027293  0.25920862  0.24382105  1
  Te  Te100  1  0.08826845  0.24122685  0.56693641  1
  Te  Te101  1  0.08926473  0.24869469  0.93483224  1
  Te  Te102  1  0.10133958  0.57940675  0.26404852  1
  Te  Te103  1  0.08231619  0.57587511  0.58777235  1
  Te  Te104  1  0.09706448  0.59313593  0.89524308  1
  Te  Te105  1  0.07447438  0.90034051  0.23921556  1
  Te  Te106  1  0.09280285  0.91522683  0.56216428  1
  Te  Te107  1  0.09026705  0.91523304  0.90727583  1
  Te  Te108  1  0.44300245  0.31229545  0.26708360  1
  Te  Te109  1  0.40772232  0.29207458  0.59003983  1
  Te  Te110  1  0.41861677  0.24706233  0.91294910  1
  Te  Te111  1  0.41173779  0.57521930  0.24814174  1
  Te  Te112  1  0.40892525  0.56472106  0.56089317  1
  Te  Te113  1  0.44647038  0.55932868  0.90798099  1
  Te  Te114  1  0.41889269  0.92660036  0.23227215  1
  Te  Te115  1  0.42416420  0.89835843  0.58918933  1
  Te  Te116  1  0.40945109  0.90940817  0.92030883  1
  Te  Te117  1  0.72309681  0.25040678  0.25429863  1
  Te  Te118  1  0.74340143  0.26558217  0.57635998  1
  Te  Te119  1  0.74869768  0.25675995  0.92269714  1
  Te  Te120  1  0.72548369  0.57290970  0.21031006  1
  Te  Te121  1  0.75103086  0.56947923  0.56365969  1
  Te  Te122  1  0.75173015  0.57781312  0.93718524  1
  Te  Te123  1  0.72273624  0.93084626  0.25635278  1
  Te  Te124  1  0.74307858  0.90856331  0.58103981  1
  Te  Te125  1  0.77402844  0.90406458  0.91917083  1
  Te  Te126  1  0.26412711  0.25645108  0.09729553  1
  Te  Te127  1  0.24524284  0.24865042  0.39914304  1
  Te  Te128  1  0.25904767  0.26344533  0.74205399  1
  Te  Te129  1  0.26295160  0.56151835  0.08869200  1
  Te  Te130  1  0.25536238  0.55132907  0.42140251  1
  Te  Te131  1  0.24519584  0.58865845  0.76589990  1
  Te  Te132  1  0.25356741  0.91902203  0.09129005  1
  Te  Te133  1  0.24899026  0.91778755  0.43359740  1
  Te  Te134  1  0.24206426  0.92627041  0.76539167  1
  Te  Te135  1  0.56800837  0.27026904  0.09956832  1
  Te  Te136  1  0.55080400  0.25394873  0.37912416  1
  Te  Te137  1  0.57467466  0.24176598  0.73007935  1
  Te  Te138  1  0.59587489  0.57376922  0.09222503  1
  Te  Te139  1  0.59440581  0.58208263  0.39650972  1
  Te  Te140  1  0.56441761  0.58399803  0.75283866  1
  Te  Te141  1  0.56989061  0.93079108  0.08030056  1
  Te  Te142  1  0.59215107  0.92889733  0.41047762  1
  Te  Te143  1  0.57126311  0.91312065  0.73719726  1
  Te  Te144  1  0.91839303  0.26706644  0.06525891  1
  Te  Te145  1  0.93012237  0.23597169  0.42565599  1
  Te  Te146  1  0.89741804  0.26003198  0.74643318  1
  Te  Te147  1  0.91396256  0.56110384  0.07970915  1
  Te  Te148  1  0.92118862  0.57117379  0.41785485  1
  Te  Te149  1  0.91713782  0.57305806  0.76307242  1
  Te  Te150  1  0.91267212  0.90648860  0.09030372  1
  Te  Te151  1  0.90851108  0.89116524  0.39933378  1
  Te  Te152  1  0.92810342  0.91390144  0.76564067  1
  Te  Te153  1  0.26451320  0.10672982  0.24194559  1
  Te  Te154  1  0.25979920  0.08485866  0.55939998  1
  Te  Te155  1  0.23059998  0.08697404  0.92055596  1
  Te  Te156  1  0.26442703  0.44947710  0.28905059  1
  Te  Te157  1  0.28104643  0.40463823  0.59550043  1
  Te  Te158  1  0.27819009  0.42103884  0.92123086  1
  Te  Te159  1  0.26017080  0.75496793  0.25004721  1
  Te  Te160  1  0.25612981  0.74490907  0.58404951  1
  Te  Te161  1  0.25101264  0.73213852  0.93259884  1
  Te  Te162  1  0.59241447  0.12515210  0.29840436  1
  Te  Te163  1  0.56780452  0.10531698  0.57116685  1
  Te  Te164  1  0.59073016  0.07450641  0.90202439  1
  Te  Te165  1  0.56695887  0.40510340  0.21686777  1
  Te  Te166  1  0.53380202  0.37244982  0.53811272  1
  Te  Te167  1  0.54531078  0.43966225  0.93421723  1
  Te  Te168  1  0.58086150  0.74847771  0.25330723  1
  Te  Te169  1  0.57928101  0.75235904  0.57151372  1
  Te  Te170  1  0.58309238  0.73051512  0.91243816  1
  Te  Te171  1  0.91063377  0.08237618  0.24161638  1
  Te  Te172  1  0.92692430  0.09169026  0.58712134  1
  Te  Te173  1  0.91415921  0.08421864  0.91015748  1
  Te  Te174  1  0.91421063  0.40835638  0.25409319  1
  Te  Te175  1  0.93115183  0.41678608  0.57698942  1
  Te  Te176  1  0.94230658  0.46106179  0.95846130  1
  Te  Te177  1  0.88130793  0.75934604  0.25999229  1
  Te  Te178  1  0.93246966  0.76466708  0.57731512  1
  Te  Te179  1  0.93254478  0.75704433  0.91573819  1
