# generated using pymatgen
data_In2Te3
_symmetry_space_group_name_H-M   'P 1'
_cell_length_a   18.93497557
_cell_length_b   18.91413143
_cell_length_c   18.93804443
_cell_angle_alpha   89.98607593
_cell_angle_beta   89.85600404
_cell_angle_gamma   89.79417502
_symmetry_Int_Tables_number   1
_chemical_formula_structural   In2Te3
_chemical_formula_sum   'In72 Te108'
_cell_volume   6782.37966042
_cell_formula_units_Z   36
loop_
 _symmetry_equiv_pos_site_id
 _symmetry_equiv_pos_as_xyz
  1  'x, y, z'
loop_
 _atom_site_type_symbol
 _atom_site_label
 _atom_site_symmetry_multiplicity
 _atom_site_fract_x
 _atom_site_fract_y
 _atom_site_fract_z
 _atom_site_occupancy
  In  In0  1  -0.03279800  0.28592343  0.01926466  1
  In  In1  1  -0.02138881  0.48273791  0.84998188  1
  In  In2  1  0.17103526  0.33209673  0.16173856  1
  In  In3  1  0.17075303  0.51040767  0.00709837  1
  In  In4  1  0.79935187  0.33062335  0.87192241  1
  In  In5  1  0.33432363  -0.00301534  0.32866189  1
  In  In6  1  0.34972622  0.81871345  0.50650200  1
  In  In7  1  0.15741858  0.83251931  0.29701239  1
  In  In8  1  -0.00968448  0.48664324  0.16835795  1
  In  In9  1  0.00517180  0.15392242  0.49754232  1
  In  In10  1  0.67444130  0.19812138  0.18083113  1
  In  In11  1  0.01468897  0.65764516  0.67534915  1
  In  In12  1  -0.04523057  0.04008671  0.00236342  1
  In  In13  1  0.81849998  0.32566298  0.49171374  1
  In  In14  1  0.17917339  0.67677378  0.46712995  1
  In  In15  1  0.68838818  0.50715409  -0.00119729  1
  In  In16  1  0.14975991  0.82715175  -0.00079397  1
  In  In17  1  -0.05962983  0.03875496  0.71870095  1
  In  In18  1  0.34357978  0.83329341  0.84178446  1
  In  In19  1  0.52156749  0.19176238  0.32649114  1
  In  In20  1  0.33660823  0.03572534  0.03248872  1
  In  In21  1  0.67221454  0.83854247  0.83296891  1
  In  In22  1  0.65450316  0.65609002  0.66702941  1
  In  In23  1  0.49946626  0.49442805  0.66822168  1
  In  In24  1  0.51392146  0.82781016  0.01137442  1
  In  In25  1  0.33640635  0.18271674  0.84388119  1
  In  In26  1  0.00545593  0.52423712  0.46911753  1
  In  In27  1  -0.02452848  0.85577045  0.52169590  1
  In  In28  1  0.69370035  0.01715922  0.67591164  1
  In  In29  1  0.15847046  0.17840778  -0.02788388  1
  In  In30  1  0.70053835  0.32167680  0.67508702  1
  In  In31  1  0.13585206  0.82593739  0.64925994  1
  In  In32  1  0.37282264  0.32838459  0.00756939  1
  In  In33  1  0.16249177  0.18604002  0.33758656  1
  In  In34  1  0.82849692  0.82244168  0.33458924  1
  In  In35  1  -0.04917764  0.30297357  0.67179369  1
  In  In36  1  0.82651229  0.65199367  0.47885119  1
  In  In37  1  0.53172915  0.16039896  0.68371553  1
  In  In38  1  0.31567644  0.82805226  0.19449345  1
  In  In39  1  0.80340750  0.00665243  0.48236754  1
  In  In40  1  0.49094008  0.84639321  0.32894017  1
  In  In41  1  0.83333482  0.85411887  0.67589824  1
  In  In42  1  0.18534723  0.48672785  0.67932948  1
  In  In43  1  0.18372049  0.02329395  0.48411355  1
  In  In44  1  0.49256825  0.61746712  0.49291165  1
  In  In45  1  0.12892125  -0.00980217  0.82610914  1
  In  In46  1  0.79171137  0.63343473  0.15944483  1
  In  In47  1  0.66458464  0.00230009  0.32109635  1
  In  In48  1  0.49249600  0.36488997  0.47228490  1
  In  In49  1  -0.04085184  0.34271485  0.31959443  1
  In  In50  1  0.32539000  -0.01112965  0.65175047  1
  In  In51  1  0.47278007  0.66254652  0.84300487  1
  In  In52  1  0.51300017  0.02827911  0.85688704  1
  In  In53  1  -0.01906883  0.67363273  0.33048024  1
  In  In54  1  0.14861856  0.00207126  0.17301809  1
  In  In55  1  0.37320068  0.18807336  0.17773882  1
  In  In56  1  0.51620262  0.65105428  0.19051240  1
  In  In57  1  0.35139775  0.32805420  0.68227838  1
  In  In58  1  0.14834752  0.35059209  0.84273813  1
  In  In59  1  0.35282814  0.49917071  0.15160065  1
  In  In60  1  0.68020195  0.84798503  0.15151612  1
  In  In61  1  0.17386744  0.32440666  0.50171621  1
  In  In62  1  0.00070713  0.67501534  0.00555803  1
  In  In63  1  0.33954566  0.65495107  0.00370075  1
  In  In64  1  0.34264182  0.49498263  0.81803583  1
  In  In65  1  0.34760470  0.16683709  0.49640351  1
  In  In66  1  0.50664198  0.83731317  0.64965355  1
  In  In67  1  0.84774761  0.46348551  0.67950767  1
  In  In68  1  0.84591649  0.83025133  0.01602509  1
  In  In69  1  0.17769962  0.50547092  0.33123547  1
  In  In70  1  0.70591802  0.02815591  0.00545225  1
  In  In71  1  0.67601233  0.48991796  0.48546328  1
  Te  Te72  1  0.08038521  0.10392193  0.08072590  1
  Te  Te73  1  0.07638431  0.07193360  0.38890584  1
  Te  Te74  1  0.07201293  0.09900944  0.74876777  1
  Te  Te75  1  0.07722298  0.40223647  0.06430663  1
  Te  Te76  1  0.08224556  0.40157787  0.40275429  1
  Te  Te77  1  0.06174981  0.41415484  0.73353793  1
  Te  Te78  1  0.08619120  0.74562767  0.10220269  1
  Te  Te79  1  0.06133117  0.76279785  0.42440379  1
  Te  Te80  1  0.07314615  0.75983705  0.76349475  1
  Te  Te81  1  0.44837776  0.12270776  0.06759507  1
  Te  Te82  1  0.43162744  0.08631402  0.40095644  1
  Te  Te83  1  0.40781674  0.07586580  0.74749033  1
  Te  Te84  1  0.45490135  0.39925739  0.10819881  1
  Te  Te85  1  0.42292792  0.47442907  0.40789942  1
  Te  Te86  1  0.44944600  0.39509510  0.77477844  1
  Te  Te87  1  0.41448247  0.75026296  0.09706387  1
  Te  Te88  1  0.42479431  0.73484714  0.40867432  1
  Te  Te89  1  0.41275685  0.75135655  0.73414055  1
  Te  Te90  1  0.77000664  0.09317650  0.12348225  1
  Te  Te91  1  0.75539144  0.10138641  0.38185146  1
  Te  Te92  1  0.79365275  0.07443709  0.76977594  1
  Te  Te93  1  0.74631667  0.41838138  0.10715405  1
  Te  Te94  1  0.73427235  0.39239902  0.38511820  1
  Te  Te95  1  0.73517976  0.44302784  0.78368876  1
  Te  Te96  1  0.73409430  0.73692418  0.06393217  1
  Te  Te97  1  0.73694205  0.75357297  0.42523495  1
  Te  Te98  1  0.75172300  0.74458546  0.74443405  1
  Te  Te99  1  0.06218049  0.25405444  0.23629195  1
  Te  Te100  1  0.07487598  0.25127121  0.58972245  1
  Te  Te101  1  0.04976759  0.24723478  0.89372955  1
  Te  Te102  1  0.07545341  0.58281876  0.24974937  1
  Te  Te103  1  0.10030350  0.57545021  0.57515183  1
  Te  Te104  1  0.08159585  0.57884151  0.90829071  1
  Te  Te105  1  0.05118478  0.91180196  0.23631566  1
  Te  Te106  1  0.08458546  0.94643932  0.57641421  1
  Te  Te107  1  0.05641675  0.93328124  0.94388556  1
  Te  Te108  1  0.44698398  0.29427804  0.24782626  1
  Te  Te109  1  0.43857209  0.24942555  0.58545232  1
  Te  Te110  1  0.44838789  0.23669176  0.91985269  1
  Te  Te111  1  0.42743316  0.56007102  0.26719901  1
  Te  Te112  1  0.40320052  0.58281746  0.60377061  1
  Te  Te113  1  0.42454289  0.55019671  0.93490706  1
  Te  Te114  1  0.42139788  0.93370398  0.22209323  1
  Te  Te115  1  0.43208211  0.93549739  0.55838769  1
  Te  Te116  1  0.42011143  0.92765072  0.93213738  1
  Te  Te117  1  0.75100115  0.29002020  0.26787252  1
  Te  Te118  1  0.75971433  0.22571454  0.58169551  1
  Te  Te119  1  0.71521850  0.24775150  0.96453886  1
  Te  Te120  1  0.71009375  0.58398537  0.27353089  1
  Te  Te121  1  0.75737895  0.56447516  0.59355029  1
  Te  Te122  1  0.76447488  0.55525460  0.88231938  1
  Te  Te123  1  0.77166427  0.92763338  0.24007049  1
  Te  Te124  1  0.73368609  0.90634061  0.57809623  1
  Te  Te125  1  0.76649291  0.91848078  0.91642278  1
  Te  Te126  1  0.25614469  0.24097870  0.07395933  1
  Te  Te127  1  0.27559451  0.26412570  0.40415200  1
  Te  Te128  1  0.23860988  0.25915953  0.75674382  1
  Te  Te129  1  0.24302041  0.59700800  0.10623169  1
  Te  Te130  1  0.26709945  0.56338556  0.43307622  1
  Te  Te131  1  0.24145419  0.58775110  0.76828047  1
  Te  Te132  1  0.24756629  0.91619750  0.08260686  1
  Te  Te133  1  0.24881950  0.90354394  0.41602279  1
  Te  Te134  1  0.24377026  0.90701831  0.75055314  1
  Te  Te135  1  0.60175967  0.26951420  0.07116384  1
  Te  Te136  1  0.59148501  0.26472313  0.43285901  1
  Te  Te137  1  0.61180804  0.24940093  0.76672697  1
  Te  Te138  1  0.57699614  0.59413078  0.06820204  1
  Te  Te139  1  0.60422437  0.58558995  0.39626737  1
  Te  Te140  1  0.57682398  0.57688351  0.77010841  1
  Te  Te141  1  0.59282167  0.94117008  0.06992700  1
  Te  Te142  1  0.58230465  0.92219613  0.41289607  1
  Te  Te143  1  0.57361686  0.92628579  0.75487301  1
  Te  Te144  1  0.87258099  0.21512503  0.11262197  1
  Te  Te145  1  0.90912806  0.23045452  0.40726222  1
  Te  Te146  1  0.87085062  0.23406661  0.77830581  1
  Te  Te147  1  0.90839340  0.57642487  0.07787522  1
  Te  Te148  1  0.89062716  0.55781488  0.37736270  1
  Te  Te149  1  0.91036134  0.58218003  0.75659616  1
  Te  Te150  1  0.91865312  0.93155385  0.09527071  1
  Te  Te151  1  0.91214839  0.92869799  0.40677929  1
  Te  Te152  1  0.93993533  0.89802061  0.76443256  1
  Te  Te153  1  0.25373621  0.09700150  0.24427342  1
  Te  Te154  1  0.24687484  0.10687486  0.59324533  1
  Te  Te155  1  0.24679193  0.06902397  0.90891393  1
  Te  Te156  1  0.26324361  0.41232769  0.24655236  1
  Te  Te157  1  0.27190178  0.40948487  0.58095006  1
  Te  Te158  1  0.25911576  0.40836274  0.92952393  1
  Te  Te159  1  0.25514660  0.72505706  0.28109921  1
  Te  Te160  1  0.24603259  0.74185918  0.58739792  1
  Te  Te161  1  0.24938500  0.74186470  0.91753986  1
  Te  Te162  1  0.57798435  0.08927942  0.23104906  1
  Te  Te163  1  0.60225860  0.08238730  0.58214360  1
  Te  Te164  1  0.62905614  0.10686813  0.90272351  1
  Te  Te165  1  0.63602958  0.48710769  0.17934222  1
  Te  Te166  1  0.59810415  0.40859550  0.58976060  1
  Te  Te167  1  0.62068189  0.37711814  0.95874828  1
  Te  Te168  1  0.59455464  0.76669209  0.24777760  1
  Te  Te169  1  0.57600729  0.73327588  0.56508927  1
  Te  Te170  1  0.58558999  0.74050724  0.91088257  1
  Te  Te171  1  0.96452195  0.13669895  0.20047302  1
  Te  Te172  1  0.90022992  0.07966401  0.57759224  1
  Te  Te173  1  0.87859548  0.11023690  0.89665143  1
  Te  Te174  1  0.87307692  0.40144690  0.21219442  1
  Te  Te175  1  0.92659432  0.42019173  0.55442119  1
  Te  Te176  1  0.89906471  0.40847811  0.95507271  1
  Te  Te177  1  0.89065021  0.73439535  0.22726739  1
  Te  Te178  1  0.91292277  0.73099814  0.58235615  1
  Te  Te179  1  0.91071526  0.74542193  0.91471845  1
