# generated using pymatgen
data_In2Te3
_symmetry_space_group_name_H-M   'P 1'
_cell_length_a   18.94521695
_cell_length_b   19.01309100
_cell_length_c   18.93994761
_cell_angle_alpha   89.97346998
_cell_angle_beta   89.88685079
_cell_angle_gamma   90.10231123
_symmetry_Int_Tables_number   1
_chemical_formula_structural   In2Te3
_chemical_formula_sum   'In72 Te108'
_cell_volume   6822.27932186
_cell_formula_units_Z   36
loop_
 _symmetry_equiv_pos_site_id
 _symmetry_equiv_pos_as_xyz
  1  'x, y, z'
loop_
 _atom_site_type_symbol
 _atom_site_label
 _atom_site_symmetry_multiplicity
 _atom_site_fract_x
 _atom_site_fract_y
 _atom_site_fract_z
 _atom_site_occupancy
  In  In0  1  0.34863554  -0.00656247  0.03598469  1
  In  In1  1  0.16818287  0.00704681  0.81854395  1
  In  In2  1  0.30442918  0.69772421  0.65631879  1
  In  In3  1  0.55272712  0.32174096  0.16783310  1
  In  In4  1  -0.01661250  0.68054364  0.03431765  1
  In  In5  1  0.34291672  0.14758973  0.18159750  1
  In  In6  1  0.29855781  0.48855498  0.50216563  1
  In  In7  1  0.14557786  0.01233959  0.51203104  1
  In  In8  1  0.15380203  0.33737249  0.16697519  1
  In  In9  1  0.35121274  0.17765167  0.84395053  1
  In  In10  1  0.85411463  0.50923965  0.35010047  1
  In  In11  1  0.51287788  -0.00146211  0.17497323  1
  In  In12  1  0.18421587  0.16647880  0.01882009  1
  In  In13  1  0.18145686  0.33155792  0.84378896  1
  In  In14  1  0.81968946  0.15731237  0.35237251  1
  In  In15  1  0.51923976  0.65283562  0.82296374  1
  In  In16  1  0.83107402  0.83971746  0.01727138  1
  In  In17  1  0.66507388  0.64247358  -0.00489195  1
  In  In18  1  0.79655436  0.30686870  0.83135498  1
  In  In19  1  -0.02516092  0.31211448  -0.03994175  1
  In  In20  1  0.14381151  0.83754381  0.63383777  1
  In  In21  1  0.66813439  0.00966421  0.67771908  1
  In  In22  1  0.51770059  0.68381238  0.16189538  1
  In  In23  1  0.36915602  0.15723994  0.48848850  1
  In  In24  1  0.17409476  0.50136233  -0.03677144  1
  In  In25  1  -0.01892862  0.16678835  0.80030408  1
  In  In26  1  0.00895790  0.49815670  0.14144992  1
  In  In27  1  0.80388496  0.03604562  0.81508109  1
  In  In28  1  0.51327770  0.02592169  0.84481523  1
  In  In29  1  0.83702060  0.65033750  0.18838985  1
  In  In30  1  0.50023468  0.49152299  0.63717197  1
  In  In31  1  0.67046313  0.80768640  0.47527658  1
  In  In32  1  0.68731469  0.52145066  0.48347108  1
  In  In33  1  0.34685876  0.84911852  0.83222379  1
  In  In34  1  0.81674539  0.82655670  0.67940896  1
  In  In35  1  0.07324154  0.47125593  0.62942060  1
  In  In36  1  0.35997814  0.68872198  0.34577971  1
  In  In37  1  -0.03967869  0.50329203  0.82477873  1
  In  In38  1  -0.02897925  0.66197803  0.58089353  1
  In  In39  1  0.69656296  0.16325471  0.16807921  1
  In  In40  1  0.33398239  0.83717087  0.19370390  1
  In  In41  1  -0.00999868  0.31503248  0.32974624  1
  In  In42  1  0.34463002  0.32871149  0.32518129  1
  In  In43  1  0.52915325  0.33117909  0.83867336  1
  In  In44  1  0.31969174  -0.04651636  0.58404095  1
  In  In45  1  0.67251486  0.50292522  0.81867951  1
  In  In46  1  0.16441335  0.17201830  0.68397473  1
  In  In47  1  0.50545743  0.67061736  0.50462262  1
  In  In48  1  0.49603803  0.18653087  0.68054392  1
  In  In49  1  -0.00628627  0.84929870  0.83213992  1
  In  In50  1  0.16598051  0.67610494  0.84255734  1
  In  In51  1  0.32415167  0.66595396  0.02826068  1
  In  In52  1  0.33116779  0.49887790  0.82800418  1
  In  In53  1  0.66130424  0.82789360  0.83714178  1
  In  In54  1  0.52167362  0.50602695  0.00307209  1
  In  In55  1  0.55314000  0.28131079  0.49045485  1
  In  In56  1  0.50824414  -0.01632916  0.48848822  1
  In  In57  1  0.01469496  0.82698736  0.19602241  1
  In  In58  1  0.83755380  0.51471630  0.64726349  1
  In  In59  1  0.12363703  0.53266110  0.34939186  1
  In  In60  1  0.15516164  -0.00311964  0.19785265  1
  In  In61  1  0.82105635  0.33628856  0.13191903  1
  In  In62  1  -0.02826780  0.14985210  0.52459090  1
  In  In63  1  0.18060493  0.67394785  0.19567842  1
  In  In64  1  0.68015204  0.83847865  0.20167453  1
  In  In65  1  0.84222906  -0.02375683  0.19364571  1
  In  In66  1  -0.04020626  -0.00315176  0.37433225  1
  In  In67  1  0.33858568  0.47033297  0.17034345  1
  In  In68  1  0.50396970  0.49386886  0.31414269  1
  In  In69  1  0.65773931  0.02311571  0.00469192  1
  In  In70  1  0.01051822  0.01313979  -0.02260553  1
  In  In71  1  0.15617157  0.32416898  0.49215274  1
  Te  Te72  1  0.08182954  0.08330233  0.09180285  1
  Te  Te73  1  0.06853607  0.10082375  0.41848881  1
  Te  Te74  1  0.06385086  0.06381380  0.72531194  1
  Te  Te75  1  0.07833183  0.40336341  0.04179563  1
  Te  Te76  1  0.05853617  0.42012504  0.42158804  1
  Te  Te77  1  0.07409563  0.41466308  0.77568013  1
  Te  Te78  1  0.10127948  0.75496700  0.09193416  1
  Te  Te79  1  0.04507904  0.67366749  0.44384017  1
  Te  Te80  1  0.08083648  0.75848404  0.74755613  1
  Te  Te81  1  0.44762176  0.09773964  0.07845998  1
  Te  Te82  1  0.41673805  0.05500183  0.39375883  1
  Te  Te83  1  0.40866543  0.07663654  0.74829013  1
  Te  Te84  1  0.44675667  0.40511009  0.08917549  1
  Te  Te85  1  0.41007450  0.42932490  0.41712309  1
  Te  Te86  1  0.43310563  0.41800836  0.75198644  1
  Te  Te87  1  0.41811826  0.76937910  0.08653644  1
  Te  Te88  1  0.42911983  0.77979653  0.43819177  1
  Te  Te89  1  0.41618849  0.74103237  0.75156326  1
  Te  Te90  1  0.77843094  0.06489018  0.08667052  1
  Te  Te91  1  0.76345604  0.07846669  0.46854358  1
  Te  Te92  1  0.76932099  0.11945745  0.69709149  1
  Te  Te93  1  0.71117214  0.41089106  0.07253513  1
  Te  Te94  1  0.78579812  0.41879975  0.44403768  1
  Te  Te95  1  0.75295500  0.41565307  0.72609145  1
  Te  Te96  1  0.74516735  0.74102299  0.09272956  1
  Te  Te97  1  0.77652448  0.75565128  0.38332341  1
  Te  Te98  1  0.75037147  0.73054123  0.77198263  1
  Te  Te99  1  0.09141296  0.24040802  0.25552831  1
  Te  Te100  1  0.07132877  0.24703950  0.59248669  1
  Te  Te101  1  0.09821214  0.21939803  0.90414962  1
  Te  Te102  1  0.05017058  0.60585932  0.24100822  1
  Te  Te103  1  0.11011804  0.60359851  0.57053672  1
  Te  Te104  1  0.06188118  0.59477931  0.92164544  1
  Te  Te105  1  0.07269673  0.91725130  0.29996923  1
  Te  Te106  1  0.04198145  0.91427852  0.55735557  1
  Te  Te107  1  0.10416281  0.91022279  0.91725379  1
  Te  Te108  1  0.44050935  0.24528400  0.24789876  1
  Te  Te109  1  0.42502390  0.26979612  0.57398236  1
  Te  Te110  1  0.44740648  0.24799750  0.92737235  1
  Te  Te111  1  0.40453533  0.59234891  0.23120598  1
  Te  Te112  1  0.39215755  0.58704612  0.58399541  1
  Te  Te113  1  0.41091532  0.58790232  0.92767227  1
  Te  Te114  1  0.41437706  0.93680859  0.26820261  1
  Te  Te115  1  0.44766461  0.88082178  0.57787642  1
  Te  Te116  1  0.43458746  0.92533813  0.92952751  1
  Te  Te117  1  0.76465985  0.26343230  0.25813507  1
  Te  Te118  1  0.68857476  0.21419564  0.50876261  1
  Te  Te119  1  0.72645509  0.22626398  0.93375432  1
  Te  Te120  1  0.74701551  0.56754844  0.26685638  1
  Te  Te121  1  0.76847464  0.61618976  0.56342066  1
  Te  Te122  1  0.75833685  0.60316451  0.88785757  1
  Te  Te123  1  0.72619916  0.95413163  0.28576165  1
  Te  Te124  1  0.72449704  0.90268192  0.58739078  1
  Te  Te125  1  0.75254437  0.92373115  0.91740031  1
  Te  Te126  1  0.26760903  0.25859037  0.10221754  1
  Te  Te127  1  0.26083807  0.24301133  0.41837031  1
  Te  Te128  1  0.27192430  0.26124110  0.74528526  1
  Te  Te129  1  0.22809033  0.56213850  0.09348210  1
  Te  Te130  1  0.25275665  0.59070594  0.40169305  1
  Te  Te131  1  0.24069250  0.58655268  0.74663954  1
  Te  Te132  1  0.23928000  0.91270024  0.10096522  1
  Te  Te133  1  0.25329772  0.92809636  0.45592495  1
  Te  Te134  1  0.25061149  0.91340267  0.73175449  1
  Te  Te135  1  0.62721220  0.24412583  0.06152706  1
  Te  Te136  1  0.59582297  0.17483610  0.39314882  1
  Te  Te137  1  0.60632776  0.26811187  0.73193694  1
  Te  Te138  1  0.60318821  0.56859150  0.11560521  1
  Te  Te139  1  0.58101487  0.59403072  0.39806262  1
  Te  Te140  1  0.59505788  0.58252256  0.71385368  1
  Te  Te141  1  0.60113285  0.91124404  0.08819453  1
  Te  Te142  1  0.61128819  0.92283966  0.39874881  1
  Te  Te143  1  0.57134910  0.91640376  0.75605881  1
  Te  Te144  1  0.92386334  0.24645476  0.07908731  1
  Te  Te145  1  0.90238692  0.25437173  0.43804283  1
  Te  Te146  1  0.90011837  0.26714077  0.73368334  1
  Te  Te147  1  0.89136363  0.56648971  0.07242147  1
  Te  Te148  1  0.90214061  0.61539202  0.44742930  1
  Te  Te149  1  0.93163959  0.60834646  0.72492372  1
  Te  Te150  1  0.94465515  0.91509624  0.08554261  1
  Te  Te151  1  0.86669981  0.88187598  0.38945672  1
  Te  Te152  1  0.89945778  0.93372161  0.75251668  1
  Te  Te153  1  0.25070855  0.07918126  0.27178635  1
  Te  Te154  1  0.25729197  0.10016060  0.58789666  1
  Te  Te155  1  0.26315399  0.07153282  0.92553083  1
  Te  Te156  1  0.23065156  0.42350892  0.26845990  1
  Te  Te157  1  0.21969943  0.40952571  0.60090872  1
  Te  Te158  1  0.28303476  0.40031529  0.93365226  1
  Te  Te159  1  0.23853420  0.77170597  0.29301600  1
  Te  Te160  1  0.23574368  0.76413182  0.54429804  1
  Te  Te161  1  0.26264929  0.75823284  0.92445025  1
  Te  Te162  1  0.59442325  0.09593997  0.25580147  1
  Te  Te163  1  0.56244108  0.07944332  0.59506567  1
  Te  Te164  1  0.62888510  0.11313949  0.88584891  1
  Te  Te165  1  0.60018336  0.38781485  0.28958036  1
  Te  Te166  1  0.59694296  0.41617817  0.55177430  1
  Te  Te167  1  0.62926847  0.41848520  0.93877887  1
  Te  Te168  1  0.57719839  0.76003678  0.27077468  1
  Te  Te169  1  0.60226328  0.74153962  0.58901124  1
  Te  Te170  1  0.57272223  0.74478071  0.93050959  1
  Te  Te171  1  0.92009586  0.08774546  0.25935240  1
  Te  Te172  1  0.86845380  0.05880745  0.57631634  1
  Te  Te173  1  0.90491257  0.09868295  0.91248223  1
  Te  Te174  1  0.92244898  0.41509170  0.23376388  1
  Te  Te175  1  0.94209461  0.43622600  0.57697520  1
  Te  Te176  1  0.87566087  0.41456651  0.91296113  1
  Te  Te177  1  0.89307398  0.76901282  0.26509701  1
  Te  Te178  1  0.92250438  0.80211602  0.57596181  1
  Te  Te179  1  0.91333961  0.75541334  0.92165213  1
