# generated using pymatgen
data_In2Te3
_symmetry_space_group_name_H-M   'P 1'
_cell_length_a   18.99884014
_cell_length_b   19.00797212
_cell_length_c   19.00181880
_cell_angle_alpha   89.98704675
_cell_angle_beta   90.21893979
_cell_angle_gamma   89.99251124
_symmetry_Int_Tables_number   1
_chemical_formula_structural   In2Te3
_chemical_formula_sum   'In72 Te108'
_cell_volume   6862.06553834
_cell_formula_units_Z   36
loop_
 _symmetry_equiv_pos_site_id
 _symmetry_equiv_pos_as_xyz
  1  'x, y, z'
loop_
 _atom_site_type_symbol
 _atom_site_label
 _atom_site_symmetry_multiplicity
 _atom_site_fract_x
 _atom_site_fract_y
 _atom_site_fract_z
 _atom_site_occupancy
  In  In0  1  0.84668630  0.01205408  0.17492592  1
  In  In1  1  0.81575056  0.52697596  0.34088664  1
  In  In2  1  0.20490864  0.51677306  0.30824270  1
  In  In3  1  0.32617612  0.83330391  0.85902443  1
  In  In4  1  0.48422168  0.45581273  0.32130581  1
  In  In5  1  0.65487041  0.67166904  0.63046692  1
  In  In6  1  0.07971593  0.88316833  0.10278800  1
  In  In7  1  0.64554343  0.15247074  0.45909190  1
  In  In8  1  0.67550892  0.16088583  0.83214398  1
  In  In9  1  0.02439385  0.32784103  0.68273742  1
  In  In10  1  0.48760947  0.16494174  0.02571546  1
  In  In11  1  0.82773263  0.49970098  -0.00204785  1
  In  In12  1  0.00600443  0.47741783  0.17333824  1
  In  In13  1  0.01002463  0.65176169  0.68610549  1
  In  In14  1  0.18195513  0.01228407  0.49202802  1
  In  In15  1  0.49343040  0.17494648  0.30887200  1
  In  In16  1  0.18709675  0.65913814  0.47196495  1
  In  In17  1  0.65108721  0.34277096  0.64110739  1
  In  In18  1  0.85526353  0.17397873  0.01582607  1
  In  In19  1  0.85730377  0.81851621  0.04244738  1
  In  In20  1  0.15078656  0.67367934  0.86053668  1
  In  In21  1  0.84025979  0.34609332  0.51546461  1
  In  In22  1  0.81580144  0.66353787  0.20376768  1
  In  In23  1  0.02030907  0.15980248  0.50904569  1
  In  In24  1  0.84399150  0.34426114  0.83760326  1
  In  In25  1  0.31749495  0.86280597  0.17777300  1
  In  In26  1  0.68140074  0.48570642  0.82630256  1
  In  In27  1  0.84628237  0.02073955  0.85901908  1
  In  In28  1  0.63895453  0.33592540  0.00629717  1
  In  In29  1  0.32754432  0.00827318  0.66523925  1
  In  In30  1  0.64344131  0.50613153  0.50565544  1
  In  In31  1  0.01168432  0.66142767  0.33103570  1
  In  In32  1  0.47338039  0.63989629  0.80028232  1
  In  In33  1  0.16477321  0.88120123  0.32344319  1
  In  In34  1  0.17751810  0.33119569  0.14567167  1
  In  In35  1  0.66321637  0.82351608  0.17227419  1
  In  In36  1  0.46285211  0.50936668  0.00824054  1
  In  In37  1  0.48052304  0.83772082  0.00844523  1
  In  In38  1  0.82116897  -0.01009887  0.52083015  1
  In  In39  1  0.32180036  0.83680525  0.47790865  1
  In  In40  1  0.83109709  0.82275039  0.35048191  1
  In  In41  1  0.33731385  0.34809330  0.66115161  1
  In  In42  1  0.01758158  0.48286813  0.48845107  1
  In  In43  1  0.32029446  0.50321008  0.83282637  1
  In  In44  1  0.19883708  0.33354876  0.87300863  1
  In  In45  1  0.65827100  -0.01328038  0.63374947  1
  In  In46  1  0.15808241  0.15599100  0.65304769  1
  In  In47  1  0.00949713  0.66414454  0.02062019  1
  In  In48  1  0.34070350  0.19328889  0.84103239  1
  In  In49  1  0.16801698  0.80829021  0.65697565  1
  In  In50  1  0.65096971  0.86230585  0.83711656  1
  In  In51  1  0.03309994  0.32185917  0.31130661  1
  In  In52  1  0.50818664  0.82919103  0.65468077  1
  In  In53  1  0.34899849  0.67638815  0.30310411  1
  In  In54  1  0.64354565  0.67477328  0.33562782  1
  In  In55  1  0.30681760  0.30636560  0.31656784  1
  In  In56  1  -0.02249992  0.83083116  0.50892196  1
  In  In57  1  0.47607804  0.00714128  0.18962276  1
  In  In58  1  0.61915069  0.65344732  -0.00333611  1
  In  In59  1  0.14993078  -0.02089927  0.86358317  1
  In  In60  1  0.83064300  0.86042363  0.66463996  1
  In  In61  1  0.85210416  0.16743242  0.33342206  1
  In  In62  1  0.68167943  0.01536956  -0.00413947  1
  In  In63  1  0.64295324  0.34776991  0.31228997  1
  In  In64  1  0.49385017  0.19757245  0.67301349  1
  In  In65  1  0.50748945  -0.01294024  0.45006854  1
  In  In66  1  0.19187808  0.15717531  0.00821077  1
  In  In67  1  0.83851525  0.67903535  0.81253135  1
  In  In68  1  -0.00183565  -0.00811859  0.68023404  1
  In  In69  1  0.81642351  0.19429620  0.68460225  1
  In  In70  1  0.17186780  0.48532103  0.68156881  1
  In  In71  1  0.83037811  0.33338727  0.16459218  1
  Te  Te72  1  0.13635336  0.05230001  0.10026712  1
  Te  Te73  1  0.09327314  0.09057576  0.40051736  1
  Te  Te74  1  0.08607763  0.08189296  0.76232302  1
  Te  Te75  1  0.08188171  0.41245560  0.06767592  1
  Te  Te76  1  0.11372147  0.42166644  0.39070367  1
  Te  Te77  1  0.09358135  0.41331905  0.78560690  1
  Te  Te78  1  0.11843555  0.73938246  0.08510347  1
  Te  Te79  1  0.08427048  0.76416784  0.42455235  1
  Te  Te80  1  0.07028142  0.76703119  0.76180250  1
  Te  Te81  1  0.40714106  0.04823110  0.06645356  1
  Te  Te82  1  0.41657956  0.08974343  0.40305799  1
  Te  Te83  1  0.41662762  0.09420634  0.75260913  1
  Te  Te84  1  0.39425569  0.37910236  0.03103242  1
  Te  Te85  1  0.39028122  0.38512967  0.40754265  1
  Te  Te86  1  0.42026275  0.40880320  0.77062485  1
  Te  Te87  1  0.39097993  0.75582681  0.09223581  1
  Te  Te88  1  0.42196609  0.75756666  0.40728994  1
  Te  Te89  1  0.40584223  0.76618641  0.74701307  1
  Te  Te90  1  0.75007958  0.10194688  0.09699987  1
  Te  Te91  1  0.75982212  0.07107755  0.40524736  1
  Te  Te92  1  0.74858848  0.06051148  0.74154346  1
  Te  Te93  1  0.73388729  0.42303333  0.08863878  1
  Te  Te94  1  0.74400928  0.41188793  0.41831197  1
  Te  Te95  1  0.76224177  0.40722293  0.72693021  1
  Te  Te96  1  0.73926289  0.72847667  0.07869803  1
  Te  Te97  1  0.76180335  0.71168016  0.41674942  1
  Te  Te98  1  0.73128102  0.77081537  0.74478682  1
  Te  Te99  1  0.12449870  0.22535492  0.24200628  1
  Te  Te100  1  0.10518428  0.27082870  0.56801875  1
  Te  Te101  1  0.10075101  0.24376592  0.93199320  1
  Te  Te102  1  0.09502127  0.58694294  0.23010622  1
  Te  Te103  1  0.09228407  0.59010781  0.56996951  1
  Te  Te104  1  0.07950018  0.56969738  0.93445654  1
  Te  Te105  1  0.05099623  0.92207496  0.24254271  1
  Te  Te106  1  0.08903343  0.92395458  0.57875465  1
  Te  Te107  1  0.06619569  0.89959940  0.95117843  1
  Te  Te108  1  0.37745910  0.21453293  0.22135881  1
  Te  Te109  1  0.40962289  0.25824496  0.57093866  1
  Te  Te110  1  0.43589287  0.26846227  0.92746133  1
  Te  Te111  1  0.42758703  0.56542489  0.22753296  1
  Te  Te112  1  0.39664274  0.54898206  0.70528023  1
  Te  Te113  1  0.39001022  0.60990433  0.92315696  1
  Te  Te114  1  0.44464304  0.88088302  0.25907986  1
  Te  Te115  1  0.41458107  0.92658142  0.57237049  1
  Te  Te116  1  0.41747718  0.93277714  0.91561479  1
  Te  Te117  1  0.74771665  0.24995918  0.25952484  1
  Te  Te118  1  0.74036109  0.23670934  0.55835898  1
  Te  Te119  1  0.74901056  0.25548816  0.92604347  1
  Te  Te120  1  0.70862610  0.56541414  0.24341956  1
  Te  Te121  1  0.74951483  0.57371398  0.58048775  1
  Te  Te122  1  0.74361589  0.59713071  0.91244793  1
  Te  Te123  1  0.75874075  0.91011347  0.24950779  1
  Te  Te124  1  0.72053492  0.87442660  0.54841549  1
  Te  Te125  1  0.76280245  0.90408978  0.93101354  1
  Te  Te126  1  0.28526695  0.23813213  0.09360717  1
  Te  Te127  1  0.20441514  0.21358312  0.37273061  1
  Te  Te128  1  0.23888328  0.25155427  0.74261321  1
  Te  Te129  1  0.31415850  0.63537284  0.15706305  1
  Te  Te130  1  0.29604481  0.57645811  0.41283039  1
  Te  Te131  1  0.23030722  0.60527054  0.75165888  1
  Te  Te132  1  0.24008430  0.93469715  0.06470575  1
  Te  Te133  1  0.27890743  0.95421903  0.39122861  1
  Te  Te134  1  0.23728569  0.91440950  0.74336868  1
  Te  Te135  1  0.58085739  0.24600616  0.10820449  1
  Te  Te136  1  0.56414027  0.26902389  0.41412904  1
  Te  Te137  1  0.59470230  0.26770800  0.76238088  1
  Te  Te138  1  0.55055122  0.58365133  0.10388836  1
  Te  Te139  1  0.55660938  0.56803983  0.39938846  1
  Te  Te140  1  0.60143769  0.58071541  0.74102546  1
  Te  Te141  1  0.59516849  0.91599314  0.07339880  1
  Te  Te142  1  0.62180310  0.90382387  0.43095172  1
  Te  Te143  1  0.56415632  0.94170838  0.74445558  1
  Te  Te144  1  0.93903841  0.24718098  0.11429851  1
  Te  Te145  1  0.93274674  0.26427372  0.42758676  1
  Te  Te146  1  0.93246692  0.24163806  0.76752736  1
  Te  Te147  1  0.90156136  0.57799060  0.11128415  1
  Te  Te148  1  0.92414851  0.58788888  0.42978390  1
  Te  Te149  1  0.92056214  0.56901812  0.76582286  1
  Te  Te150  1  0.92689522  0.94655058  0.06594983  1
  Te  Te151  1  0.91900372  0.93435205  0.41792942  1
  Te  Te152  1  0.91733225  0.91181111  0.77832526  1
  Te  Te153  1  0.25639032  0.00781063  0.19367419  1
  Te  Te154  1  0.27177472  0.10898444  0.56556459  1
  Te  Te155  1  0.26220292  0.07737881  0.89926514  1
  Te  Te156  1  0.27528443  0.42317297  0.21607768  1
  Te  Te157  1  0.25351164  0.43169604  0.57481962  1
  Te  Te158  1  0.26703211  0.43454348  0.95969471  1
  Te  Te159  1  0.22757331  0.76315581  0.25985032  1
  Te  Te160  1  0.27082361  0.73298884  0.57752298  1
  Te  Te161  1  0.23586282  0.75875052  0.94777376  1
  Te  Te162  1  0.58700184  0.07655665  0.25280827  1
  Te  Te163  1  0.57110220  0.09674659  0.57861565  1
  Te  Te164  1  0.57655259  0.09036859  0.91846544  1
  Te  Te165  1  0.54131717  0.37717383  0.20826592  1
  Te  Te166  1  0.54816738  0.42452844  0.58013808  1
  Te  Te167  1  0.57377918  0.44195760  0.92128384  1
  Te  Te168  1  0.55596467  0.75444927  0.24506420  1
  Te  Te169  1  0.53738030  0.72223586  0.55976695  1
  Te  Te170  1  0.56362641  0.75413248  0.89961009  1
  Te  Te171  1  0.93966743  0.11508475  0.22745924  1
  Te  Te172  1  0.91554488  0.08994340  0.59627912  1
  Te  Te173  1  0.94586035  0.10362600  0.92509011  1
  Te  Te174  1  0.90979258  0.41845616  0.27622233  1
  Te  Te175  1  0.93644641  0.42390089  0.60266163  1
  Te  Te176  1  0.92353754  0.40470730  0.94365838  1
  Te  Te177  1  0.92601582  0.75650273  0.24956611  1
  Te  Te178  1  0.90822239  0.74379645  0.60711895  1
  Te  Te179  1  0.91821811  0.74211139  0.92747345  1
