# generated using pymatgen
data_In2Te3
_symmetry_space_group_name_H-M   'P 1'
_cell_length_a   18.95018951
_cell_length_b   18.96728576
_cell_length_c   18.94014596
_cell_angle_alpha   90.00725139
_cell_angle_beta   89.90496814
_cell_angle_gamma   89.84646392
_symmetry_Int_Tables_number   1
_chemical_formula_structural   In2Te3
_chemical_formula_sum   'In72 Te108'
_cell_volume   6807.69211228
_cell_formula_units_Z   36
loop_
 _symmetry_equiv_pos_site_id
 _symmetry_equiv_pos_as_xyz
  1  'x, y, z'
loop_
 _atom_site_type_symbol
 _atom_site_label
 _atom_site_symmetry_multiplicity
 _atom_site_fract_x
 _atom_site_fract_y
 _atom_site_fract_z
 _atom_site_occupancy
  In  In0  1  0.66094101  0.50298253  0.18417587  1
  In  In1  1  -0.00794284  0.50989352  0.83820036  1
  In  In2  1  0.03346575  0.15297444  0.15733489  1
  In  In3  1  0.82285073  0.34233506  0.16876450  1
  In  In4  1  0.34057639  0.66302371  0.00812304  1
  In  In5  1  0.46694055  0.65252541  0.53902543  1
  In  In6  1  0.18866222  0.16640953  0.67429336  1
  In  In7  1  0.18374898  0.50939821  0.35736719  1
  In  In8  1  0.66816565  0.69515371  -0.00866080  1
  In  In9  1  0.83271050  0.48874436  0.33861775  1
  In  In10  1  0.48829317  0.34513527  0.52145183  1
  In  In11  1  0.16441798  0.32412619  0.50612792  1
  In  In12  1  0.33313480  0.49512517  0.16062435  1
  In  In13  1  0.18273544  0.52551457  0.72305763  1
  In  In14  1  0.32349863  0.65918130  0.37499083  1
  In  In15  1  0.48774907  0.67020364  0.81703272  1
  In  In16  1  0.85229383  0.84466006  0.68614396  1
  In  In17  1  0.14109706  0.82240231  0.35149359  1
  In  In18  1  0.65556050  0.48684224  0.82644345  1
  In  In19  1  0.84703018  -0.01657030  0.16132869  1
  In  In20  1  0.86847236  0.11857849  0.65814969  1
  In  In21  1  0.33463760  0.83426623  0.82868970  1
  In  In22  1  0.49514102  0.17081729  0.33111077  1
  In  In23  1  0.03554756  0.65872544  -0.03344237  1
  In  In24  1  0.82200236  0.16233906  0.34057582  1
  In  In25  1  0.47361562  0.15643623  0.67657577  1
  In  In26  1  0.49629728  0.67227908  0.17590456  1
  In  In27  1  0.65626109  0.83587775  0.49279061  1
  In  In28  1  0.32125317  0.84499407  0.16133680  1
  In  In29  1  0.69966766  0.64179507  0.63077229  1
  In  In30  1  0.01493832  0.69501842  0.69847477  1
  In  In31  1  0.32579697  0.35097881  0.67574436  1
  In  In32  1  0.34941559  0.33304193  0.32828371  1
  In  In33  1  0.50585673  0.15698736  -0.01151921  1
  In  In34  1  0.66150762  0.16704104  0.49341034  1
  In  In35  1  0.67538891  0.65048954  0.34702282  1
  In  In36  1  0.85394113  0.84017527  0.34198436  1
  In  In37  1  -0.03646992  0.32692291  0.33202633  1
  In  In38  1  0.48856921  0.00616861  0.82860250  1
  In  In39  1  0.45993950  0.32924517  0.84056809  1
  In  In40  1  0.66581865  0.34549930  0.65297295  1
  In  In41  1  0.16140196  -0.03519542  0.52923260  1
  In  In42  1  0.84019783  0.66949176  0.84013102  1
  In  In43  1  0.81060347  0.32553733  0.48815770  1
  In  In44  1  0.30762561  0.84367341  0.53282232  1
  In  In45  1  0.33948630  -0.00962385  0.67691341  1
  In  In46  1  0.14871513  0.84631574  -0.04385878  1
  In  In47  1  -0.00529857  0.31836296  0.66939538  1
  In  In48  1  -0.00336273  0.67349097  0.35790319  1
  In  In49  1  0.65197026  0.87540102  0.12174950  1
  In  In50  1  0.85216665  0.83172765  -0.01544757  1
  In  In51  1  0.33638428  0.01781907  0.32258226  1
  In  In52  1  0.00242983  -0.00930206  0.35021680  1
  In  In53  1  0.85615900  0.50596930  0.01300938  1
  In  In54  1  0.66469708  0.02219312  0.32998728  1
  In  In55  1  0.20157336  0.14379665  -0.03088520  1
  In  In56  1  0.68845453  0.18066346  0.81352279  1
  In  In57  1  -0.00038526  0.14224435  0.83805405  1
  In  In58  1  -0.00108446  0.49828555  0.52009971  1
  In  In59  1  0.16106044  0.33288712  0.12417717  1
  In  In60  1  0.18797024  0.36443874  0.87683129  1
  In  In61  1  -0.00956021  0.33248145  -0.00010647  1
  In  In62  1  0.82546167  0.16518361  -0.01508197  1
  In  In63  1  0.17512880  0.15583841  0.32861686  1
  In  In64  1  0.47560723  0.49999064  -0.00509951  1
  In  In65  1  0.50287850  0.47832480  0.34965826  1
  In  In66  1  0.66449514  0.00803472  0.67556975  1
  In  In67  1  0.67179009  0.17742515  0.15797657  1
  In  In68  1  0.49840851  0.83569405  0.32675331  1
  In  In69  1  0.17652895  -0.00173806  0.16546615  1
  In  In70  1  0.17004458  0.66433879  0.16662652  1
  In  In71  1  0.66176775  0.84586646  0.84179772  1
  Te  Te72  1  0.09643438  0.06653562  0.05394935  1
  Te  Te73  1  0.10232426  0.07127595  0.42924071  1
  Te  Te74  1  0.09633268  0.07839684  0.74655370  1
  Te  Te75  1  0.07887481  0.43407689  0.05946537  1
  Te  Te76  1  0.06861946  0.41065222  0.41420576  1
  Te  Te77  1  0.07726893  0.40211289  0.76465425  1
  Te  Te78  1  0.09788987  0.75468892  0.07178349  1
  Te  Te79  1  0.08044844  0.74346202  0.45689993  1
  Te  Te80  1  0.13197396  0.79001329  0.71602917  1
  Te  Te81  1  0.42666212  0.04166199  0.04038846  1
  Te  Te82  1  0.41820302  0.08494469  0.42147735  1
  Te  Te83  1  0.37851192  0.10298152  0.78271377  1
  Te  Te84  1  0.43605232  0.40814042  0.10286785  1
  Te  Te85  1  0.38985791  0.43150324  0.43731997  1
  Te  Te86  1  0.43727284  0.43099739  0.73367034  1
  Te  Te87  1  0.42429377  0.76583882  0.08096246  1
  Te  Te88  1  0.41699287  0.76364483  0.43304955  1
  Te  Te89  1  0.40990517  0.75691942  0.72572350  1
  Te  Te90  1  0.75206514  0.07291346  0.08246034  1
  Te  Te91  1  0.76204420  0.06436886  0.43897501  1
  Te  Te92  1  0.77435250  0.06353688  0.76321705  1
  Te  Te93  1  0.73943810  0.42761862  0.07702632  1
  Te  Te94  1  0.72432117  0.42928464  0.42265779  1
  Te  Te95  1  0.75417989  0.42041280  0.74202349  1
  Te  Te96  1  0.75454582  0.76813461  0.08938255  1
  Te  Te97  1  0.75956728  0.74989288  0.42307274  1
  Te  Te98  1  0.74404314  0.74981372  0.75358315  1
  Te  Te99  1  0.08370621  0.25711785  0.25694399  1
  Te  Te100  1  0.07750413  0.22653287  0.58272602  1
  Te  Te101  1  0.08836535  0.24637687  0.92224237  1
  Te  Te102  1  0.08907807  0.58567124  0.26571370  1
  Te  Te103  1  0.07700197  0.57550310  0.62071294  1
  Te  Te104  1  0.11884910  0.58671348  0.86046758  1
  Te  Te105  1  0.07971843  0.91224635  0.24455559  1
  Te  Te106  1  0.05759700  0.90826516  0.62316950  1
  Te  Te107  1  0.03891748  0.90673509  0.87804135  1
  Te  Te108  1  0.41500647  0.24522936  0.23203887  1
  Te  Te109  1  0.39245046  0.24627034  0.58567797  1
  Te  Te110  1  0.39281827  0.24531994  0.94124752  1
  Te  Te111  1  0.40613190  0.58501116  0.26175360  1
  Te  Te112  1  0.40423350  0.55545561  0.63046060  1
  Te  Te113  1  0.39048864  0.57056026  0.88814525  1
  Te  Te114  1  0.42439795  0.92924075  0.23360690  1
  Te  Te115  1  0.42437230  0.91449473  0.58478538  1
  Te  Te116  1  0.41362703  0.92011773  0.92556026  1
  Te  Te117  1  0.73818515  0.26374317  0.26719269  1
  Te  Te118  1  0.75689954  0.22467528  0.59640504  1
  Te  Te119  1  0.74240917  0.26551603  0.91998121  1
  Te  Te120  1  0.76868516  0.59100672  0.24326622  1
  Te  Te121  1  0.74791888  0.55001737  0.52842461  1
  Te  Te122  1  0.74427649  0.58341788  0.92217999  1
  Te  Te123  1  0.74386227  0.91788517  0.25313472  1
  Te  Te124  1  0.74455958  0.90995775  0.59172326  1
  Te  Te125  1  0.76001832  0.92300069  0.91649533  1
  Te  Te126  1  0.26261300  0.25022964  0.05779426  1
  Te  Te127  1  0.25907545  0.24560203  0.41722354  1
  Te  Te128  1  0.24597350  0.26825648  0.77328755  1
  Te  Te129  1  0.23802752  0.56966034  0.06927734  1
  Te  Te130  1  0.22792312  0.59719529  0.46539093  1
  Te  Te131  1  0.29227225  0.62855276  0.70418296  1
  Te  Te132  1  0.24517517  0.91882381  0.05513159  1
  Te  Te133  1  0.25124185  0.91457861  0.40164888  1
  Te  Te134  1  0.23091486  0.92536324  0.76235099  1
  Te  Te135  1  0.59481151  0.25152827  0.05890044  1
  Te  Te136  1  0.57391409  0.26611352  0.42158767  1
  Te  Te137  1  0.56935442  0.25387412  0.74194315  1
  Te  Te138  1  0.57976185  0.59311345  0.07617648  1
  Te  Te139  1  0.55607380  0.59784627  0.42293545  1
  Te  Te140  1  0.59795744  0.59748570  0.74219378  1
  Te  Te141  1  0.55282730  0.95140331  0.04741174  1
  Te  Te142  1  0.57231887  0.93536040  0.41460290  1
  Te  Te143  1  0.56889356  0.91044733  0.73988586  1
  Te  Te144  1  0.91782325  0.24366687  0.10310668  1
  Te  Te145  1  0.91940693  0.22778724  0.43689770  1
  Te  Te146  1  0.90724531  0.23214542  0.75667618  1
  Te  Te147  1  0.93291567  0.61772982  0.06457890  1
  Te  Te148  1  0.90238359  0.58186548  0.43677788  1
  Te  Te149  1  0.90679198  0.58290431  0.73742451  1
  Te  Te150  1  0.93830972  0.90433208  0.07998078  1
  Te  Te151  1  0.92707146  0.91173189  0.44967678  1
  Te  Te152  1  0.95901538  0.93172429  0.74623968  1
  Te  Te153  1  0.26683382  0.10655926  0.21785178  1
  Te  Te154  1  0.25863085  0.07214971  0.57669599  1
  Te  Te155  1  0.24133056  0.04625752  0.86491860  1
  Te  Te156  1  0.23605999  0.41235863  0.24713307  1
  Te  Te157  1  0.21863986  0.42628087  0.60098248  1
  Te  Te158  1  0.30916103  0.43766130  0.90964939  1
  Te  Te159  1  0.25960623  0.74640112  0.25951227  1
  Te  Te160  1  0.23213223  0.74128552  0.60645437  1
  Te  Te161  1  0.25036980  0.73910740  0.91234206  1
  Te  Te162  1  0.57343585  0.08584273  0.22939285  1
  Te  Te163  1  0.57067133  0.08364882  0.58264946  1
  Te  Te164  1  0.60207844  0.08388068  0.89199500  1
  Te  Te165  1  0.56451096  0.40625984  0.23822895  1
  Te  Te166  1  0.58374896  0.44062587  0.57813901  1
  Te  Te167  1  0.56725003  0.40610101  0.91800370  1
  Te  Te168  1  0.60068942  0.75072796  0.25243601  1
  Te  Te169  1  0.58765211  0.73521141  0.58355514  1
  Te  Te170  1  0.55736644  0.76323351  0.91702072  1
  Te  Te171  1  0.92508893  0.08964289  0.25359737  1
  Te  Te172  1  0.94584222  0.01735713  0.58310913  1
  Te  Te173  1  0.92412073  0.06743962  0.93951145  1
  Te  Te174  1  0.92726982  0.43341258  0.23035664  1
  Te  Te175  1  0.90113482  0.40272911  0.58512216  1
  Te  Te176  1  0.89958467  0.40822688  0.90557926  1
  Te  Te177  1  0.93404668  0.75597933  0.25437933  1
  Te  Te178  1  0.91241085  0.73870623  0.60403025  1
  Te  Te179  1  0.95317511  0.75966425  0.88465366  1
