# generated using pymatgen
data_In2Te3
_symmetry_space_group_name_H-M   'P 1'
_cell_length_a   19.00684383
_cell_length_b   18.96237100
_cell_length_c   18.97494707
_cell_angle_alpha   89.87100762
_cell_angle_beta   90.04963977
_cell_angle_gamma   90.27416345
_symmetry_Int_Tables_number   1
_chemical_formula_structural   In2Te3
_chemical_formula_sum   'In72 Te108'
_cell_volume   6838.75408270
_cell_formula_units_Z   36
loop_
 _symmetry_equiv_pos_site_id
 _symmetry_equiv_pos_as_xyz
  1  'x, y, z'
loop_
 _atom_site_type_symbol
 _atom_site_label
 _atom_site_symmetry_multiplicity
 _atom_site_fract_x
 _atom_site_fract_y
 _atom_site_fract_z
 _atom_site_occupancy
  In  In0  1  0.51990462  0.63904166  0.16659551  1
  In  In1  1  0.83579932  0.66399548  0.81385453  1
  In  In2  1  0.49402344  0.67577005  0.50078851  1
  In  In3  1  0.48155053  0.82408940  0.67180581  1
  In  In4  1  0.81072571  0.36011813  0.83681207  1
  In  In5  1  0.19435162  0.13810097  0.35695055  1
  In  In6  1  0.83830136  0.50794206  -0.00472362  1
  In  In7  1  0.65950002  0.83968032  0.83725425  1
  In  In8  1  0.67208876  0.00874639  0.34216419  1
  In  In9  1  0.67840030  0.85410308  0.48794763  1
  In  In10  1  0.33359798  0.81664822  0.15586138  1
  In  In11  1  0.66130170  0.15988366  0.16848906  1
  In  In12  1  0.66821462  0.83948480  0.14126262  1
  In  In13  1  0.81287544  0.81445801  0.31162947  1
  In  In14  1  0.84304178  -0.02813083  0.81937100  1
  In  In15  1  0.35258490  0.63158530  0.69748682  1
  In  In16  1  0.01118815  0.63850190  0.34633385  1
  In  In17  1  0.49991601  0.49995565  0.33253630  1
  In  In18  1  0.32427217  0.01817405  -0.00692625  1
  In  In19  1  0.50537995  0.35182682  0.17943891  1
  In  In20  1  0.15439267  0.02787132  0.81909774  1
  In  In21  1  0.34170786  0.34708511  0.01820757  1
  In  In22  1  0.17131290  0.66413060  0.14643123  1
  In  In23  1  0.16069870  0.49866805  -0.00505357  1
  In  In24  1  0.86111857  0.64661721  0.59892107  1
  In  In25  1  0.16375918  -0.00995412  0.52917932  1
  In  In26  1  0.30214055  0.84629460  0.85361335  1
  In  In27  1  0.82697119  0.79363202  -0.01629444  1
  In  In28  1  0.67227583  -0.00259572  0.66643300  1
  In  In29  1  0.00084984  0.82667416  0.17684378  1
  In  In30  1  0.31906711  0.80598963  0.48850099  1
  In  In31  1  0.87265922  0.00108356  0.50456751  1
  In  In32  1  0.34198488  0.48382490  0.50597033  1
  In  In33  1  0.67306491  0.64495348  0.66392200  1
  In  In34  1  0.14854252  0.82378381  0.33406607  1
  In  In35  1  0.83903566  0.14273752  0.31954907  1
  In  In36  1  0.64848403  0.65573816  0.33332503  1
  In  In37  1  0.34682439  -0.00893042  0.30857161  1
  In  In38  1  0.00036186  0.51774795  0.52646876  1
  In  In39  1  0.80931346  0.17194298  0.65965763  1
  In  In40  1  0.19581918  0.47637460  0.33614042  1
  In  In41  1  0.18126733  0.32171553  0.82546151  1
  In  In42  1  0.36283303  0.03478669  0.66801883  1
  In  In43  1  0.80922573  0.36793725  0.45788288  1
  In  In44  1  0.65081017  0.66229061  0.00381703  1
  In  In45  1  0.16101582  0.83447882  0.66969228  1
  In  In46  1  0.51244849  0.00219913  0.49709552  1
  In  In47  1  0.84364191  0.17395009  -0.01296799  1
  In  In48  1  0.64900348  0.19969481  0.49021064  1
  In  In49  1  0.65914579  0.04062990  -0.01053502  1
  In  In50  1  0.01350650  -0.00074665  0.33996399  1
  In  In51  1  0.16685519  0.48113436  0.65574866  1
  In  In52  1  0.46952562  0.26993854  0.73261169  1
  In  In53  1  0.00670329  0.33274011  0.32669697  1
  In  In54  1  0.00631966  0.49324283  0.13781201  1
  In  In55  1  0.65730083  0.36299130  -0.01397433  1
  In  In56  1  0.18390841  0.33649783  0.17836277  1
  In  In57  1  -0.02319959  0.18146284  0.53577380  1
  In  In58  1  0.17626721  0.17864615  -0.02011654  1
  In  In59  1  0.48868852  0.16758783  -0.01282083  1
  In  In60  1  -0.01168527  0.33734481  0.67878033  1
  In  In61  1  0.82150380  0.34022443  0.19342530  1
  In  In62  1  0.16938966  0.63836573  0.51216065  1
  In  In63  1  0.15799262  0.65374891  0.84490334  1
  In  In64  1  0.49814695  0.20252963  0.34673937  1
  In  In65  1  0.16485993  0.82284624  -0.01268373  1
  In  In66  1  0.61691915  0.49926383  0.83001970  1
  In  In67  1  -0.01293830  -0.01355304  0.00012379  1
  In  In68  1  0.34215496  0.19334516  0.51209715  1
  In  In69  1  0.17833937  0.33670100  0.52149325  1
  In  In70  1  0.48884055  0.84964320  0.01612949  1
  In  In71  1  0.00982445  0.16879766  0.14268418  1
  Te  Te72  1  0.09405420  0.07544830  0.06156032  1
  Te  Te73  1  0.07279728  0.09656355  0.44173788  1
  Te  Te74  1  0.06715700  0.06627980  0.71151153  1
  Te  Te75  1  0.08731475  0.38481622  0.07376671  1
  Te  Te76  1  0.08216409  0.42179684  0.43164515  1
  Te  Te77  1  0.07747931  0.42310566  0.76266468  1
  Te  Te78  1  0.06713570  0.74159125  0.06998295  1
  Te  Te79  1  0.07973438  0.73799522  0.43831973  1
  Te  Te80  1  0.08807029  0.76516889  0.77664691  1
  Te  Te81  1  0.41971581  0.08146173  0.08313053  1
  Te  Te82  1  0.40998648  0.08497911  0.42248013  1
  Te  Te83  1  0.45398854  0.11663663  0.74573125  1
  Te  Te84  1  0.44682643  0.43826260  0.07318317  1
  Te  Te85  1  0.42600587  0.40105402  0.41842916  1
  Te  Te86  1  0.43961357  0.42306217  0.76532471  1
  Te  Te87  1  0.42512953  0.72686605  0.07720653  1
  Te  Te88  1  0.41701122  0.74718507  0.39986849  1
  Te  Te89  1  0.39845379  0.75283982  0.77546510  1
  Te  Te90  1  0.76675153  0.08861073  0.08726384  1
  Te  Te91  1  0.75637904  0.08721414  0.44264240  1
  Te  Te92  1  0.74846556  0.08092421  0.76647304  1
  Te  Te93  1  0.75046867  0.42491184  0.08879353  1
  Te  Te94  1  0.73913577  0.44806715  0.35599357  1
  Te  Te95  1  0.71071535  0.41942652  0.74264602  1
  Te  Te96  1  0.75403841  0.72291562  0.09725733  1
  Te  Te97  1  0.74628428  0.73681651  0.42255558  1
  Te  Te98  1  0.74077051  0.75950520  0.74121494  1
  Te  Te99  1  0.09211610  0.23007887  0.25701833  1
  Te  Te100  1  0.09120901  0.24945243  0.61058029  1
  Te  Te101  1  0.07855095  0.23865839  0.89062688  1
  Te  Te102  1  0.09959517  0.56294274  0.24944943  1
  Te  Te103  1  0.07634604  0.60314842  0.62535615  1
  Te  Te104  1  0.05982243  0.57378120  0.92015549  1
  Te  Te105  1  0.09783807  0.92739013  0.23592637  1
  Te  Te106  1  0.06515615  0.88977195  0.57161466  1
  Te  Te107  1  0.08523743  0.92202040  0.90432319  1
  Te  Te108  1  0.41429700  0.25437445  0.24009165  1
  Te  Te109  1  0.45422871  0.26183559  0.57921403  1
  Te  Te110  1  0.40328004  0.26271819  0.91172944  1
  Te  Te111  1  0.41341839  0.58413046  0.25077315  1
  Te  Te112  1  0.43633969  0.56707153  0.59157060  1
  Te  Te113  1  0.47143727  0.53447479  0.86514233  1
  Te  Te114  1  0.42816952  0.90027620  0.23161022  1
  Te  Te115  1  0.40739468  0.91283703  0.57052327  1
  Te  Te116  1  0.41607778  0.92964461  0.90980351  1
  Te  Te117  1  0.73535775  0.24262669  0.27224371  1
  Te  Te118  1  0.74932591  0.28037711  0.57030550  1
  Te  Te119  1  0.73616950  0.25290095  0.91669730  1
  Te  Te120  1  0.71893143  0.55897627  0.24727536  1
  Te  Te121  1  0.74531682  0.55799845  0.57381916  1
  Te  Te122  1  0.73564808  0.58439119  0.90434481  1
  Te  Te123  1  0.74850709  0.92991726  0.23892364  1
  Te  Te124  1  0.77274101  0.91826295  0.58672354  1
  Te  Te125  1  0.74659946  0.91972481  0.93419924  1
  Te  Te126  1  0.26042675  0.23962758  0.08999446  1
  Te  Te127  1  0.25520191  0.26603589  0.40982183  1
  Te  Te128  1  0.26186988  0.26969185  0.71620764  1
  Te  Te129  1  0.25668275  0.56376750  0.08605474  1
  Te  Te130  1  0.26963255  0.58332442  0.41540546  1
  Te  Te131  1  0.24487112  0.55538018  0.76574377  1
  Te  Te132  1  0.24802415  0.91203599  0.07551443  1
  Te  Te133  1  0.24001737  0.91997507  0.41645330  1
  Te  Te134  1  0.26227819  0.93131529  0.73326522  1
  Te  Te135  1  0.58828093  0.25728959  0.08076165  1
  Te  Te136  1  0.57344287  0.30644382  0.42145963  1
  Te  Te137  1  0.62082561  0.28941560  0.73133537  1
  Te  Te138  1  0.57063213  0.54923930  0.05865249  1
  Te  Te139  1  0.58336559  0.56981459  0.44046631  1
  Te  Te140  1  0.56279671  0.62390743  0.75911005  1
  Te  Te141  1  0.58087538  0.94947218  0.08462047  1
  Te  Te142  1  0.57136522  0.90697609  0.39555418  1
  Te  Te143  1  0.56832395  0.92283409  0.74889597  1
  Te  Te144  1  0.90838352  0.26625763  0.08906623  1
  Te  Te145  1  0.91026478  0.24876074  0.41058439  1
  Te  Te146  1  0.89169274  0.25249884  0.75744160  1
  Te  Te147  1  0.91926298  0.59542221  0.08200247  1
  Te  Te148  1  0.90567908  0.59154843  0.43966240  1
  Te  Te149  1  0.90297819  0.57383454  0.72054563  1
  Te  Te150  1  0.90295575  0.89007293  0.08064557  1
  Te  Te151  1  0.91031687  0.90309753  0.39633777  1
  Te  Te152  1  0.91001791  0.86202489  0.74823453  1
  Te  Te153  1  0.25175621  0.07691229  0.23913726  1
  Te  Te154  1  0.25076969  0.10009005  0.59040953  1
  Te  Te155  1  0.26686903  0.10457533  0.88146427  1
  Te  Te156  1  0.28460649  0.43042577  0.22987596  1
  Te  Te157  1  0.28719046  0.38766095  0.62181360  1
  Te  Te158  1  0.25980409  0.41920181  0.91266342  1
  Te  Te159  1  0.24455465  0.73963429  0.25606258  1
  Te  Te160  1  0.26242870  0.72555935  0.60433737  1
  Te  Te161  1  0.26295049  0.72255206  0.93303733  1
  Te  Te162  1  0.57014163  0.09134191  0.26782141  1
  Te  Te163  1  0.58879979  0.09640099  0.58623814  1
  Te  Te164  1  0.57135765  0.09689965  0.88721800  1
  Te  Te165  1  0.61138163  0.43713719  0.24781119  1
  Te  Te166  1  0.53577061  0.38458836  0.64373375  1
  Te  Te167  1  0.53799687  0.37627471  0.89400992  1
  Te  Te168  1  0.58567125  0.75742293  0.23828083  1
  Te  Te169  1  0.59065114  0.76777211  0.58124397  1
  Te  Te170  1  0.56569904  0.75669809  0.92206774  1
  Te  Te171  1  0.93212948  0.06809695  0.22960669  1
  Te  Te172  1  0.93181938  0.06891418  0.63253791  1
  Te  Te173  1  0.92133552  0.07822315  0.89938205  1
  Te  Te174  1  0.92371107  0.43534566  0.25535162  1
  Te  Te175  1  0.90868081  0.40624684  0.57089503  1
  Te  Te176  1  0.92066606  0.42528510  0.90782650  1
  Te  Te177  1  0.92101791  0.72473704  0.25579598  1
  Te  Te178  1  0.91132605  0.78358646  0.61455158  1
  Te  Te179  1  0.92967251  0.75698462  0.88512790  1
