# generated using pymatgen
data_In2Te3
_symmetry_space_group_name_H-M   'P 1'
_cell_length_a   18.78669834
_cell_length_b   18.80089597
_cell_length_c   18.79577029
_cell_angle_alpha   90.09999041
_cell_angle_beta   89.99065134
_cell_angle_gamma   90.01743425
_symmetry_Int_Tables_number   1
_chemical_formula_structural   In2Te3
_chemical_formula_sum   'In72 Te108'
_cell_volume   6638.78264331
_cell_formula_units_Z   36
loop_
 _symmetry_equiv_pos_site_id
 _symmetry_equiv_pos_as_xyz
  1  'x, y, z'
loop_
 _atom_site_type_symbol
 _atom_site_label
 _atom_site_symmetry_multiplicity
 _atom_site_fract_x
 _atom_site_fract_y
 _atom_site_fract_z
 _atom_site_occupancy
  In  In0  1  0.66419753  0.31825987  -0.00155821  1
  In  In1  1  0.30983399  0.82055996  0.81853614  1
  In  In2  1  -0.00962611  0.30038557  0.01231768  1
  In  In3  1  0.18346989  -0.02450435  0.47820068  1
  In  In4  1  0.49875525  0.00257876  0.16875062  1
  In  In5  1  0.48815998  0.65220843  0.18156989  1
  In  In6  1  0.00090060  0.68176687  -0.00977493  1
  In  In7  1  0.14546333  0.15820155  0.68898729  1
  In  In8  1  0.86017234  0.50074194  0.33755341  1
  In  In9  1  0.15134586  0.00968507  0.16222424  1
  In  In10  1  0.01721965  0.68831674  0.34179997  1
  In  In11  1  0.65999154  0.36530220  0.67529306  1
  In  In12  1  0.49901218  0.34891144  0.85319125  1
  In  In13  1  0.84942806  -0.00092010  0.16386144  1
  In  In14  1  0.51912439  0.00450751  0.84411364  1
  In  In15  1  0.80714537  0.67809451  0.14552193  1
  In  In16  1  0.50361363  -0.00233547  0.50097442  1
  In  In17  1  0.66308077  0.48760290  0.16669840  1
  In  In18  1  0.67778170  0.00897716  -0.00860007  1
  In  In19  1  0.31579909  0.15283614  0.84966766  1
  In  In20  1  0.64018009  0.17026098  0.16086803  1
  In  In21  1  0.48499196  0.16570959  0.31982729  1
  In  In22  1  -0.00347273  0.86211423  0.16559159  1
  In  In23  1  0.32844256  -0.02783303  0.66259254  1
  In  In24  1  0.83957133  0.84809804  0.66572392  1
  In  In25  1  -0.00649387  0.48410744  0.17370469  1
  In  In26  1  0.02924894  0.30261072  0.30683499  1
  In  In27  1  0.34648018  0.35846917  0.35336720  1
  In  In28  1  0.50500816  0.82884759  0.33710190  1
  In  In29  1  0.49005222  0.17796364  0.65603149  1
  In  In30  1  0.83516873  0.84867929  0.33308745  1
  In  In31  1  0.67822871  0.67977934  0.01418876  1
  In  In32  1  0.48277461  0.83912085  0.01360139  1
  In  In33  1  0.18826773  0.50591393  0.36187967  1
  In  In34  1  0.69147483  0.16637190  0.83983265  1
  In  In35  1  0.84215613  0.35052222  0.49908125  1
  In  In36  1  0.68416259  0.84035185  0.85357842  1
  In  In37  1  0.66850558  0.16176473  0.49313166  1
  In  In38  1  0.18651498  0.34649748  0.48640412  1
  In  In39  1  0.48974605  0.65979065  0.50344209  1
  In  In40  1  0.49163601  0.51605662  0.64464976  1
  In  In41  1  0.33949259  0.66066614  0.65426695  1
  In  In42  1  0.19675913  0.67177532  0.18785274  1
  In  In43  1  0.16853938  0.82144739  -0.01425858  1
  In  In44  1  0.31468943  0.01382937  0.00757723  1
  In  In45  1  0.64833742  0.66813623  0.34448049  1
  In  In46  1  0.31971404  0.51513265  0.82259483  1
  In  In47  1  0.65479744  0.66185011  0.65585329  1
  In  In48  1  0.16960620  0.83205714  0.66610086  1
  In  In49  1  0.49937281  0.85639819  0.64324639  1
  In  In50  1  0.83731200  0.15358243  0.31922699  1
  In  In51  1  0.84381337  -0.01299499  0.50311384  1
  In  In52  1  0.01523219  0.34199456  0.66918568  1
  In  In53  1  0.15131295  0.49115269  -0.00685018  1
  In  In54  1  0.00361300  0.49662336  0.81307943  1
  In  In55  1  0.31957709  0.18305726  0.49653124  1
  In  In56  1  0.81414975  0.34494577  0.82665021  1
  In  In57  1  0.00772370  0.83742156  0.83389098  1
  In  In58  1  0.01646417  0.14100817  0.48129772  1
  In  In59  1  0.30871347  0.34366722  0.64571705  1
  In  In60  1  0.32128269  0.16257693  0.17564689  1
  In  In61  1  0.81210488  0.49341816  -0.00480156  1
  In  In62  1  0.86257649  0.65999166  0.83001023  1
  In  In63  1  0.84277593  0.66398066  0.51781627  1
  In  In64  1  -0.00693683  0.14424122  0.87247194  1
  In  In65  1  0.83207202  0.16165850  0.67822023  1
  In  In66  1  0.34398772  0.49241210  0.17257094  1
  In  In67  1  0.48116614  0.64356330  0.84323955  1
  In  In68  1  0.00231285  0.84561138  0.49026636  1
  In  In69  1  0.34808482  0.81658379  0.18735168  1
  In  In70  1  0.32466163  0.33424043  0.02343506  1
  In  In71  1  0.65634471  0.34273973  0.33218814  1
  Te  Te72  1  0.06089486  0.10847229  0.09363098  1
  Te  Te73  1  0.12038123  0.08202134  0.39525971  1
  Te  Te74  1  0.05220261  0.06671418  0.75785244  1
  Te  Te75  1  0.08600064  0.39612494  0.09212565  1
  Te  Te76  1  0.07219934  0.40891016  0.40802391  1
  Te  Te77  1  0.11461486  0.42163138  0.74685620  1
  Te  Te78  1  0.08609881  0.74315290  0.10300639  1
  Te  Te79  1  0.10418498  0.74456768  0.44740714  1
  Te  Te80  1  0.09180393  0.74399841  0.75590019  1
  Te  Te81  1  0.42239695  0.09582209  0.07750366  1
  Te  Te82  1  0.40457173  0.08255650  0.41956046  1
  Te  Te83  1  0.41599089  0.07705518  0.74594964  1
  Te  Te84  1  0.43438371  0.41735053  0.08021210  1
  Te  Te85  1  0.43464325  0.45178787  0.42749213  1
  Te  Te86  1  0.41566971  0.41265487  0.74103986  1
  Te  Te87  1  0.40268038  0.72685949  0.07511973  1
  Te  Te88  1  0.41172706  0.72812340  0.39706030  1
  Te  Te89  1  0.43242091  0.75355891  0.73810734  1
  Te  Te90  1  0.75320447  0.09742575  0.08931800  1
  Te  Te91  1  0.75070642  0.06588210  0.40839635  1
  Te  Te92  1  0.74725403  0.06375042  0.74875926  1
  Te  Te93  1  0.76363099  0.39576947  0.09826002  1
  Te  Te94  1  0.74658623  0.43558292  0.41806230  1
  Te  Te95  1  0.76733821  0.44856244  0.73328328  1
  Te  Te96  1  0.75945179  0.79293279  0.06674907  1
  Te  Te97  1  0.75883272  0.74592859  0.41683892  1
  Te  Te98  1  0.74921320  0.74290736  0.75066862  1
  Te  Te99  1  0.09906517  0.22359260  0.19744893  1
  Te  Te100  1  0.08988451  0.24770799  0.56918211  1
  Te  Te101  1  0.08528120  0.25363332  0.90948108  1
  Te  Te102  1  0.08717065  0.57655778  0.25308817  1
  Te  Te103  1  0.02180874  0.55937178  0.59032686  1
  Te  Te104  1  0.08732894  0.59481439  0.90129563  1
  Te  Te105  1  0.09844631  0.90997144  0.26001111  1
  Te  Te106  1  0.08600174  0.93183057  0.58613806  1
  Te  Te107  1  0.07326428  0.92371590  0.93931173  1
  Te  Te108  1  0.40895503  0.27075080  0.24298337  1
  Te  Te109  1  0.41996772  0.27690952  0.56366660  1
  Te  Te110  1  0.41056185  0.24705522  0.92383423  1
  Te  Te111  1  0.38805291  0.59373334  0.27385291  1
  Te  Te112  1  0.37219667  0.53949567  0.53752086  1
  Te  Te113  1  0.41116258  0.55223217  0.93337546  1
  Te  Te114  1  0.41070040  0.93076182  0.26781837  1
  Te  Te115  1  0.38809037  0.89504606  0.54482225  1
  Te  Te116  1  0.40625837  0.92051881  0.90789207  1
  Te  Te117  1  0.74205676  0.24820624  0.24790032  1
  Te  Te118  1  0.75154969  0.25682420  0.58486202  1
  Te  Te119  1  0.78275569  0.24213905  0.93474460  1
  Te  Te120  1  0.75682794  0.58296577  0.25592761  1
  Te  Te121  1  0.74044727  0.57332135  0.57397406  1
  Te  Te122  1  0.74534702  0.59331553  0.90468009  1
  Te  Te123  1  0.74883293  0.91671843  0.23621254  1
  Te  Te124  1  0.74173416  0.90714617  0.57251254  1
  Te  Te125  1  0.77888109  0.95209461  0.89344024  1
  Te  Te126  1  0.22788329  0.23680012  0.08464624  1
  Te  Te127  1  0.24182372  0.24795256  0.38367937  1
  Te  Te128  1  0.24829829  0.25096774  0.75294344  1
  Te  Te129  1  0.24608826  0.57227203  0.08272019  1
  Te  Te130  1  0.24804267  0.60011736  0.45767109  1
  Te  Te131  1  0.23352106  0.59427145  0.73247324  1
  Te  Te132  1  0.25653969  0.90054013  0.09147466  1
  Te  Te133  1  0.26923366  0.87711629  0.41237848  1
  Te  Te134  1  0.22784530  0.93784380  0.77115216  1
  Te  Te135  1  0.56016835  0.27569441  0.09511388  1
  Te  Te136  1  0.56938986  0.24937730  0.41801556  1
  Te  Te137  1  0.58534455  0.24936801  0.75376834  1
  Te  Te138  1  0.58097612  0.58176227  0.07891867  1
  Te  Te139  1  0.56255304  0.56552746  0.40914244  1
  Te  Te140  1  0.58226195  0.57014337  0.75576933  1
  Te  Te141  1  0.59217167  0.91771165  0.08274150  1
  Te  Te142  1  0.59374353  0.91446035  0.41953122  1
  Te  Te143  1  0.59578492  0.91320920  0.74942859  1
  Te  Te144  1  0.94290440  0.20821784  0.12316876  1
  Te  Te145  1  0.91752443  0.24447018  0.41838555  1
  Te  Te146  1  0.92186957  0.25676989  0.75839581  1
  Te  Te147  1  0.91744967  0.58073126  0.07958772  1
  Te  Te148  1  0.94729131  0.58261263  0.43067150  1
  Te  Te149  1  0.94208139  0.59725580  0.71536621  1
  Te  Te150  1  0.93898588  0.94271234  0.05072553  1
  Te  Te151  1  0.93986241  0.94250995  0.39157855  1
  Te  Te152  1  0.93311230  0.93204678  0.74486437  1
  Te  Te153  1  0.25243445  0.06198935  0.25951950  1
  Te  Te154  1  0.24998208  0.08779678  0.59339627  1
  Te  Te155  1  0.21219225  0.08662330  0.93071247  1
  Te  Te156  1  0.24150738  0.41172430  0.25397736  1
  Te  Te157  1  0.20891231  0.44381985  0.59777070  1
  Te  Te158  1  0.24977071  0.40849767  0.91189018  1
  Te  Te159  1  0.24419778  0.77253500  0.29007413  1
  Te  Te160  1  0.23847007  0.73544231  0.57127943  1
  Te  Te161  1  0.25975537  0.72687211  0.91907469  1
  Te  Te162  1  0.59289372  0.07153057  0.26769563  1
  Te  Te163  1  0.59179913  0.07984077  0.59710748  1
  Te  Te164  1  0.58042649  0.11139203  0.93241401  1
  Te  Te165  1  0.56248656  0.42832746  0.25653303  1
  Te  Te166  1  0.57656741  0.42089496  0.56844202  1
  Te  Te167  1  0.61266746  0.42393157  0.90886285  1
  Te  Te168  1  0.59232964  0.75221286  0.23104626  1
  Te  Te169  1  0.58800694  0.76176527  0.56182355  1
  Te  Te170  1  0.57057267  0.75425885  0.91515460  1
  Te  Te171  1  0.94648795  0.08552684  0.24222721  1
  Te  Te172  1  0.92777688  0.08041026  0.58985544  1
  Te  Te173  1  0.89627401  0.05286735  0.93864546  1
  Te  Te174  1  0.90955838  0.38430620  0.25093452  1
  Te  Te175  1  0.92452866  0.43783181  0.59213353  1
  Te  Te176  1  0.92559276  0.41901465  0.92324452  1
  Te  Te177  1  0.91507433  0.74300362  0.24123542  1
  Te  Te178  1  0.93829935  0.75540458  0.59520741  1
  Te  Te179  1  0.89646968  0.77004072  0.92819353  1
