# generated using pymatgen
data_In2Te3
_symmetry_space_group_name_H-M   'P 1'
_cell_length_a   18.79012850
_cell_length_b   18.78849433
_cell_length_c   18.79472739
_cell_angle_alpha   90.09579710
_cell_angle_beta   89.95004149
_cell_angle_gamma   90.10810934
_symmetry_Int_Tables_number   1
_chemical_formula_structural   In2Te3
_chemical_formula_sum   'In72 Te108'
_cell_volume   6635.23356848
_cell_formula_units_Z   36
loop_
 _symmetry_equiv_pos_site_id
 _symmetry_equiv_pos_as_xyz
  1  'x, y, z'
loop_
 _atom_site_type_symbol
 _atom_site_label
 _atom_site_symmetry_multiplicity
 _atom_site_fract_x
 _atom_site_fract_y
 _atom_site_fract_z
 _atom_site_occupancy
  In  In0  1  0.33482346  0.69371095  0.33553024  1
  In  In1  1  0.16649795  0.80591948  0.01492425  1
  In  In2  1  0.15532114  0.36309617  0.51455100  1
  In  In3  1  0.14299662  0.50068336  0.35049384  1
  In  In4  1  0.50522870  -0.02319798  0.19275648  1
  In  In5  1  0.00294194  0.67785711  0.68254108  1
  In  In6  1  0.36173503  -0.03036383  -0.01618141  1
  In  In7  1  0.68347924  0.84417829  0.16084046  1
  In  In8  1  0.02315674  0.52084488  0.87179178  1
  In  In9  1  0.82981549  0.67877339  0.82754243  1
  In  In10  1  0.15093769  0.35333121  0.84337907  1
  In  In11  1  0.16037556  0.18272951  -0.02110107  1
  In  In12  1  0.35224174  0.16109834  0.83359587  1
  In  In13  1  0.13627912  0.33354611  0.14661396  1
  In  In14  1  0.67563496  0.31886620  -0.01247007  1
  In  In15  1  -0.01918796  0.66496864  0.30747416  1
  In  In16  1  -0.00418707  0.49524619  0.15684500  1
  In  In17  1  0.00253213  0.85373909  0.49083586  1
  In  In18  1  0.51129444  0.31685190  0.82590754  1
  In  In19  1  0.33006814  0.15785816  0.16348528  1
  In  In20  1  0.49904764  0.67133236  0.16378691  1
  In  In21  1  0.51123464  0.79512469  0.67194256  1
  In  In22  1  0.68310810  0.50303702  0.51344345  1
  In  In23  1  0.85163907  0.50450083  0.00451606  1
  In  In24  1  0.18199953  0.82139227  0.64575386  1
  In  In25  1  0.49477355  0.54504757  0.65554794  1
  In  In26  1  0.64519474  -0.00930797  0.66175704  1
  In  In27  1  0.00988130  0.51925077  0.49506821  1
  In  In28  1  0.15471289  0.17804637  0.31919519  1
  In  In29  1  0.49750160  0.51654724  0.01958297  1
  In  In30  1  0.15366211  -0.02221921  0.17393576  1
  In  In31  1  -0.01675618  0.30603871  0.66003867  1
  In  In32  1  0.80752235  0.14402267  0.00422754  1
  In  In33  1  0.52637749  0.14268183  -0.02596637  1
  In  In34  1  0.83916674  0.83519775  0.34760953  1
  In  In35  1  0.36468830  0.00181026  0.67528959  1
  In  In36  1  0.55466503  0.13355229  0.35473234  1
  In  In37  1  0.15823738  -0.00878788  0.51970022  1
  In  In38  1  0.16477111  0.14057928  0.69341171  1
  In  In39  1  0.52318698  0.88241691  0.34217502  1
  In  In40  1  0.67552132  0.65708308  0.33486559  1
  In  In41  1  0.33867951  0.49889594  0.84972447  1
  In  In42  1  0.53362667  0.82123379  -0.03107120  1
  In  In43  1  0.81627188  0.14139644  0.67280946  1
  In  In44  1  0.80489178  0.50719960  0.65398587  1
  In  In45  1  0.18988769  0.51029939  0.69741021  1
  In  In46  1  0.81586288  0.66413883  0.50337634  1
  In  In47  1  0.31083584  0.52511795  0.16191128  1
  In  In48  1  0.83203582  0.32735704  0.17404401  1
  In  In49  1  0.33822531  0.83605280  0.50378733  1
  In  In50  1  0.82000575  0.84828145  0.68345856  1
  In  In51  1  0.32205537  0.67349245  0.00459577  1
  In  In52  1  -0.02147324  -0.01085129  0.01505283  1
  In  In53  1  0.33654760  0.33328210  0.65191344  1
  In  In54  1  -0.01818959  0.01304315  0.31069461  1
  In  In55  1  0.67784537  0.31457739  0.66896050  1
  In  In56  1  0.35666793  0.34755454  0.31416168  1
  In  In57  1  0.82155239  0.32841211  0.48932937  1
  In  In58  1  0.38716952  0.00447624  0.33111524  1
  In  In59  1  0.66180038  0.50560051  0.81080769  1
  In  In60  1  0.52412789  0.48185424  0.34427248  1
  In  In61  1  0.15658927  0.00142667  0.81369511  1
  In  In62  1  0.00165271  0.83853505  0.83140857  1
  In  In63  1  -0.02747645  0.16984433  0.50896591  1
  In  In64  1  -0.03322465  0.15849897  0.14908598  1
  In  In65  1  0.34558582  0.19906211  0.50052175  1
  In  In66  1  0.64656180  0.51099073  0.17814364  1
  In  In67  1  0.80495154  0.85631138  -0.01262121  1
  In  In68  1  0.19864195  0.69046854  0.49843136  1
  In  In69  1  0.17014648  0.82337048  0.31144036  1
  In  In70  1  0.51876536  0.31053231  0.50389179  1
  In  In71  1  0.50528173  0.32709607  0.15577290  1
  Te  Te72  1  0.09715011  0.09270256  0.09235165  1
  Te  Te73  1  0.08364413  0.07866536  0.41394030  1
  Te  Te74  1  0.04837388  0.09367299  0.77055195  1
  Te  Te75  1  0.06395791  0.41644723  0.04910079  1
  Te  Te76  1  0.04973891  0.39439958  0.41060492  1
  Te  Te77  1  0.07139499  0.41841417  0.72899999  1
  Te  Te78  1  0.05593706  0.72085827  0.06498431  1
  Te  Te79  1  0.07694669  0.74142360  0.41586873  1
  Te  Te80  1  0.10795134  0.75094279  0.76332821  1
  Te  Te81  1  0.42822276  0.07404656  0.08078412  1
  Te  Te82  1  0.43804043  0.08601915  0.44996274  1
  Te  Te83  1  0.45472486  0.08830249  0.75593890  1
  Te  Te84  1  0.40419119  0.41984399  0.09190478  1
  Te  Te85  1  0.42301768  0.41129613  0.43547588  1
  Te  Te86  1  0.42575891  0.42114648  0.74687734  1
  Te  Te87  1  0.42937246  0.76568945  0.06901584  1
  Te  Te88  1  0.44062112  0.76625964  0.41472403  1
  Te  Te89  1  0.38734668  0.75640481  0.74311222  1
  Te  Te90  1  0.70732769  0.08271673  0.09415496  1
  Te  Te91  1  0.68515814  0.05015476  0.37152624  1
  Te  Te92  1  0.73636627  0.05319638  0.76929410  1
  Te  Te93  1  0.73647735  0.42404083  0.08166230  1
  Te  Te94  1  0.75234835  0.42930841  0.40671115  1
  Te  Te95  1  0.76305981  0.40372929  0.75958017  1
  Te  Te96  1  0.73230976  0.74730642  0.06008065  1
  Te  Te97  1  0.72896841  0.76540906  0.42963311  1
  Te  Te98  1  0.72494650  0.77950625  0.78432648  1
  Te  Te99  1  0.04869992  0.25359220  0.24332618  1
  Te  Te100  1  0.10268085  0.23492272  0.57904071  1
  Te  Te101  1  0.06111496  0.24522391  0.89124332  1
  Te  Te102  1  0.09519213  0.59099980  0.24018703  1
  Te  Te103  1  0.10182655  0.59949662  0.58930792  1
  Te  Te104  1  0.09431282  0.62431671  0.94823324  1
  Te  Te105  1  0.04990147  0.89112331  0.24353277  1
  Te  Te106  1  0.06597033  0.91822718  0.61574891  1
  Te  Te107  1  0.09247143  0.92407926  0.93355191  1
  Te  Te108  1  0.43050804  0.22690467  0.25798836  1
  Te  Te109  1  0.44435644  0.23329588  0.61350862  1
  Te  Te110  1  0.42409824  0.25177991  0.93425359  1
  Te  Te111  1  0.42943200  0.56882659  0.25550654  1
  Te  Te112  1  0.39338888  0.59736229  0.56622708  1
  Te  Te113  1  0.42822084  0.60386448  0.91772266  1
  Te  Te114  1  0.39585134  0.88230337  0.24379924  1
  Te  Te115  1  0.44165082  0.91085393  0.58207158  1
  Te  Te116  1  0.45790491  0.92082243  0.88038339  1
  Te  Te117  1  0.79099801  0.22315830  0.27121274  1
  Te  Te118  1  0.74091706  0.22291067  0.56506777  1
  Te  Te119  1  0.75763447  0.23747647  0.89701956  1
  Te  Te120  1  0.75921966  0.58590497  0.23691779  1
  Te  Te121  1  0.71949637  0.63311112  0.62159622  1
  Te  Te122  1  0.75203960  0.57743639  0.91103573  1
  Te  Te123  1  0.73891695  0.92434052  0.27565722  1
  Te  Te124  1  0.73853145  0.90979855  0.57582882  1
  Te  Te125  1  0.72471286  0.93896830  0.89256929  1
  Te  Te126  1  0.25266976  0.25683368  0.07847748  1
  Te  Te127  1  0.24509406  0.26897736  0.40785640  1
  Te  Te128  1  0.25250251  0.25748008  0.75530394  1
  Te  Te129  1  0.22521595  0.56521036  0.04588249  1
  Te  Te130  1  0.26051611  0.58097506  0.40898049  1
  Te  Te131  1  0.25432091  0.60565094  0.78840994  1
  Te  Te132  1  0.25773956  0.91414508  0.08623244  1
  Te  Te133  1  0.24109559  0.91410691  0.41528447  1
  Te  Te134  1  0.26054096  0.91310717  0.74315028  1
  Te  Te135  1  0.59900830  0.22914536  0.08490268  1
  Te  Te136  1  0.61780551  0.25712822  0.40960631  1
  Te  Te137  1  0.59837838  0.22249467  0.75392624  1
  Te  Te138  1  0.60503600  0.61377519  0.06927562  1
  Te  Te139  1  0.58095237  0.58902467  0.43599742  1
  Te  Te140  1  0.56537051  0.61484248  0.77051708  1
  Te  Te141  1  0.58538761  0.92126985  0.07295241  1
  Te  Te142  1  0.60178441  0.95254234  0.45510598  1
  Te  Te143  1  0.56700978  0.90500886  0.76098393  1
  Te  Te144  1  0.90432785  0.26025393  0.05825552  1
  Te  Te145  1  0.89100820  0.22643758  0.39811357  1
  Te  Te146  1  0.88853422  0.24482532  0.75421407  1
  Te  Te147  1  0.92609705  0.60745349  0.08387280  1
  Te  Te148  1  0.90061526  0.58008561  0.40764538  1
  Te  Te149  1  0.91513005  0.57257141  0.74798044  1
  Te  Te150  1  0.88378387  0.91631062  0.09953496  1
  Te  Te151  1  0.90346709  0.95109491  0.42883008  1
  Te  Te152  1  0.90243925  0.93125260  0.77459036  1
  Te  Te153  1  0.25503920  0.07105355  0.26671278  1
  Te  Te154  1  0.26358182  0.08688585  0.58091040  1
  Te  Te155  1  0.25894453  0.07304273  0.91864900  1
  Te  Te156  1  0.23509003  0.41254924  0.24710661  1
  Te  Te157  1  0.26480327  0.44682526  0.57882450  1
  Te  Te158  1  0.24852632  0.41648248  0.93469898  1
  Te  Te159  1  0.24419338  0.72930890  0.22437069  1
  Te  Te160  1  0.30555960  0.71628562  0.61659375  1
  Te  Te161  1  0.26816310  0.77727299  0.91240135  1
  Te  Te162  1  0.61497420  0.08222690  0.22213608  1
  Te  Te163  1  0.58579886  0.07365682  0.55174510  1
  Te  Te164  1  0.63930964  0.06938396  0.90926932  1
  Te  Te165  1  0.60356258  0.38461828  0.25765217  1
  Te  Te166  1  0.58600496  0.42179997  0.60110741  1
  Te  Te167  1  0.57566590  0.42537995  0.92148155  1
  Te  Te168  1  0.58477730  0.75793900  0.25617300  1
  Te  Te169  1  0.60061171  0.72455115  0.57840308  1
  Te  Te170  1  0.60721714  0.72863193  0.87670838  1
  Te  Te171  1  0.87068767  0.08471053  0.23794027  1
  Te  Te172  1  0.91414558  0.06372089  0.59079517  1
  Te  Te173  1  0.90546010  0.07053200  0.91802433  1
  Te  Te174  1  0.90751291  0.42665408  0.25405472  1
  Te  Te175  1  0.91199434  0.42244975  0.57795094  1
  Te  Te176  1  0.92513830  0.41778539  0.90888634  1
  Te  Te177  1  0.88725953  0.75170572  0.23488170  1
  Te  Te178  1  0.91738455  0.75403399  0.58169891  1
  Te  Te179  1  0.91467087  0.75753672  0.92552763  1
