# generated using pymatgen
data_In2Te3
_symmetry_space_group_name_H-M   'P 1'
_cell_length_a   18.94758180
_cell_length_b   18.96280574
_cell_length_c   18.97160850
_cell_angle_alpha   89.79159158
_cell_angle_beta   90.03738193
_cell_angle_gamma   90.00294607
_symmetry_Int_Tables_number   1
_chemical_formula_structural   In2Te3
_chemical_formula_sum   'In72 Te108'
_cell_volume   6816.43934689
_cell_formula_units_Z   36
loop_
 _symmetry_equiv_pos_site_id
 _symmetry_equiv_pos_as_xyz
  1  'x, y, z'
loop_
 _atom_site_type_symbol
 _atom_site_label
 _atom_site_symmetry_multiplicity
 _atom_site_fract_x
 _atom_site_fract_y
 _atom_site_fract_z
 _atom_site_occupancy
  In  In0  1  0.01011436  0.81336988  0.50394634  1
  In  In1  1  0.51096390  0.86080060  0.67087113  1
  In  In2  1  0.32881887  0.18108856  0.82678731  1
  In  In3  1  0.67773300  0.48455368  0.48088061  1
  In  In4  1  0.66309767  0.02663045  0.67541957  1
  In  In5  1  0.31422384  0.65338576  0.00211800  1
  In  In6  1  0.84273957  0.84935187  0.68159989  1
  In  In7  1  0.66804242  0.17163267  0.50996298  1
  In  In8  1  0.15501825  0.62912841  0.81484133  1
  In  In9  1  0.50927110  0.64705260  0.50582867  1
  In  In10  1  0.32266233  0.84455791  0.83241683  1
  In  In11  1  0.34061493  0.64281086  0.33772938  1
  In  In12  1  0.11158531  0.43571067  0.65925426  1
  In  In13  1  0.35756764  0.01908124  0.32061063  1
  In  In14  1  0.86629470  0.84704955  -0.01006112  1
  In  In15  1  0.84867479  0.67851542  0.85388807  1
  In  In16  1  0.49588639  0.30994303  0.49577528  1
  In  In17  1  0.86058897  0.20715194  0.02633363  1
  In  In18  1  0.13519153  0.46126764  -0.01431671  1
  In  In19  1  0.31649977  0.34139640  -0.00481259  1
  In  In20  1  0.16638613  -0.00971279  0.51391756  1
  In  In21  1  0.69499683  0.20731460  0.12325099  1
  In  In22  1  0.29751468  0.02878228  0.68445798  1
  In  In23  1  0.67033941  0.18615780  0.84515059  1
  In  In24  1  0.33078874  0.00581139  0.02930789  1
  In  In25  1  -0.01650750  0.00667946  0.33339730  1
  In  In26  1  0.17786883  -0.00505802  0.14993871  1
  In  In27  1  0.13256054  0.62685645  0.46111898  1
  In  In28  1  0.16616114  0.83421595  0.34370062  1
  In  In29  1  0.34176788  0.46374220  0.53172838  1
  In  In30  1  0.81885104  0.01235258  0.83808589  1
  In  In31  1  0.68959313  0.67946333  0.65286067  1
  In  In32  1  0.83476310  0.34216898  0.46860178  1
  In  In33  1  0.30963860  0.49821782  0.17821518  1
  In  In34  1  0.14335093  0.19116313  -0.02185262  1
  In  In35  1  -0.00729942  0.66836861  0.67196496  1
  In  In36  1  0.51791508  0.47844796  0.31200393  1
  In  In37  1  0.68264340  0.49647785  0.14977164  1
  In  In38  1  0.90515484  0.35025557  0.86710963  1
  In  In39  1  0.63986950  0.50753090  0.86221121  1
  In  In40  1  0.00012024  0.47475154  0.17984136  1
  In  In41  1  0.30185194  0.19879841  0.48431664  1
  In  In42  1  0.27720815  0.67131250  0.67587716  1
  In  In43  1  0.84190485  0.79055630  0.30557831  1
  In  In44  1  0.33020278  0.17247301  0.18378717  1
  In  In45  1  0.48196218  0.83365612  0.00982188  1
  In  In46  1  0.46731115  0.67144304  0.84608854  1
  In  In47  1  0.85629573  0.00814643  0.51568282  1
  In  In48  1  0.49485339  0.50447601  0.68735988  1
  In  In49  1  0.50440953  -0.00011036  0.19553021  1
  In  In50  1  0.51748908  0.16353649  0.33730375  1
  In  In51  1  0.12028145  0.43271557  0.32535089  1
  In  In52  1  0.68133615  0.02935435  -0.00041657  1
  In  In53  1  0.00378548  0.01197896  -0.00043873  1
  In  In54  1  0.18986035  0.83893270  0.67632731  1
  In  In55  1  0.67240314  -0.02597378  0.33849435  1
  In  In56  1  0.34225367  0.82122983  0.52015658  1
  In  In57  1  0.30023652  0.33436458  0.67046636  1
  In  In58  1  0.51897014  0.84540388  0.31891461  1
  In  In59  1  0.86951260  0.61437045  0.45937937  1
  In  In60  1  0.50996762  0.33907127  0.84747846  1
  In  In61  1  0.69152066  0.83246553  0.16058705  1
  In  In62  1  0.83016517  0.16798729  0.30554600  1
  In  In63  1  0.02429471  0.03343070  0.72128078  1
  In  In64  1  0.66386924  0.66291639  -0.01731944  1
  In  In65  1  0.83960346  0.46005622  0.67612051  1
  In  In66  1  0.02057052  0.18722904  0.51558995  1
  In  In67  1  0.28275072  0.81779183  0.13891962  1
  In  In68  1  0.68044933  0.84344676  0.45908704  1
  In  In69  1  0.67017167  0.32730700  0.64811954  1
  In  In70  1  0.49399042  0.49190862  0.00751690  1
  In  In71  1  0.85057581  0.62598626  0.14940972  1
  Te  Te72  1  0.08972078  0.10325402  0.09192022  1
  Te  Te73  1  0.08190723  0.07911166  0.42473424  1
  Te  Te74  1  0.09265543  0.14658300  0.78338054  1
  Te  Te75  1  0.08912051  0.37792246  0.10285059  1
  Te  Te76  1  0.01443853  0.45008674  0.43107923  1
  Te  Te77  1  0.02372107  0.40526510  0.77891568  1
  Te  Te78  1  0.14986207  0.77749247  0.09576461  1
  Te  Te79  1  0.05666531  0.73429863  0.38461353  1
  Te  Te80  1  0.08649810  0.75455146  0.75167214  1
  Te  Te81  1  0.43315905  0.09291657  0.09942287  1
  Te  Te82  1  0.41034331  0.10431991  0.43176725  1
  Te  Te83  1  0.41169923  0.08216703  0.75729358  1
  Te  Te84  1  0.40627808  0.40896941  0.09770701  1
  Te  Te85  1  0.42020505  0.41223253  0.41406975  1
  Te  Te86  1  0.40635960  0.40730656  0.75883002  1
  Te  Te87  1  0.40564803  0.73357256  0.09154025  1
  Te  Te88  1  0.42690665  0.74502441  0.41378411  1
  Te  Te89  1  0.40743761  0.75728046  0.73502277  1
  Te  Te90  1  0.78218167  0.08783236  0.09230245  1
  Te  Te91  1  0.75818615  0.07722702  0.42149262  1
  Te  Te92  1  0.76346147  0.11601269  0.74263748  1
  Te  Te93  1  0.79164625  0.41215688  0.08127307  1
  Te  Te94  1  0.77425009  0.44309166  0.37860971  1
  Te  Te95  1  0.71558074  0.42360474  0.75566254  1
  Te  Te96  1  0.76474714  0.74085383  0.06495456  1
  Te  Te97  1  0.76404338  0.72420654  0.41663476  1
  Te  Te98  1  0.75158862  0.76006555  0.76439512  1
  Te  Te99  1  0.11008294  0.29254097  0.27520668  1
  Te  Te100  1  0.08670600  0.29588997  0.59240593  1
  Te  Te101  1  0.03523755  0.27700206  0.91504421  1
  Te  Te102  1  0.09186071  0.56457773  0.25784631  1
  Te  Te103  1  0.07571538  0.57329102  0.58946316  1
  Te  Te104  1  0.06090657  0.56356819  0.90665517  1
  Te  Te105  1  0.08742607  0.92480643  0.25272328  1
  Te  Te106  1  0.06999618  0.91222959  0.60224674  1
  Te  Te107  1  0.09794066  0.94042145  0.91226351  1
  Te  Te108  1  0.42645727  0.25008004  0.26268219  1
  Te  Te109  1  0.39933881  0.24888792  0.59523336  1
  Te  Te110  1  0.41910146  0.24997960  0.92946405  1
  Te  Te111  1  0.42827072  0.57706455  0.23611783  1
  Te  Te112  1  0.40170779  0.59357499  0.59828058  1
  Te  Te113  1  0.39512503  0.55731535  0.91130767  1
  Te  Te114  1  0.39513838  0.89872958  0.23498764  1
  Te  Te115  1  0.39375972  0.93266969  0.60570448  1
  Te  Te116  1  0.41156756  0.93157600  0.91904075  1
  Te  Te117  1  0.74905871  0.27534557  0.24287417  1
  Te  Te118  1  0.77846789  0.24947820  0.57936512  1
  Te  Te119  1  0.77893571  0.26725001  0.91114301  1
  Te  Te120  1  0.75334842  0.57945284  0.24913777  1
  Te  Te121  1  0.75798627  0.56334630  0.58429204  1
  Te  Te122  1  0.76552751  0.56744463  0.92334054  1
  Te  Te123  1  0.78077408  0.91855432  0.24744603  1
  Te  Te124  1  0.74857501  0.91738761  0.58164451  1
  Te  Te125  1  0.74365606  0.91378356  0.92523719  1
  Te  Te126  1  0.24027380  0.24694957  0.08658657  1
  Te  Te127  1  0.21891609  0.26661025  0.38248492  1
  Te  Te128  1  0.21374889  0.26063998  0.76848256  1
  Te  Te129  1  0.22014552  0.56053631  0.07375510  1
  Te  Te130  1  0.26272112  0.55610700  0.43230115  1
  Te  Te131  1  0.22354492  0.53670704  0.71904746  1
  Te  Te132  1  0.20359956  0.89900251  0.01793872  1
  Te  Te133  1  0.26784040  0.92037419  0.42110805  1
  Te  Te134  1  0.21549226  0.94477290  0.78493617  1
  Te  Te135  1  0.59194966  0.25171712  0.03175073  1
  Te  Te136  1  0.60971679  0.26714030  0.40794013  1
  Te  Te137  1  0.57548508  0.25346725  0.74036917  1
  Te  Te138  1  0.57525878  0.59466878  0.08163513  1
  Te  Te139  1  0.59207932  0.58262636  0.40064556  1
  Te  Te140  1  0.58572901  0.60851493  0.75126213  1
  Te  Te141  1  0.58196534  0.91775747  0.09012427  1
  Te  Te142  1  0.55797762  0.93506155  0.43252553  1
  Te  Te143  1  0.60054483  0.92674318  0.76342617  1
  Te  Te144  1  0.96083677  0.28078416  0.11201617  1
  Te  Te145  1  0.92431021  0.23593833  0.40832356  1
  Te  Te146  1  0.97379975  0.25416321  0.76807155  1
  Te  Te147  1  0.96369978  0.57210411  0.06576523  1
  Te  Te148  1  0.95170823  0.55776590  0.34535484  1
  Te  Te149  1  0.90261844  0.57689785  0.75157101  1
  Te  Te150  1  0.94307506  0.91495036  0.09311905  1
  Te  Te151  1  0.91161364  0.90151493  0.42164936  1
  Te  Te152  1  0.93029492  0.92687783  0.77747185  1
  Te  Te153  1  0.23489649  0.08365678  0.26311080  1
  Te  Te154  1  0.22007713  0.11283196  0.58537607  1
  Te  Te155  1  0.25736087  0.09799173  0.93544810  1
  Te  Te156  1  0.25313255  0.38861082  0.26346686  1
  Te  Te157  1  0.21200568  0.38675581  0.54756956  1
  Te  Te158  1  0.22080934  0.38516973  0.89131481  1
  Te  Te159  1  0.24372374  0.73052052  0.26280399  1
  Te  Te160  1  0.21631456  0.74281479  0.55156016  1
  Te  Te161  1  0.24241326  0.72941548  0.89302485  1
  Te  Te162  1  0.61559864  0.08699299  0.24841573  1
  Te  Te163  1  0.57097171  0.09165372  0.58297132  1
  Te  Te164  1  0.58077790  0.09381377  0.91650508  1
  Te  Te165  1  0.59481288  0.39872597  0.21791015  1
  Te  Te166  1  0.56764410  0.42701067  0.57859309  1
  Te  Te167  1  0.60541026  0.39159094  0.96287991  1
  Te  Te168  1  0.60777707  0.75277836  0.25238841  1
  Te  Te169  1  0.58724183  0.76021102  0.57188936  1
  Te  Te170  1  0.57048062  0.76053247  0.91036035  1
  Te  Te171  1  0.94289046  0.10778546  0.23510466  1
  Te  Te172  1  0.94011464  0.09277130  0.60829571  1
  Te  Te173  1  0.90627278  0.09991072  0.92355602  1
  Te  Te174  1  0.88527057  0.37674480  0.20488473  1
  Te  Te175  1  0.92584977  0.41938075  0.56161354  1
  Te  Te176  1  0.90395250  0.44511741  0.98743740  1
  Te  Te177  1  0.92795830  0.74342285  0.19850155  1
  Te  Te178  1  0.89717650  0.74580795  0.58097520  1
  Te  Te179  1  0.95368305  0.74920538  0.92512305  1
