# generated using pymatgen
data_In2Te3
_symmetry_space_group_name_H-M   'P 1'
_cell_length_a   18.88063302
_cell_length_b   18.87685056
_cell_length_c   18.88582066
_cell_angle_alpha   89.96804904
_cell_angle_beta   90.05908956
_cell_angle_gamma   90.01905477
_symmetry_Int_Tables_number   1
_chemical_formula_structural   In2Te3
_chemical_formula_sum   'In72 Te108'
_cell_volume   6731.03157318
_cell_formula_units_Z   36
loop_
 _symmetry_equiv_pos_site_id
 _symmetry_equiv_pos_as_xyz
  1  'x, y, z'
loop_
 _atom_site_type_symbol
 _atom_site_label
 _atom_site_symmetry_multiplicity
 _atom_site_fract_x
 _atom_site_fract_y
 _atom_site_fract_z
 _atom_site_occupancy
  In  In0  1  0.50889103  0.52994570  -0.01983688  1
  In  In1  1  0.49222698  0.31046231  0.16963352  1
  In  In2  1  0.84118856  -0.00831033  0.82946409  1
  In  In3  1  -0.01714805  -0.00610804  0.34744360  1
  In  In4  1  0.48818001  0.15378905  -0.00181348  1
  In  In5  1  0.87543740  0.46550616  -0.03253571  1
  In  In6  1  -0.01898499  -0.03085646  0.65576239  1
  In  In7  1  0.79652155  0.00482714  0.17046848  1
  In  In8  1  0.32653878  0.17094757  0.83470701  1
  In  In9  1  0.64793816  0.49629196  0.15912358  1
  In  In10  1  0.34285533  0.52110389  0.15576888  1
  In  In11  1  0.17317006  0.66664022  0.84393638  1
  In  In12  1  0.00744675  0.48728733  0.16697715  1
  In  In13  1  0.52121856  0.83243439  0.33894215  1
  In  In14  1  -0.00347080  -0.00556097  0.00359880  1
  In  In15  1  0.86263978  0.15338884  0.68268432  1
  In  In16  1  0.66150896  0.52067067  0.82577325  1
  In  In17  1  0.16450799  -0.00174396  0.85544590  1
  In  In18  1  0.67442719  0.84465091  0.80971429  1
  In  In19  1  0.00053878  0.67753805  -0.00924098  1
  In  In20  1  0.00509405  0.18893204  0.15758715  1
  In  In21  1  0.32879650  0.33160291  0.00441802  1
  In  In22  1  -0.02016865  0.67316246  0.65179346  1
  In  In23  1  0.19759245  -0.00528686  0.15707142  1
  In  In24  1  0.52107373  0.31957936  0.49647502  1
  In  In25  1  0.83846780  0.31919770  0.48978257  1
  In  In26  1  0.83501379  0.68059777  0.83195904  1
  In  In27  1  0.66254126  0.01016870  0.00419057  1
  In  In28  1  0.83690613  0.48818809  0.36594211  1
  In  In29  1  0.48044133  0.84980009  0.00015717  1
  In  In30  1  -0.00142610  0.32733057  0.67711772  1
  In  In31  1  0.16466830  0.83947396  0.34809036  1
  In  In32  1  0.33536130  0.83536397  0.16348842  1
  In  In33  1  0.17170806  0.50288694  0.01382815  1
  In  In34  1  0.68332058  0.68526884  0.33685710  1
  In  In35  1  0.35880573  -0.01498496  0.63945253  1
  In  In36  1  -0.00012757  0.63105195  0.33501116  1
  In  In37  1  0.17181678  0.49232332  0.34036846  1
  In  In38  1  0.34915905  0.68037414  0.35366695  1
  In  In39  1  -0.00517765  0.51617077  0.50766866  1
  In  In40  1  0.01477283  0.16282498  0.84856334  1
  In  In41  1  -0.00262068  0.14193219  0.50810010  1
  In  In42  1  0.16155525  0.81631898  0.68333800  1
  In  In43  1  0.82098316  0.84602822  0.34011873  1
  In  In44  1  0.48252154  0.17859398  0.66504139  1
  In  In45  1  0.68171375  0.68618699  0.00061083  1
  In  In46  1  0.50011818  0.00457616  0.47657913  1
  In  In47  1  0.67803264  -0.03028552  0.63545494  1
  In  In48  1  0.19674392  0.36893463  0.51621007  1
  In  In49  1  0.32674648  0.84011208  0.83863361  1
  In  In50  1  0.67205943  0.52359532  0.49333728  1
  In  In51  1  0.36405196  0.49210450  0.80168999  1
  In  In52  1  0.18188414  0.15861392  0.67621108  1
  In  In53  1  0.52679551  0.03425683  0.18407165  1
  In  In54  1  0.17164836  0.32887689  0.15549296  1
  In  In55  1  0.35179418  0.66882847  0.66125492  1
  In  In56  1  0.49351302  0.66677506  0.81911133  1
  In  In57  1  0.33270682  0.01518195  0.33766512  1
  In  In58  1  0.16921102  0.00956230  0.51684841  1
  In  In59  1  0.67118678  0.17154112  0.84939768  1
  In  In60  1  0.80057678  0.51292010  0.67056111  1
  In  In61  1  0.83550355  0.31784291  0.17752736  1
  In  In62  1  0.65540193  0.35257637  -0.00905091  1
  In  In63  1  0.14287790  0.33367806  0.83771535  1
  In  In64  1  0.34283376  0.31134668  0.34164936  1
  In  In65  1  0.17972686  0.66066980  0.49718937  1
  In  In66  1  0.81581988  0.14599863  0.34340370  1
  In  In67  1  0.66160636  0.16135312  0.47673236  1
  In  In68  1  0.81714207  0.66739101  0.16153079  1
  In  In69  1  -0.00110322  0.82349399  0.15627177  1
  In  In70  1  0.51107308  0.49456559  0.33047432  1
  In  In71  1  0.67028051  0.33095582  0.66650251  1
  Te  Te72  1  0.08705552  0.07987980  0.08900461  1
  Te  Te73  1  0.09344526  0.08194763  0.40623443  1
  Te  Te74  1  0.06739192  0.07497892  0.73478783  1
  Te  Te75  1  0.07234996  0.39813887  0.06293631  1
  Te  Te76  1  0.07417148  0.41614440  0.42827048  1
  Te  Te77  1  0.07975876  0.43130316  0.74540285  1
  Te  Te78  1  0.09550659  0.74112193  0.08440882  1
  Te  Te79  1  0.07494944  0.73677365  0.41802421  1
  Te  Te80  1  0.06167402  0.73863224  0.76512934  1
  Te  Te81  1  0.41748032  0.06291523  0.08962253  1
  Te  Te82  1  0.41920199  0.11100422  0.41363674  1
  Te  Te83  1  0.41226052  0.07568801  0.75168153  1
  Te  Te84  1  0.43607517  0.42603953  0.07680677  1
  Te  Te85  1  0.42217529  0.41372007  0.42249580  1
  Te  Te86  1  0.41441801  0.40930502  0.69038722  1
  Te  Te87  1  0.41354408  0.74448352  0.07766066  1
  Te  Te88  1  0.42185911  0.77966611  0.43684217  1
  Te  Te89  1  0.42442700  0.77824715  0.74131501  1
  Te  Te90  1  0.74311224  0.10682090  0.07995975  1
  Te  Te91  1  0.74674414  0.04847711  0.43120772  1
  Te  Te92  1  0.74509076  0.07557844  0.74351640  1
  Te  Te93  1  0.75805024  0.42250621  0.08514374  1
  Te  Te94  1  0.72845828  0.39572009  0.42017091  1
  Te  Te95  1  0.75045843  0.40892921  0.76951307  1
  Te  Te96  1  0.73961698  0.77611545  0.10204520  1
  Te  Te97  1  0.73472523  0.77587716  0.44417761  1
  Te  Te98  1  0.72533475  0.72227028  0.74291149  1
  Te  Te99  1  0.08182566  0.26862790  0.25416661  1
  Te  Te100  1  0.08406837  0.24192563  0.58577741  1
  Te  Te101  1  0.11966689  0.22388572  0.93417086  1
  Te  Te102  1  0.10468974  0.58217423  0.23673791  1
  Te  Te103  1  0.09538256  0.58369410  0.59744762  1
  Te  Te104  1  0.07800457  0.57144552  0.91416982  1
  Te  Te105  1  0.08108093  0.91726639  0.24629521  1
  Te  Te106  1  0.08618488  0.89619537  0.57440373  1
  Te  Te107  1  0.05843412  0.90934109  0.90054640  1
  Te  Te108  1  0.38655404  0.22427421  0.22720273  1
  Te  Te109  1  0.40591839  0.27660408  0.58293517  1
  Te  Te110  1  0.42410251  0.26164635  0.90905651  1
  Te  Te111  1  0.43057575  0.59861571  0.25241637  1
  Te  Te112  1  0.44175125  0.60145960  0.56645426  1
  Te  Te113  1  0.39372728  0.60034837  0.91250968  1
  Te  Te114  1  0.42331781  0.92636063  0.25252086  1
  Te  Te115  1  0.44849887  0.89458468  0.56323771  1
  Te  Te116  1  0.40432052  0.94054406  0.91302118  1
  Te  Te117  1  0.73586100  0.23444000  0.25316061  1
  Te  Te118  1  0.76103974  0.23255266  0.58968761  1
  Te  Te119  1  0.75455836  0.26587075  0.92397420  1
  Te  Te120  1  0.75026086  0.56155107  0.25984109  1
  Te  Te121  1  0.74099108  0.61719788  0.58609790  1
  Te  Te122  1  0.75677134  0.57081104  0.93259215  1
  Te  Te123  1  0.71718077  0.92059551  0.26348585  1
  Te  Te124  1  0.75550082  0.85403391  0.58677475  1
  Te  Te125  1  0.74993021  0.91364707  0.92268882  1
  Te  Te126  1  0.27265311  0.23381763  0.10065243  1
  Te  Te127  1  0.23326466  0.26035965  0.42563829  1
  Te  Te128  1  0.25179203  0.27143328  0.74784246  1
  Te  Te129  1  0.24951104  0.60694612  0.08224094  1
  Te  Te130  1  0.27421678  0.56684794  0.42498993  1
  Te  Te131  1  0.25505184  0.58467641  0.74558141  1
  Te  Te132  1  0.24314404  0.89369873  0.06052765  1
  Te  Te133  1  0.26068624  0.91986115  0.43295605  1
  Te  Te134  1  0.24232411  0.93651475  0.73388248  1
  Te  Te135  1  0.58805475  0.24256591  0.07355128  1
  Te  Te136  1  0.55446102  0.21717302  0.38478943  1
  Te  Te137  1  0.57759230  0.25352102  0.75792476  1
  Te  Te138  1  0.57885136  0.61011135  0.08815814  1
  Te  Te139  1  0.57139591  0.60584899  0.41418253  1
  Te  Te140  1  0.56532469  0.57631617  0.72043146  1
  Te  Te141  1  0.57908933  0.92019898  0.09266754  1
  Te  Te142  1  0.60994601  0.93900513  0.39862983  1
  Te  Te143  1  0.57657235  0.91948669  0.72922512  1
  Te  Te144  1  0.91293501  0.25941553  0.06699781  1
  Te  Te145  1  0.92763793  0.23259211  0.40603037  1
  Te  Te146  1  0.90910991  0.25947647  0.78013180  1
  Te  Te147  1  0.91544192  0.57745895  0.08468932  1
  Te  Te148  1  0.89262744  0.60777935  0.44252804  1
  Te  Te149  1  0.91229298  0.57804883  0.75073096  1
  Te  Te150  1  0.89961277  0.91734518  0.09254471  1
  Te  Te151  1  0.92650350  0.89044804  0.43369871  1
  Te  Te152  1  0.89680600  0.88224883  0.74330260  1
  Te  Te153  1  0.23264538  0.09136192  0.26027818  1
  Te  Te154  1  0.27801997  0.09865475  0.57472850  1
  Te  Te155  1  0.23816639  0.10010402  0.93202945  1
  Te  Te156  1  0.26902973  0.42002329  0.24457041  1
  Te  Te157  1  0.28359372  0.43827902  0.60960303  1
  Te  Te158  1  0.25907006  0.42659999  0.90686587  1
  Te  Te159  1  0.25026561  0.74999273  0.26137003  1
  Te  Te160  1  0.25835068  0.76039516  0.58051437  1
  Te  Te161  1  0.22951056  0.77444367  0.92855547  1
  Te  Te162  1  0.60596267  0.12830174  0.26576561  1
  Te  Te163  1  0.58259425  0.09070998  0.58884674  1
  Te  Te164  1  0.57014408  0.06976991  0.89920149  1
  Te  Te165  1  0.59166515  0.39130421  0.25347687  1
  Te  Te166  1  0.59085642  0.42684348  0.58101368  1
  Te  Te167  1  0.56313113  0.42201910  0.88954275  1
  Te  Te168  1  0.58883565  0.74468309  0.24183758  1
  Te  Te169  1  0.55804737  0.68210255  0.60760809  1
  Te  Te170  1  0.58098318  0.75605997  0.91016869  1
  Te  Te171  1  0.91720268  0.08132468  0.24133909  1
  Te  Te172  1  0.88880659  0.05510956  0.56919646  1
  Te  Te173  1  0.90509407  0.08997874  0.92535681  1
  Te  Te174  1  0.92224057  0.41004017  0.26702761  1
  Te  Te175  1  0.90149909  0.41793293  0.58759722  1
  Te  Te176  1  0.96800974  0.40161998  0.87444608  1
  Te  Te177  1  0.91477467  0.73685441  0.25887677  1
  Te  Te178  1  0.89785606  0.78874344  0.60759379  1
  Te  Te179  1  0.89388837  0.76344952  0.93755005  1
