# generated using pymatgen
data_In2Te3
_symmetry_space_group_name_H-M   'P 1'
_cell_length_a   18.92230087
_cell_length_b   18.91683811
_cell_length_c   18.92208384
_cell_angle_alpha   90.14141065
_cell_angle_beta   90.01322823
_cell_angle_gamma   89.95776839
_symmetry_Int_Tables_number   1
_chemical_formula_structural   In2Te3
_chemical_formula_sum   'In72 Te108'
_cell_volume   6773.13919896
_cell_formula_units_Z   36
loop_
 _symmetry_equiv_pos_site_id
 _symmetry_equiv_pos_as_xyz
  1  'x, y, z'
loop_
 _atom_site_type_symbol
 _atom_site_label
 _atom_site_symmetry_multiplicity
 _atom_site_fract_x
 _atom_site_fract_y
 _atom_site_fract_z
 _atom_site_occupancy
  In  In0  1  0.83224948  0.33072296  0.15296266  1
  In  In1  1  0.30332201  0.83049374  0.83188622  1
  In  In2  1  0.02607362  -0.02022965  0.63312319  1
  In  In3  1  0.65693195  0.19019206  0.49888603  1
  In  In4  1  0.00654357  0.83847103  0.19331980  1
  In  In5  1  0.50088235  0.66351699  0.84511463  1
  In  In6  1  0.34440070  0.51398096  0.49148637  1
  In  In7  1  0.83015394  0.51727083  -0.00417329  1
  In  In8  1  0.34701185  0.33598023  0.67031057  1
  In  In9  1  0.49416386  0.19395483  0.00162050  1
  In  In10  1  0.81465664  0.33933782  0.51239311  1
  In  In11  1  0.83017909  0.18159829  0.33726703  1
  In  In12  1  0.32095832  -0.01306686  0.02485503  1
  In  In13  1  0.17663059  0.82106573  0.01244623  1
  In  In14  1  0.51157081  0.84486474  0.66317981  1
  In  In15  1  0.49810458  0.52496973  0.33566597  1
  In  In16  1  0.01580757  0.69473217  0.35494771  1
  In  In17  1  0.32062244  0.83392358  0.48149521  1
  In  In18  1  0.33250303  0.32744859  -0.02568045  1
  In  In19  1  0.67085184  -0.01935913  0.04141120  1
  In  In20  1  0.34276964  0.36451973  0.32214395  1
  In  In21  1  0.02574350  0.80853826  0.83098246  1
  In  In22  1  0.64860329  0.65966669  0.00742918  1
  In  In23  1  0.33759098  0.66483807  0.64406614  1
  In  In24  1  0.83338697  -0.02057800  0.80640366  1
  In  In25  1  0.01729025  0.34268951  0.67693285  1
  In  In26  1  0.16462860  0.32462003  0.49724817  1
  In  In27  1  0.02722159  0.58708509  0.83719246  1
  In  In28  1  0.00111707  -0.01120647  0.37624292  1
  In  In29  1  0.31292152  0.15782832  0.18469972  1
  In  In30  1  0.65474647  -0.00393340  0.32711451  1
  In  In31  1  0.31628635  0.17947037  0.81245744  1
  In  In32  1  0.47174083  -0.00518528  0.21436450  1
  In  In33  1  0.69319260  0.67414849  0.65873584  1
  In  In34  1  0.63149245  0.16714358  0.80988611  1
  In  In35  1  0.01147324  0.32670488  0.01604788  1
  In  In36  1  0.00988421  0.00726528  0.03323812  1
  In  In37  1  -0.02416189  0.66312846  0.64805985  1
  In  In38  1  0.83290565  0.67059545  0.48661047  1
  In  In39  1  0.81833630  0.64488608  0.18288610  1
  In  In40  1  0.51723468  0.36426108  0.17950693  1
  In  In41  1  0.16008515  0.15513202  0.34372786  1
  In  In42  1  0.49431219  0.16546080  0.35087539  1
  In  In43  1  0.14923060  0.50824491  0.66796704  1
  In  In44  1  0.30155408  -0.00797589  0.64817551  1
  In  In45  1  0.83751732  0.00635665  0.18398886  1
  In  In46  1  0.65863616  0.83028637  0.16769774  1
  In  In47  1  0.15961483  0.67566200  0.16704332  1
  In  In48  1  0.33967536  0.50300498  0.83028654  1
  In  In49  1  0.33745655  0.14733690  0.50092510  1
  In  In50  1  0.32071129  0.51149160  0.16403742  1
  In  In51  1  0.00288357  0.15979898  0.83640696  1
  In  In52  1  0.15514181  0.16347698  0.01679367  1
  In  In53  1  0.66674341  0.49726699  0.82691147  1
  In  In54  1  0.47677323  0.00082508  0.86570314  1
  In  In55  1  0.17721884  -0.00753994  0.82411510  1
  In  In56  1  0.67074478  0.81914492  0.80648561  1
  In  In57  1  0.00449974  0.30938191  0.33091886  1
  In  In58  1  0.65394059  0.48373995  0.50453105  1
  In  In59  1  0.66475090  0.35329975  -0.01476802  1
  In  In60  1  0.66698473  0.01434785  0.64646531  1
  In  In61  1  0.00626985  0.49381168  0.17188806  1
  In  In62  1  0.84977745  0.81417625  -0.03330850  1
  In  In63  1  0.50662952  0.52578154  0.00643493  1
  In  In64  1  0.50500590  0.16882270  0.66967593  1
  In  In65  1  0.82664926  0.35287685  0.81367944  1
  In  In66  1  0.84131993  -0.01270229  0.51000762  1
  In  In67  1  0.83645323  0.17674129  -0.00088324  1
  In  In68  1  0.50030819  0.81147649  0.33100409  1
  In  In69  1  0.67945024  0.82633645  0.48472515  1
  In  In70  1  0.31318919  0.67344576  0.33884079  1
  In  In71  1  -0.00704226  0.49258812  0.48828073  1
  Te  Te72  1  0.10568462  0.07314215  0.12180585  1
  Te  Te73  1  0.07296931  0.09809130  0.44776478  1
  Te  Te74  1  0.08852921  0.07979598  0.74030998  1
  Te  Te75  1  0.09869304  0.42407732  0.08111716  1
  Te  Te76  1  0.09004603  0.41498903  0.40158145  1
  Te  Te77  1  0.06781349  0.44463228  0.77759522  1
  Te  Te78  1  0.05927863  0.75291556  0.08022074  1
  Te  Te79  1  0.11708971  0.78677971  0.41691752  1
  Te  Te80  1  0.08753437  0.72263956  0.72910645  1
  Te  Te81  1  0.41625079  0.09215779  0.08450279  1
  Te  Te82  1  0.40222894  0.05939164  0.39845652  1
  Te  Te83  1  0.40577242  0.06845585  0.74673734  1
  Te  Te84  1  0.41631495  0.41583471  0.07516294  1
  Te  Te85  1  0.44071202  0.41453013  0.42568521  1
  Te  Te86  1  0.42906001  0.44675513  0.72470037  1
  Te  Te87  1  0.52450174  0.70908442  0.07783673  1
  Te  Te88  1  0.42082665  0.72987559  0.43156622  1
  Te  Te89  1  0.41836487  0.76174662  0.75123101  1
  Te  Te90  1  0.74998567  0.09648515  0.09768517  1
  Te  Te91  1  0.74589160  0.07525350  0.42050712  1
  Te  Te92  1  0.75201241  0.09182778  0.74657109  1
  Te  Te93  1  0.73771804  0.43968108  0.08644477  1
  Te  Te94  1  0.75446996  0.42667303  0.41183885  1
  Te  Te95  1  0.73564103  0.42108240  0.71767412  1
  Te  Te96  1  0.76079306  0.75121445  0.07568899  1
  Te  Te97  1  0.72952189  0.72172190  0.39110285  1
  Te  Te98  1  0.78426135  0.75306460  0.74441841  1
  Te  Te99  1  0.10317462  0.24557162  0.24312004  1
  Te  Te100  1  0.07644370  0.24572837  0.58318189  1
  Te  Te101  1  0.09557373  0.25357975  0.91029779  1
  Te  Te102  1  0.08190739  0.59076462  0.26474977  1
  Te  Te103  1  0.08284805  0.59072333  0.56008532  1
  Te  Te104  1  0.13067665  0.60305410  0.94095654  1
  Te  Te105  1  0.08574734  0.93681533  0.26517603  1
  Te  Te106  1  0.09572499  0.88704142  0.53771152  1
  Te  Te107  1  0.08549725  0.92540623  0.92571123  1
  Te  Te108  1  0.42180774  0.25664087  0.23779867  1
  Te  Te109  1  0.42495697  0.25169469  0.56991618  1
  Te  Te110  1  0.42946729  0.25713295  0.87968064  1
  Te  Te111  1  0.41061355  0.60522402  0.23983558  1
  Te  Te112  1  0.43525841  0.56282860  0.59894945  1
  Te  Te113  1  0.39759218  0.60369956  0.93655010  1
  Te  Te114  1  0.39394634  0.87606614  0.24969456  1
  Te  Te115  1  0.41221017  0.91801104  0.57537006  1
  Te  Te116  1  0.39832866  0.89008168  0.93615077  1
  Te  Te117  1  0.74535634  0.25848929  0.24643066  1
  Te  Te118  1  0.75031159  0.23892833  0.60003137  1
  Te  Te119  1  0.74196443  0.24888768  0.90346712  1
  Te  Te120  1  0.73917284  0.53513919  0.23886923  1
  Te  Te121  1  0.76494636  0.57160992  0.57662754  1
  Te  Te122  1  0.74471130  0.60232159  0.90426383  1
  Te  Te123  1  0.75642914  0.90523196  0.26150407  1
  Te  Te124  1  0.75129748  0.89949539  0.59824686  1
  Te  Te125  1  0.74356187  0.92246532  0.92027740  1
  Te  Te126  1  0.25369237  0.25721693  0.08408260  1
  Te  Te127  1  0.27193270  0.25865190  0.40909195  1
  Te  Te128  1  0.23313300  0.25998399  0.72459020  1
  Te  Te129  1  0.23105938  0.58618436  0.06884172  1
  Te  Te130  1  0.24016448  0.56280332  0.40145781  1
  Te  Te131  1  0.24976312  0.59271584  0.74453413  1
  Te  Te132  1  0.23076889  0.91402427  0.11306160  1
  Te  Te133  1  0.20644830  0.91685235  0.43131123  1
  Te  Te134  1  0.21771354  0.88796564  0.72052924  1
  Te  Te135  1  0.59557171  0.26589089  0.08868645  1
  Te  Te136  1  0.58916392  0.26746496  0.39545132  1
  Te  Te137  1  0.58550373  0.28243155  0.72712259  1
  Te  Te138  1  0.58448306  0.57901382  0.12334686  1
  Te  Te139  1  0.58474165  0.59325797  0.43329764  1
  Te  Te140  1  0.58883111  0.59696907  0.74196453  1
  Te  Te141  1  0.55109324  0.91724462  0.10371217  1
  Te  Te142  1  0.57154139  0.91318591  0.42159966  1
  Te  Te143  1  0.58015439  0.94251424  0.76009627  1
  Te  Te144  1  0.93565569  0.22747848  0.10131489  1
  Te  Te145  1  0.91824362  0.24927051  0.43958067  1
  Te  Te146  1  0.91643046  0.24857571  0.74963871  1
  Te  Te147  1  0.92467924  0.59161688  0.08674073  1
  Te  Te148  1  0.91675711  0.58296214  0.39418070  1
  Te  Te149  1  0.91517560  0.56947469  0.74508055  1
  Te  Te150  1  0.90206552  0.91107665  0.08084340  1
  Te  Te151  1  0.91012589  0.88236771  0.42991375  1
  Te  Te152  1  0.94368782  0.90230985  0.74126805  1
  Te  Te153  1  0.26810603  0.06512667  0.29004321  1
  Te  Te154  1  0.22198045  0.08492487  0.56745528  1
  Te  Te155  1  0.25852569  0.08616899  0.92082435  1
  Te  Te156  1  0.23530688  0.42105566  0.24129418  1
  Te  Te157  1  0.24657196  0.42507563  0.58230221  1
  Te  Te158  1  0.24440720  0.41307385  0.89653498  1
  Te  Te159  1  0.24544679  0.76766126  0.24601800  1
  Te  Te160  1  0.24209641  0.73293241  0.55633301  1
  Te  Te161  1  0.21911028  0.72761215  0.90250159  1
  Te  Te162  1  0.58077917  0.09474235  0.24056276  1
  Te  Te163  1  0.56392120  0.08029675  0.56056700  1
  Te  Te164  1  0.58597736  0.08352918  0.93628526  1
  Te  Te165  1  0.61007751  0.44709653  0.26463384  1
  Te  Te166  1  0.61634299  0.38613789  0.61098581  1
  Te  Te167  1  0.55924864  0.42458162  0.90459675  1
  Te  Te168  1  0.61274393  0.73356911  0.27061084  1
  Te  Te169  1  0.58607630  0.74639611  0.57719127  1
  Te  Te170  1  0.57658538  0.77480600  0.91377378  1
  Te  Te171  1  0.92774514  0.08450551  0.27299231  1
  Te  Te172  1  0.91684830  0.07212865  0.60201097  1
  Te  Te173  1  0.91040083  0.06794925  0.91878759  1
  Te  Te174  1  0.91462739  0.40750400  0.25539506  1
  Te  Te175  1  0.91653322  0.42138740  0.59553526  1
  Te  Te176  1  0.90732501  0.40383385  0.93170928  1
  Te  Te177  1  0.90747379  0.74648372  0.25967174  1
  Te  Te178  1  0.92546737  0.76727881  0.55183468  1
  Te  Te179  1  0.93902670  0.71165331  0.90592601  1
