# generated using pymatgen
data_In2Te3
_symmetry_space_group_name_H-M   'P 1'
_cell_length_a   18.80752199
_cell_length_b   18.80716336
_cell_length_c   18.80207239
_cell_angle_alpha   89.94975084
_cell_angle_beta   90.02331307
_cell_angle_gamma   90.10975551
_symmetry_Int_Tables_number   1
_chemical_formula_structural   In2Te3
_chemical_formula_sum   'In72 Te108'
_cell_volume   6650.58113463
_cell_formula_units_Z   36
loop_
 _symmetry_equiv_pos_site_id
 _symmetry_equiv_pos_as_xyz
  1  'x, y, z'
loop_
 _atom_site_type_symbol
 _atom_site_label
 _atom_site_symmetry_multiplicity
 _atom_site_fract_x
 _atom_site_fract_y
 _atom_site_fract_z
 _atom_site_occupancy
  In  In0  1  0.31903777  0.47756543  0.19686865  1
  In  In1  1  0.33846175  0.02394599  0.68605437  1
  In  In2  1  0.32128784  0.85373712  0.16375780  1
  In  In3  1  0.50718996  -0.00247928  0.16957189  1
  In  In4  1  0.32506794  0.67103596  -0.01298046  1
  In  In5  1  0.84841281  0.83061486  0.66422044  1
  In  In6  1  0.13502272  0.68321853  0.15748627  1
  In  In7  1  0.17751457  0.18321914  0.35265191  1
  In  In8  1  0.67328802  0.65477669  0.32147471  1
  In  In9  1  0.47542349  0.34128501  0.49682799  1
  In  In10  1  0.15866040  0.49685940  0.00608343  1
  In  In11  1  0.66407748  0.19145159  0.83031688  1
  In  In12  1  0.86470759  0.82144852  -0.00763703  1
  In  In13  1  0.52401320  0.66787073  0.82885915  1
  In  In14  1  0.68952654  0.81592079  0.15041239  1
  In  In15  1  0.01536470  0.33565881  0.33890583  1
  In  In16  1  -0.00619185  0.15512459  0.16680846  1
  In  In17  1  0.18127853  0.31434847  0.82637736  1
  In  In18  1  0.31001935  0.01692023  -0.00271232  1
  In  In19  1  0.67564103  -0.03591190  0.34146345  1
  In  In20  1  0.66667851  0.33410817  0.66798032  1
  In  In21  1  0.84267043  0.33400735  0.84491783  1
  In  In22  1  0.01347507  -0.00261229  0.65308892  1
  In  In23  1  0.35034366  0.51309901  0.83717906  1
  In  In24  1  0.68594688  0.65963531  0.67917129  1
  In  In25  1  0.34436619  0.19474954  0.15630790  1
  In  In26  1  0.15089453  0.84015984  0.34570441  1
  In  In27  1  0.31748599  0.84323138  0.81366729  1
  In  In28  1  0.65678252  0.82493922  0.81961026  1
  In  In29  1  0.50689731  0.49354524  0.34017907  1
  In  In30  1  -0.00185286  0.15208783  0.83669181  1
  In  In31  1  -0.00640574  0.67716724  0.68634334  1
  In  In32  1  0.53942199  0.64765884  0.14518260  1
  In  In33  1  0.18074006  -0.01323195  0.52889831  1
  In  In34  1  0.50266070  0.35570887  0.18061087  1
  In  In35  1  0.66651414  0.34907621  0.31222240  1
  In  In36  1  0.01481916  0.15353341  0.50801004  1
  In  In37  1  0.31596502  0.01946108  0.35795347  1
  In  In38  1  0.86060911  0.32557371  0.16182957  1
  In  In39  1  0.17483824  0.17489178  -0.00792776  1
  In  In40  1  0.82396685  0.51994227  -0.00810619  1
  In  In41  1  -0.00139041  0.51460854  0.16499976  1
  In  In42  1  0.34594123  0.65941028  0.60698013  1
  In  In43  1  0.83623400  -0.00231420  0.83592737  1
  In  In44  1  0.70158299  0.16712906  0.14838440  1
  In  In45  1  0.83721859  0.32536448  0.48466573  1
  In  In46  1  0.48877512  0.81866782  0.36617332  1
  In  In47  1  0.84903213  0.80388904  0.30212822  1
  In  In48  1  0.65371781  0.00791883  0.67451359  1
  In  In49  1  0.13499125  0.68725892  0.84063044  1
  In  In50  1  0.83721897  -0.00437400  0.49606645  1
  In  In51  1  -0.01809751  0.53068698  0.46809599  1
  In  In52  1  0.00000462  0.50456483  0.84695119  1
  In  In53  1  0.65972312  0.15926320  0.51154693  1
  In  In54  1  0.63814029  0.83344813  0.48490786  1
  In  In55  1  0.47556912  0.83701254  0.65729843  1
  In  In56  1  0.33361505  0.65975130  0.35316854  1
  In  In57  1  0.66953418  0.02279736  0.00415458  1
  In  In58  1  0.48525032  0.81714603  -0.02620347  1
  In  In59  1  0.36421806  0.31558957  -0.00247905  1
  In  In60  1  0.82388266  0.48430261  0.66579387  1
  In  In61  1  0.19420511  0.50909990  0.65488565  1
  In  In62  1  0.50406095  0.19637253  -0.02821469  1
  In  In63  1  0.16680389  0.67084710  0.49740843  1
  In  In64  1  0.33133323  0.32243338  0.66716439  1
  In  In65  1  0.02364713  0.31806385  0.66323756  1
  In  In66  1  -0.01809846  -0.00690984  0.33080650  1
  In  In67  1  0.48840449  0.32585425  0.82977014  1
  In  In68  1  0.66611987  0.51810199  0.49617412  1
  In  In69  1  0.14778507  -0.00101446  0.17239087  1
  In  In70  1  0.67639034  0.34464371  -0.00975304  1
  In  In71  1  0.49823292  0.15096099  0.34417925  1
  Te  Te72  1  0.07734516  0.07678308  0.06363603  1
  Te  Te73  1  0.09823632  0.06248120  0.40624535  1
  Te  Te74  1  0.09411757  0.07627574  0.75133918  1
  Te  Te75  1  0.08447228  0.41163122  0.09945439  1
  Te  Te76  1  0.07807800  0.42259590  0.44117143  1
  Te  Te77  1  0.09290893  0.42721761  0.75401803  1
  Te  Te78  1  0.05139108  0.77294324  0.07328198  1
  Te  Te79  1  0.06480926  0.73062227  0.40268271  1
  Te  Te80  1  0.10388861  0.77341556  0.72224241  1
  Te  Te81  1  0.42876963  0.08842412  0.07482658  1
  Te  Te82  1  0.39156984  0.11585439  0.44156219  1
  Te  Te83  1  0.42016965  0.09568343  0.78891909  1
  Te  Te84  1  0.41382122  0.43286427  0.08460551  1
  Te  Te85  1  0.39308306  0.44084864  0.42038606  1
  Te  Te86  1  0.42278898  0.42896847  0.73588157  1
  Te  Te87  1  0.41449674  0.75330808  0.09390778  1
  Te  Te88  1  0.39982770  0.74300477  0.46047682  1
  Te  Te89  1  0.40730509  0.73198932  0.75096012  1
  Te  Te90  1  0.78649568  0.06535833  0.08296404  1
  Te  Te91  1  0.74619257  0.08226718  0.41030511  1
  Te  Te92  1  0.75266062  0.09476012  0.75053112  1
  Te  Te93  1  0.75973034  0.41872347  0.09160447  1
  Te  Te94  1  0.75469358  0.42947197  0.40900016  1
  Te  Te95  1  0.73692242  0.41852060  0.77425366  1
  Te  Te96  1  0.79632029  0.72880831  0.09436115  1
  Te  Te97  1  0.74533379  0.75657029  0.41061888  1
  Te  Te98  1  0.77503626  0.74520080  0.76900503  1
  Te  Te99  1  0.09368243  0.24514415  0.24264173  1
  Te  Te100  1  0.11464973  0.23966333  0.57649578  1
  Te  Te101  1  0.07263137  0.26233354  0.91746510  1
  Te  Te102  1  0.10093709  0.57803237  0.25413348  1
  Te  Te103  1  0.07029248  0.57679771  0.59125609  1
  Te  Te104  1  0.06441330  0.60123436  0.94641900  1
  Te  Te105  1  0.05615749  0.89488149  0.23735742  1
  Te  Te106  1  0.06879355  0.89680882  0.56096617  1
  Te  Te107  1  0.01000079  0.87064656  0.94920483  1
  Te  Te108  1  0.42117667  0.26208703  0.26892895  1
  Te  Te109  1  0.41846848  0.23454007  0.58199880  1
  Te  Te110  1  0.37779535  0.21098462  0.88006865  1
  Te  Te111  1  0.42353575  0.58861364  0.24366145  1
  Te  Te112  1  0.43857137  0.57326112  0.53761291  1
  Te  Te113  1  0.44014057  0.58712855  0.93525192  1
  Te  Te114  1  0.41185014  0.92629268  0.26526532  1
  Te  Te115  1  0.39533292  0.93250848  0.58100905  1
  Te  Te116  1  0.40375183  0.92679326  0.91164177  1
  Te  Te117  1  0.76679945  0.24880863  0.25926137  1
  Te  Te118  1  0.76085412  0.24429792  0.58981677  1
  Te  Te119  1  0.76565083  0.23495571  0.93471894  1
  Te  Te120  1  0.78633808  0.59704958  0.24887820  1
  Te  Te121  1  0.77465405  0.59491010  0.57143064  1
  Te  Te122  1  0.71121548  0.58503004  0.92214225  1
  Te  Te123  1  0.76967419  0.91751439  0.23259595  1
  Te  Te124  1  0.73714166  0.91097660  0.58545259  1
  Te  Te125  1  0.73856065  0.91134542  0.91837323  1
  Te  Te126  1  0.24235042  0.27983802  0.08345585  1
  Te  Te127  1  0.26302903  0.28937689  0.40790166  1
  Te  Te128  1  0.23026018  0.22329555  0.72118112  1
  Te  Te129  1  0.25147691  0.58680563  0.09223331  1
  Te  Te130  1  0.23861371  0.56825628  0.41889813  1
  Te  Te131  1  0.24240915  0.59668501  0.77023821  1
  Te  Te132  1  0.22022051  0.91129426  0.06781702  1
  Te  Te133  1  0.26206619  0.89766973  0.43216334  1
  Te  Te134  1  0.22756057  0.94366909  0.75207422  1
  Te  Te135  1  0.58098590  0.25108585  0.09716542  1
  Te  Te136  1  0.59007866  0.26489211  0.41494443  1
  Te  Te137  1  0.56285427  0.23970473  0.72741420  1
  Te  Te138  1  0.63953423  0.58345300  0.05849843  1
  Te  Te139  1  0.56248121  0.60831920  0.42847115  1
  Te  Te140  1  0.58848473  0.56853323  0.74117126  1
  Te  Te141  1  0.58017521  0.90637374  0.07298703  1
  Te  Te142  1  0.55197498  0.94582668  0.42820627  1
  Te  Te143  1  0.55824009  0.92010764  0.75716712  1
  Te  Te144  1  0.92640601  0.23889579  0.06376054  1
  Te  Te145  1  0.92677490  0.22847820  0.40866620  1
  Te  Te146  1  0.91611812  0.24647953  0.74420707  1
  Te  Te147  1  0.90607292  0.60417390  0.08605842  1
  Te  Te148  1  0.88632472  0.59501100  0.36963528  1
  Te  Te149  1  0.89809428  0.57764600  0.76244318  1
  Te  Te150  1  0.94835947  0.88917207  0.10137352  1
  Te  Te151  1  0.91188360  0.89027163  0.41878027  1
  Te  Te152  1  0.93551776  0.91373147  0.75683637  1
  Te  Te153  1  0.25944950  0.08737777  0.23086235  1
  Te  Te154  1  0.25378649  0.10152004  0.58481123  1
  Te  Te155  1  0.20773710  0.06251201  0.89859651  1
  Te  Te156  1  0.25023862  0.38462463  0.28770074  1
  Te  Te157  1  0.25534204  0.40733366  0.56985608  1
  Te  Te158  1  0.26073124  0.41440015  0.91352720  1
  Te  Te159  1  0.24735333  0.75339080  0.25332013  1
  Te  Te160  1  0.22886782  0.74884910  0.61020614  1
  Te  Te161  1  0.23300965  0.77280591  0.92354700  1
  Te  Te162  1  0.60282492  0.08590106  0.24877432  1
  Te  Te163  1  0.56065510  0.08136163  0.58685556  1
  Te  Te164  1  0.57735399  0.08215471  0.89775346  1
  Te  Te165  1  0.60501949  0.45887224  0.22690467  1
  Te  Te166  1  0.58165396  0.42135992  0.57809628  1
  Te  Te167  1  0.56222729  0.41097438  0.92565707  1
  Te  Te168  1  0.57802622  0.76497105  0.25315545  1
  Te  Te169  1  0.58601555  0.74901325  0.59989740  1
  Te  Te170  1  0.61108019  0.73771035  0.93818198  1
  Te  Te171  1  0.89628234  0.08321714  0.25304650  1
  Te  Te172  1  0.90588871  0.08916700  0.59413941  1
  Te  Te173  1  0.91671756  0.07419463  0.93383895  1
  Te  Te174  1  0.91642011  0.42313418  0.26350823  1
  Te  Te175  1  0.92601649  0.40967213  0.57929270  1
  Te  Te176  1  0.92625263  0.41364417  0.94390430  1
  Te  Te177  1  0.95910943  0.70459129  0.28117084  1
  Te  Te178  1  0.91593950  0.73600929  0.57416209  1
  Te  Te179  1  0.94545083  0.74437454  0.89378251  1
