# generated using pymatgen
data_In2Te3
_symmetry_space_group_name_H-M   'P 1'
_cell_length_a   18.77613129
_cell_length_b   18.76682485
_cell_length_c   18.77048194
_cell_angle_alpha   89.98313963
_cell_angle_beta   90.02767569
_cell_angle_gamma   89.93856617
_symmetry_Int_Tables_number   1
_chemical_formula_structural   In2Te3
_chemical_formula_sum   'In72 Te108'
_cell_volume   6614.11921464
_cell_formula_units_Z   36
loop_
 _symmetry_equiv_pos_site_id
 _symmetry_equiv_pos_as_xyz
  1  'x, y, z'
loop_
 _atom_site_type_symbol
 _atom_site_label
 _atom_site_symmetry_multiplicity
 _atom_site_fract_x
 _atom_site_fract_y
 _atom_site_fract_z
 _atom_site_occupancy
  In  In0  1  0.51099341  0.65749119  0.86225468  1
  In  In1  1  0.18669577  0.62791762  0.47313839  1
  In  In2  1  0.33578546  0.32829321  -0.01241942  1
  In  In3  1  0.16526097  0.82483390  -0.00371831  1
  In  In4  1  0.68635434  0.33564015  0.32026775  1
  In  In5  1  0.80761598  0.81705320  0.67517441  1
  In  In6  1  0.67594960  0.49484221  0.15525154  1
  In  In7  1  0.35283500  0.82038674  0.50600910  1
  In  In8  1  0.71583067  0.50579346  0.83056279  1
  In  In9  1  0.84442283  0.32693260  0.51738582  1
  In  In10  1  0.49400925  0.49151016  0.00520479  1
  In  In11  1  0.82539746  -0.01290552  0.16323289  1
  In  In12  1  0.15424422  0.30742275  0.85137417  1
  In  In13  1  0.35248299  0.50709571  0.17570613  1
  In  In14  1  0.84321962  0.18806602  0.66859995  1
  In  In15  1  0.64012524  0.84596856  0.47489956  1
  In  In16  1  0.68351288  0.66828599  0.00457970  1
  In  In17  1  -0.00848830  0.01414947  0.65850228  1
  In  In18  1  0.14388874  0.82380797  0.68984409  1
  In  In19  1  0.48753646  0.01042772  0.83908912  1
  In  In20  1  -0.00652405  0.33453081  0.68205997  1
  In  In21  1  0.16912245  0.48987566  0.66447960  1
  In  In22  1  0.82974721  0.84180608  0.02326871  1
  In  In23  1  0.84157804  0.01203804  0.84836315  1
  In  In24  1  -0.02130998  0.81807511  0.15293495  1
  In  In25  1  -0.01417215  0.17659718  0.49647843  1
  In  In26  1  0.14440924  0.02316870  0.15276487  1
  In  In27  1  -0.01314544  0.51602142  0.13569503  1
  In  In28  1  0.18253141  -0.00570604  0.51930641  1
  In  In29  1  -0.00651956  -0.00894191  0.31378434  1
  In  In30  1  -0.00813898  0.16219828  0.13854116  1
  In  In31  1  0.17167011  0.36344361  0.15688418  1
  In  In32  1  0.17641907  0.82222299  0.34666284  1
  In  In33  1  0.49585681  0.33334161  0.83341745  1
  In  In34  1  -0.01194411  0.33339011  0.34157468  1
  In  In35  1  0.63809334  -0.02601237  0.02324900  1
  In  In36  1  0.64762255  0.66838856  0.32127371  1
  In  In37  1  0.64610339  0.16841040  0.17988511  1
  In  In38  1  0.64960545  0.01617534  0.64238523  1
  In  In39  1  0.47580216  0.85375295  0.67904328  1
  In  In40  1  -0.00624099  0.80643000  0.84234249  1
  In  In41  1  0.67042840  0.32923186  0.01329778  1
  In  In42  1  0.37634403  0.03589354  0.35414233  1
  In  In43  1  0.18968844  0.16605300  0.68662396  1
  In  In44  1  0.50360643  0.33358914  0.49982424  1
  In  In45  1  0.68496983  0.66876459  0.67192052  1
  In  In46  1  -0.02760912  0.81253901  0.48505774  1
  In  In47  1  0.34201018  0.82215152  0.18057403  1
  In  In48  1  0.16862158  0.17259043  0.33231304  1
  In  In49  1  0.36545838  0.01612673  0.65952697  1
  In  In50  1  0.15133957  0.66092552  0.17314356  1
  In  In51  1  0.82596719  0.49683309  0.32967565  1
  In  In52  1  0.13118632  0.51536968  -0.02186339  1
  In  In53  1  0.17165045  0.01456028  0.84364736  1
  In  In54  1  0.33116387  0.02193979  0.00514882  1
  In  In55  1  0.67554850  0.79914914  0.82344299  1
  In  In56  1  0.50791934  0.66838408  0.49686886  1
  In  In57  1  0.34811807  0.33809511  0.30668134  1
  In  In58  1  0.50413202  0.50079564  0.33286390  1
  In  In59  1  0.48971283  0.48431154  0.66172981  1
  In  In60  1  0.82378955  0.83089142  0.30309935  1
  In  In61  1  0.65111212  0.18179018  0.82581420  1
  In  In62  1  0.31449934  0.65600098  0.67293669  1
  In  In63  1  0.31709912  0.84418288  0.85009816  1
  In  In64  1  0.34974955  0.17102219  0.16504019  1
  In  In65  1  0.32894384  0.67316235  -0.00229380  1
  In  In66  1  0.00101719  0.48339677  0.51229256  1
  In  In67  1  0.50738291  0.86037472  0.33879270  1
  In  In68  1  0.18641328  0.34656683  0.50658615  1
  In  In69  1  0.83289901  0.65305886  0.51179074  1
  In  In70  1  0.83434818  0.17783577  -0.00601702  1
  In  In71  1  0.67138102  0.16290474  0.48248049  1
  Te  Te72  1  0.10032550  0.11308744  0.04082729  1
  Te  Te73  1  0.08090232  0.07676100  0.41648074  1
  Te  Te74  1  0.07296682  0.09695604  0.75605537  1
  Te  Te75  1  0.06275365  0.40355403  0.05816510  1
  Te  Te76  1  0.09355253  0.41988258  0.40886554  1
  Te  Te77  1  0.08208703  0.41926694  0.77079608  1
  Te  Te78  1  0.06890200  0.73020975  0.06499976  1
  Te  Te79  1  0.07898624  0.72852304  0.41514624  1
  Te  Te80  1  0.07214089  0.71365342  0.75596337  1
  Te  Te81  1  0.43923581  0.08702484  0.08223349  1
  Te  Te82  1  0.43593857  0.12832341  0.45353398  1
  Te  Te83  1  0.42658465  0.11339205  0.75219482  1
  Te  Te84  1  0.42100587  0.39480870  0.09769750  1
  Te  Te85  1  0.40424818  0.42766549  0.42322424  1
  Te  Te86  1  0.39634676  0.40995087  0.75070165  1
  Te  Te87  1  0.42306867  0.74678860  0.08300062  1
  Te  Te88  1  0.42044261  0.74126987  0.39641827  1
  Te  Te89  1  0.41327734  0.74498038  0.76588205  1
  Te  Te90  1  0.74298839  0.07870860  0.07014027  1
  Te  Te91  1  0.78497386  0.08338992  0.43432684  1
  Te  Te92  1  0.74937242  0.07996700  0.74481562  1
  Te  Te93  1  0.77517097  0.41317423  0.07935604  1
  Te  Te94  1  0.74984411  0.41658353  0.43282857  1
  Te  Te95  1  0.77975038  0.39834099  0.75401982  1
  Te  Te96  1  0.74522097  0.75567699  0.10793272  1
  Te  Te97  1  0.74596779  0.74682626  0.42167542  1
  Te  Te98  1  0.78764695  0.70545804  0.78165394  1
  Te  Te99  1  0.08079183  0.25533363  0.23925526  1
  Te  Te100  1  0.08747916  0.24945571  0.58300424  1
  Te  Te101  1  0.06416731  0.22610550  0.93547102  1
  Te  Te102  1  0.06499518  0.56988549  0.25002879  1
  Te  Te103  1  0.08617253  0.58941346  0.58155740  1
  Te  Te104  1  0.01712808  0.58400574  0.91115236  1
  Te  Te105  1  0.09229004  0.89616191  0.24208960  1
  Te  Te106  1  0.06707985  0.90561020  0.57102399  1
  Te  Te107  1  0.07707148  0.91758057  0.91320679  1
  Te  Te108  1  0.44186359  0.23168149  0.26383146  1
  Te  Te109  1  0.42811568  0.22883424  0.57460375  1
  Te  Te110  1  0.42295944  0.23304616  0.91605280  1
  Te  Te111  1  0.44362377  0.60186438  0.24249438  1
  Te  Te112  1  0.40731581  0.58527226  0.57485448  1
  Te  Te113  1  0.39974792  0.56587977  0.91077848  1
  Te  Te114  1  0.41942044  0.94106525  0.24071426  1
  Te  Te115  1  0.44188453  0.93406481  0.55364987  1
  Te  Te116  1  0.42193816  0.91070408  0.93503184  1
  Te  Te117  1  0.76161225  0.24662073  0.22955446  1
  Te  Te118  1  0.73135478  0.25611088  0.59221152  1
  Te  Te119  1  0.75385887  0.26711418  0.89907459  1
  Te  Te120  1  0.75527800  0.59716285  0.23857589  1
  Te  Te121  1  0.74448667  0.56329127  0.58832670  1
  Te  Te122  1  0.77850336  0.55536580  0.96256070  1
  Te  Te123  1  0.72115459  0.93558888  0.26095302  1
  Te  Te124  1  0.73919916  0.91087256  0.57505530  1
  Te  Te125  1  0.74214663  0.91454090  0.91146084  1
  Te  Te126  1  0.24529885  0.25045258  0.08545953  1
  Te  Te127  1  0.26602504  0.25677224  0.41013259  1
  Te  Te128  1  0.26114960  0.27866590  0.74882477  1
  Te  Te129  1  0.24324048  0.57079356  0.07891167  1
  Te  Te130  1  0.27607612  0.54054812  0.40013456  1
  Te  Te131  1  0.23527757  0.57684117  0.76709271  1
  Te  Te132  1  0.24806229  0.91370607  0.08753478  1
  Te  Te133  1  0.27040776  0.92484387  0.41030413  1
  Te  Te134  1  0.25266233  0.92693856  0.73115422  1
  Te  Te135  1  0.56875760  0.24272745  0.07690568  1
  Te  Te136  1  0.58261103  0.25124921  0.39330519  1
  Te  Te137  1  0.58675541  0.27403668  0.73094511  1
  Te  Te138  1  0.57711110  0.58994864  0.08646554  1
  Te  Te139  1  0.60228190  0.57028760  0.42939129  1
  Te  Te140  1  0.58280629  0.58152480  0.75185779  1
  Te  Te141  1  0.58233712  0.89801177  0.13503313  1
  Te  Te142  1  0.59272730  0.97045810  0.40263547  1
  Te  Te143  1  0.59181556  0.91909428  0.75611502  1
  Te  Te144  1  0.90940683  0.27191357  0.08169411  1
  Te  Te145  1  0.88404360  0.23668445  0.39787060  1
  Te  Te146  1  0.92703996  0.24141454  0.77744810  1
  Te  Te147  1  0.90188931  0.60360172  0.04955758  1
  Te  Te148  1  0.92353782  0.57615630  0.41630554  1
  Te  Te149  1  0.93797045  0.55290226  0.77860405  1
  Te  Te150  1  0.93857188  0.94065180  0.07103245  1
  Te  Te151  1  0.89693217  0.92066387  0.40915955  1
  Te  Te152  1  0.91399470  0.91164304  0.74745362  1
  Te  Te153  1  0.25146428  0.07260112  0.25167340  1
  Te  Te154  1  0.26783105  0.10668646  0.57004062  1
  Te  Te155  1  0.27483911  0.10578153  0.89641486  1
  Te  Te156  1  0.23896612  0.44795708  0.26510824  1
  Te  Te157  1  0.27889411  0.40592518  0.60592007  1
  Te  Te158  1  0.23783179  0.42072161  0.91796399  1
  Te  Te159  1  0.25806730  0.72324376  0.26355902  1
  Te  Te160  1  0.23663462  0.75584957  0.57882206  1
  Te  Te161  1  0.22742738  0.72860760  0.89571544  1
  Te  Te162  1  0.61060396  0.05313740  0.26675595  1
  Te  Te163  1  0.55801975  0.11580594  0.57572815  1
  Te  Te164  1  0.58758374  0.08591991  0.92610021  1
  Te  Te165  1  0.58036617  0.40923681  0.23702177  1
  Te  Te166  1  0.59498721  0.41202256  0.58762282  1
  Te  Te167  1  0.59766152  0.43084422  0.91087765  1
  Te  Te168  1  0.58380654  0.77591536  0.23626526  1
  Te  Te169  1  0.57696632  0.75906869  0.59916956  1
  Te  Te170  1  0.58088770  0.76772492  0.93889697  1
  Te  Te171  1  0.90457055  0.09215707  0.24399761  1
  Te  Te172  1  0.88613803  0.07583551  0.56286129  1
  Te  Te173  1  0.93911254  0.10061995  0.91648963  1
  Te  Te174  1  0.91617788  0.41708565  0.23750188  1
  Te  Te175  1  0.89837941  0.43450032  0.61388517  1
  Te  Te176  1  0.88208452  0.44296799  0.85918669  1
  Te  Te177  1  0.92446998  0.73251397  0.25976282  1
  Te  Te178  1  0.92031528  0.73531757  0.60603167  1
  Te  Te179  1  0.90131934  0.73851899  0.93854864  1
