# generated using pymatgen
data_In2Te3
_symmetry_space_group_name_H-M   'P 1'
_cell_length_a   18.74805465
_cell_length_b   18.74136896
_cell_length_c   18.73760415
_cell_angle_alpha   90.01983961
_cell_angle_beta   90.09723000
_cell_angle_gamma   90.08892304
_symmetry_Int_Tables_number   1
_chemical_formula_structural   In2Te3
_chemical_formula_sum   'In72 Te108'
_cell_volume   6583.70565801
_cell_formula_units_Z   36
loop_
 _symmetry_equiv_pos_site_id
 _symmetry_equiv_pos_as_xyz
  1  'x, y, z'
loop_
 _atom_site_type_symbol
 _atom_site_label
 _atom_site_symmetry_multiplicity
 _atom_site_fract_x
 _atom_site_fract_y
 _atom_site_fract_z
 _atom_site_occupancy
  In  In0  1  0.00281993  0.66128436  0.31610989  1
  In  In1  1  0.68136845  0.16086280  0.17590084  1
  In  In2  1  0.68215450  0.83871781  0.48902640  1
  In  In3  1  0.68549243  0.33480004  0.32391593  1
  In  In4  1  0.31030406  0.49944748  0.17473301  1
  In  In5  1  0.15050905  0.34135370  0.49639384  1
  In  In6  1  0.33210579  0.83623139  0.49342285  1
  In  In7  1  0.66582922  0.49327177  0.83436524  1
  In  In8  1  0.15512647  0.16972184  0.01392070  1
  In  In9  1  0.13640996  0.65344090  0.50116008  1
  In  In10  1  0.84150416  0.50997465  0.00193265  1
  In  In11  1  0.51398819  0.18715386  0.66894866  1
  In  In12  1  0.66118116  0.52278800  0.17084234  1
  In  In13  1  0.17665688  0.66345529  0.15610028  1
  In  In14  1  -0.00326479  0.00615265  0.66960925  1
  In  In15  1  0.17250885  0.82633182  -0.00355024  1
  In  In16  1  0.32271970  0.66060902  0.31162491  1
  In  In17  1  0.01531142  0.49733015  0.13078252  1
  In  In18  1  0.82740015  0.00188321  0.84652539  1
  In  In19  1  0.51476790  -0.04514605  0.15371482  1
  In  In20  1  0.50229957  0.50282983  0.68894806  1
  In  In21  1  0.28981657  0.17746647  0.47335222  1
  In  In22  1  0.16025758  0.20234986  0.64437022  1
  In  In23  1  0.01186374  0.81923410  0.86310687  1
  In  In24  1  0.15290236  0.00733692  0.15797633  1
  In  In25  1  0.49624450  0.14882084  -0.00857734  1
  In  In26  1  0.84184621  -0.00590983  0.49226490  1
  In  In27  1  0.32888877  0.17174666  0.80760819  1
  In  In28  1  0.28862580  0.36245569  -0.02910030  1
  In  In29  1  0.48359272  0.34469019  0.48500788  1
  In  In30  1  0.54006728  -0.00498350  0.47593826  1
  In  In31  1  0.32610787  0.48812947  0.49439263  1
  In  In32  1  0.87378617  0.31927523  0.13335184  1
  In  In33  1  0.32359697  0.34502502  0.67867459  1
  In  In34  1  0.15683802  0.66464036  0.85334718  1
  In  In35  1  0.50291088  0.34558397  0.16174752  1
  In  In36  1  0.35415252  -0.00838823  0.31746328  1
  In  In37  1  0.51033155  -0.03805931  0.86801032  1
  In  In38  1  0.68831333  -0.02962355  0.33900257  1
  In  In39  1  0.83056023  0.33666055  0.83180959  1
  In  In40  1  0.69057789  0.33275087  -0.02259796  1
  In  In41  1  0.00314053  0.18325870  0.84598082  1
  In  In42  1  -0.01739782  0.48817372  0.52047722  1
  In  In43  1  0.83514946  0.81557704  0.66276328  1
  In  In44  1  -0.01053209  0.82165220  0.49735729  1
  In  In45  1  0.00962713  0.50296438  0.83922027  1
  In  In46  1  0.15455787  0.02321751  0.47909975  1
  In  In47  1  0.00767129  0.84600407  0.16198317  1
  In  In48  1  0.49108087  0.82957561  0.68919382  1
  In  In49  1  0.82011865  0.82085887  0.32611796  1
  In  In50  1  0.68212764  0.16192257  0.52528804  1
  In  In51  1  0.14883300  0.19312245  0.32394406  1
  In  In52  1  0.67392558  0.51341826  0.49530815  1
  In  In53  1  0.82130007  0.51909504  0.32195734  1
  In  In54  1  0.32422751  0.66859645  0.69989512  1
  In  In55  1  0.51052328  0.65093924  0.49198048  1
  In  In56  1  0.33242966  -0.01951105  -0.00480140  1
  In  In57  1  0.67350153  0.65358690  0.66886302  1
  In  In58  1  0.68568750  0.32648767  0.67428958  1
  In  In59  1  0.85607328  0.00360060  0.19045517  1
  In  In60  1  0.68149400  -0.02191890  0.01200636  1
  In  In61  1  0.32881524  -0.01720105  0.68698643  1
  In  In62  1  0.49544485  0.33099254  0.81649859  1
  In  In63  1  0.50207265  0.71180394  0.16233985  1
  In  In64  1  0.49858028  0.17024473  0.32188658  1
  In  In65  1  0.31300623  0.18515903  0.13921672  1
  In  In66  1  0.16652953  0.83405075  0.69153271  1
  In  In67  1  0.84556505  0.17303107  0.68803692  1
  In  In68  1  0.47082259  0.53959468  -0.00557738  1
  In  In69  1  -0.00658687  0.32778958  0.34080013  1
  In  In70  1  0.16331889  -0.02421709  0.82831725  1
  In  In71  1  0.84738959  0.67287168  0.83677123  1
  Te  Te72  1  0.05095908  0.10802167  0.10626350  1
  Te  Te73  1  0.05352131  0.09926008  0.39742741  1
  Te  Te74  1  0.09556935  0.09028095  0.75151088  1
  Te  Te75  1  0.09204945  0.38939590  0.06305295  1
  Te  Te76  1  0.07539337  0.43848563  0.40699822  1
  Te  Te77  1  0.10882934  0.41073783  0.77461086  1
  Te  Te78  1  0.07300951  0.73852382  0.07178017  1
  Te  Te79  1  0.08931060  0.75784194  0.39960625  1
  Te  Te80  1  0.06708834  0.73529790  0.74641776  1
  Te  Te81  1  0.41824982  0.07403174  0.10026849  1
  Te  Te82  1  0.41764157  0.08791188  0.42894012  1
  Te  Te83  1  0.43414860  0.07500155  0.75848280  1
  Te  Te84  1  0.40829707  0.41591975  0.06389252  1
  Te  Te85  1  0.42471031  0.44306862  0.39346681  1
  Te  Te86  1  0.39490512  0.43925454  0.77788167  1
  Te  Te87  1  0.40325934  0.75363211  0.05840584  1
  Te  Te88  1  0.41372783  0.73854940  0.41056509  1
  Te  Te89  1  0.42842948  0.73396733  0.78748050  1
  Te  Te90  1  0.76958793  0.08193212  0.08252202  1
  Te  Te91  1  0.75239642  0.08893731  0.41002749  1
  Te  Te92  1  0.75151235  0.07318385  0.74114801  1
  Te  Te93  1  0.74343425  0.41233606  0.09628735  1
  Te  Te94  1  0.76788371  0.41408891  0.42414873  1
  Te  Te95  1  0.76781013  0.44071758  0.73468556  1
  Te  Te96  1  0.71952033  0.76215380  0.04170841  1
  Te  Te97  1  0.76069874  0.73093617  0.42808813  1
  Te  Te98  1  0.73765452  0.75574778  0.76310382  1
  Te  Te99  1  0.06648908  0.26601494  0.22477652  1
  Te  Te100  1  0.04487410  0.25766409  0.56503145  1
  Te  Te101  1  0.07112072  0.27766748  0.94526200  1
  Te  Te102  1  0.09557351  0.56485917  0.24289607  1
  Te  Te103  1  0.07268093  0.57222754  0.60548262  1
  Te  Te104  1  0.07105276  0.58661375  0.94718444  1
  Te  Te105  1  0.08310618  0.92772224  0.26036708  1
  Te  Te106  1  0.09088942  0.91839369  0.58018815  1
  Te  Te107  1  0.07607375  0.93655781  0.94427968  1
  Te  Te108  1  0.40538339  0.25936867  0.24363655  1
  Te  Te109  1  0.39960815  0.24945833  0.58344194  1
  Te  Te110  1  0.40524201  0.25126740  0.92225344  1
  Te  Te111  1  0.42425335  0.58896976  0.22506024  1
  Te  Te112  1  0.41096086  0.58540551  0.59328343  1
  Te  Te113  1  0.38934532  0.62064416  0.90161529  1
  Te  Te114  1  0.41161983  0.88321554  0.23378251  1
  Te  Te115  1  0.42420339  0.92561707  0.57763136  1
  Te  Te116  1  0.42400355  0.86800291  0.95259139  1
  Te  Te117  1  0.78356420  0.25086121  0.24386977  1
  Te  Te118  1  0.78136923  0.26687195  0.57241052  1
  Te  Te119  1  0.77272760  0.22827079  0.91625415  1
  Te  Te120  1  0.74481176  0.62057643  0.24469685  1
  Te  Te121  1  0.77074178  0.58197427  0.58399572  1
  Te  Te122  1  0.74095161  0.59095422  0.92267494  1
  Te  Te123  1  0.74104655  0.89613936  0.21792627  1
  Te  Te124  1  0.75165301  0.92504633  0.59474509  1
  Te  Te125  1  0.76589258  0.88849621  0.92485133  1
  Te  Te126  1  0.21884334  0.29894502  0.09876293  1
  Te  Te127  1  0.25626654  0.30116819  0.38637363  1
  Te  Te128  1  0.21877467  0.27098629  0.77091854  1
  Te  Te129  1  0.24805512  0.57190646  0.06202281  1
  Te  Te130  1  0.23657573  0.58000692  0.41151469  1
  Te  Te131  1  0.22680112  0.57078158  0.75625570  1
  Te  Te132  1  0.25237703  0.90572859  0.10161188  1
  Te  Te133  1  0.24433660  0.92404480  0.40408410  1
  Te  Te134  1  0.27574794  0.88095006  0.78877460  1
  Te  Te135  1  0.58649562  0.24143650  0.08276765  1
  Te  Te136  1  0.59211870  0.24622098  0.42048616  1
  Te  Te137  1  0.61119099  0.24024737  0.77680308  1
  Te  Te138  1  0.58394678  0.60717969  0.06949538  1
  Te  Te139  1  0.60084623  0.59091264  0.39267354  1
  Te  Te140  1  0.57462792  0.60322331  0.77659413  1
  Te  Te141  1  0.59056176  0.85907666  0.05669246  1
  Te  Te142  1  0.56838681  0.87472415  0.37905330  1
  Te  Te143  1  0.59445167  0.90783545  0.75987056  1
  Te  Te144  1  0.93604129  0.20663169  0.06025233  1
  Te  Te145  1  0.91691424  0.21206709  0.39338663  1
  Te  Te146  1  0.94499668  0.28099725  0.74250680  1
  Te  Te147  1  0.90669327  0.59482181  0.10311666  1
  Te  Te148  1  0.91765497  0.58838773  0.41895397  1
  Te  Te149  1  0.90997079  0.56931464  0.75074027  1
  Te  Te150  1  0.90719916  0.91878106  0.08015425  1
  Te  Te151  1  0.92408469  0.91285209  0.39351818  1
  Te  Te152  1  0.92883017  0.90264206  0.75704488  1
  Te  Te153  1  0.25327049  0.09384582  0.25460657  1
  Te  Te154  1  0.24955767  0.07782869  0.59448092  1
  Te  Te155  1  0.25272344  0.08879940  0.91967949  1
  Te  Te156  1  0.24811676  0.40424874  0.26638808  1
  Te  Te157  1  0.22724143  0.43044459  0.59613379  1
  Te  Te158  1  0.20683462  0.45511785  0.88324660  1
  Te  Te159  1  0.24084317  0.76349089  0.24489573  1
  Te  Te160  1  0.24585349  0.74718032  0.58494348  1
  Te  Te161  1  0.27017095  0.72122003  0.94290679  1
  Te  Te162  1  0.58412437  0.06493310  0.25035031  1
  Te  Te163  1  0.58939388  0.07096219  0.60320528  1
  Te  Te164  1  0.60453663  0.07467398  0.91643619  1
  Te  Te165  1  0.58045063  0.42782203  0.26449046  1
  Te  Te166  1  0.57768003  0.40935078  0.59296334  1
  Te  Te167  1  0.57015099  0.41832760  0.92902750  1
  Te  Te168  1  0.59603466  0.78168832  0.25329684  1
  Te  Te169  1  0.58264069  0.75469145  0.58209054  1
  Te  Te170  1  0.61388447  0.75853611  0.94139903  1
  Te  Te171  1  0.92299804  0.10251420  0.28056647  1
  Te  Te172  1  0.92193619  0.09626669  0.57541712  1
  Te  Te173  1  0.93073457  0.07883633  0.92300320  1
  Te  Te174  1  0.91474480  0.42670136  0.24101060  1
  Te  Te175  1  0.92923404  0.36939146  0.59068098  1
  Te  Te176  1  0.92306880  0.40528153  0.93177823  1
  Te  Te177  1  0.91021886  0.74415174  0.22825492  1
  Te  Te178  1  0.92196971  0.72511866  0.58519815  1
  Te  Te179  1  0.91298929  0.74885822  0.94706208  1
