# generated using pymatgen
data_In2Te3
_symmetry_space_group_name_H-M   'P 1'
_cell_length_a   18.95804499
_cell_length_b   18.96054738
_cell_length_c   18.97128408
_cell_angle_alpha   90.14979713
_cell_angle_beta   90.02717810
_cell_angle_gamma   90.08120282
_symmetry_Int_Tables_number   1
_chemical_formula_structural   In2Te3
_chemical_formula_sum   'In72 Te108'
_cell_volume   6819.29028418
_cell_formula_units_Z   36
loop_
 _symmetry_equiv_pos_site_id
 _symmetry_equiv_pos_as_xyz
  1  'x, y, z'
loop_
 _atom_site_type_symbol
 _atom_site_label
 _atom_site_symmetry_multiplicity
 _atom_site_fract_x
 _atom_site_fract_y
 _atom_site_fract_z
 _atom_site_occupancy
  In  In0  1  0.49130559  0.17756266  0.66946450  1
  In  In1  1  0.35666114  0.51111737  0.83499633  1
  In  In2  1  0.02626449  0.32784960  0.67211786  1
  In  In3  1  -0.03812771  0.84434024  0.18335509  1
  In  In4  1  0.47989686  0.68983808  0.15365159  1
  In  In5  1  0.67230973  0.67059735  0.34742089  1
  In  In6  1  0.63591767  0.64824320  0.68943167  1
  In  In7  1  0.64830669  0.51514849  0.52661213  1
  In  In8  1  0.14979209  0.82517720  -0.01092153  1
  In  In9  1  0.34521062  -0.00014774  -0.01481792  1
  In  In10  1  0.16980967  0.31919393  0.17198355  1
  In  In11  1  -0.00135259  0.12577755  0.84679725  1
  In  In12  1  0.15638647  0.65893566  0.82895912  1
  In  In13  1  0.83108206  0.66853536  0.87173011  1
  In  In14  1  0.22392605  0.19483342  0.65683141  1
  In  In15  1  0.34948166  0.36151786  -0.02523545  1
  In  In16  1  0.16293676  0.17343532  0.32237968  1
  In  In17  1  0.50142732  -0.00967826  0.48557869  1
  In  In18  1  0.53404937  0.14411481  0.01376809  1
  In  In19  1  0.52862493  0.31317147  0.16991692  1
  In  In20  1  0.63819091  0.49576496  0.15650684  1
  In  In21  1  0.16082161  0.65895853  0.16516742  1
  In  In22  1  0.79962311  0.68772235  0.48974056  1
  In  In23  1  -0.02061975  0.49398407  0.51194665  1
  In  In24  1  0.84683244  -0.02158018  0.48443938  1
  In  In25  1  0.15003375  -0.00875220  0.84812513  1
  In  In26  1  0.52686156  0.83366635  0.66197758  1
  In  In27  1  0.82866648  0.49165373  0.33061935  1
  In  In28  1  0.83561528  0.14413669  0.68719368  1
  In  In29  1  0.83525464  0.34041139  0.52280425  1
  In  In30  1  0.66103193  0.37049057  0.68796568  1
  In  In31  1  0.31403240  0.51032253  0.16614585  1
  In  In32  1  0.35136640  0.68251962  0.64451884  1
  In  In33  1  0.35389411  0.17344543  0.15241196  1
  In  In34  1  0.68850262  0.82412149  0.15873298  1
  In  In35  1  0.15610785  0.81716457  0.32252791  1
  In  In36  1  0.65041842  0.16386132  0.51628872  1
  In  In37  1  -0.01831114  0.81240842  0.84047530  1
  In  In38  1  0.67871584  -0.00669286  0.01846131  1
  In  In39  1  0.15678101  0.51135540  0.00882098  1
  In  In40  1  -0.01136967  0.33091917  0.32208150  1
  In  In41  1  0.82880043  0.00202898  0.85620468  1
  In  In42  1  0.13596909  -0.01977957  0.17895153  1
  In  In43  1  -0.02106077  0.34443969  -0.02168480  1
  In  In44  1  0.80265567  0.51555715  0.73120896  1
  In  In45  1  0.15736620  0.48388232  0.67743529  1
  In  In46  1  0.50038798  0.33750715  0.83749652  1
  In  In47  1  0.35286362  0.02325701  0.67762806  1
  In  In48  1  0.01400424  -0.00091127  0.65454353  1
  In  In49  1  0.66080311  0.33972324  -0.01860626  1
  In  In50  1  0.48537646  0.50886070  0.00764252  1
  In  In51  1  0.15435605  0.31680851  0.81130721  1
  In  In52  1  0.16656292  0.13533278  0.01211755  1
  In  In53  1  0.83020023  0.32008296  0.16680934  1
  In  In54  1  0.00645901  0.66900564  0.30755425  1
  In  In55  1  0.65154417  0.30314665  0.36093434  1
  In  In56  1  0.63626191  0.80457512  0.85667868  1
  In  In57  1  0.84567550  0.64370054  0.13203373  1
  In  In58  1  0.36052703  0.01616250  0.31694433  1
  In  In59  1  0.65357554  0.01046579  0.30660801  1
  In  In60  1  0.15185508  0.01005862  0.47863295  1
  In  In61  1  0.80547942  0.84359342  0.66927392  1
  In  In62  1  0.18464424  0.33816162  0.49394942  1
  In  In63  1  0.36019659  0.84637743  0.82893725  1
  In  In64  1  0.33919815  0.34296848  0.31120621  1
  In  In65  1  0.33314641  0.83438755  0.47756176  1
  In  In66  1  0.34552248  0.51036739  0.48641468  1
  In  In67  1  -0.01844188  0.67376494  0.64594866  1
  In  In68  1  0.17966544  0.84202504  0.63652287  1
  In  In69  1  0.35418071  0.86541030  0.16317959  1
  In  In70  1  0.84739544  0.13794305  0.32498115  1
  In  In71  1  0.34564591  0.66262137  0.33543651  1
  Te  Te72  1  0.06252252  0.05718835  0.07842990  1
  Te  Te73  1  0.06598503  0.10284018  0.40556610  1
  Te  Te74  1  0.10564453  0.08769692  0.73726524  1
  Te  Te75  1  0.08127179  0.40124808  0.07889211  1
  Te  Te76  1  0.07016571  0.41157169  0.42261631  1
  Te  Te77  1  0.06145520  0.43241482  0.78219741  1
  Te  Te78  1  0.07473703  0.77035560  0.10831306  1
  Te  Te79  1  0.08435882  0.73041230  0.41475553  1
  Te  Te80  1  0.08815285  0.76490917  0.73453732  1
  Te  Te81  1  0.43467866  0.06035181  0.09412780  1
  Te  Te82  1  0.40957982  0.09042736  0.43239922  1
  Te  Te83  1  0.44768543  0.07930139  0.77319739  1
  Te  Te84  1  0.41647641  0.40467227  0.10671034  1
  Te  Te85  1  0.42230148  0.40889952  0.41038134  1
  Te  Te86  1  0.44333457  0.43777727  0.74313415  1
  Te  Te87  1  0.43088263  0.79368408  0.06059275  1
  Te  Te88  1  0.43419172  0.76188184  0.40035180  1
  Te  Te89  1  0.43956766  0.74365633  0.75105740  1
  Te  Te90  1  0.78203129  0.07018720  0.09759969  1
  Te  Te91  1  0.74191170  0.08538145  0.42426451  1
  Te  Te92  1  0.73703756  0.06030357  0.75657586  1
  Te  Te93  1  0.74414207  0.41774604  0.08403212  1
  Te  Te94  1  0.74182607  0.41650960  0.42915290  1
  Te  Te95  1  0.77680022  0.37632397  0.78650909  1
  Te  Te96  1  0.75866018  0.73762514  0.05823873  1
  Te  Te97  1  0.72875516  0.79184567  0.41260344  1
  Te  Te98  1  0.74555311  0.73329420  0.75506539  1
  Te  Te99  1  0.05817524  0.23384844  0.22817320  1
  Te  Te100  1  0.09918427  0.24138086  0.57360274  1
  Te  Te101  1  0.08810627  0.23589662  0.92068966  1
  Te  Te102  1  0.07206443  0.56355340  0.23050715  1
  Te  Te103  1  0.08306437  0.57864829  0.58420925  1
  Te  Te104  1  0.07202118  0.61465497  0.94274038  1
  Te  Te105  1  0.04301237  0.92647832  0.29064708  1
  Te  Te106  1  0.07082989  0.90330184  0.55084181  1
  Te  Te107  1  0.04612494  0.92021350  0.93133509  1
  Te  Te108  1  0.44953091  0.22019277  0.26232751  1
  Te  Te109  1  0.36678554  0.24002924  0.62042739  1
  Te  Te110  1  0.44009697  0.24533847  0.94222912  1
  Te  Te111  1  0.42796049  0.57481324  0.24157585  1
  Te  Te112  1  0.43730493  0.59284287  0.56861666  1
  Te  Te113  1  0.42549636  0.61434795  0.91851072  1
  Te  Te114  1  0.43831984  0.89674937  0.28007290  1
  Te  Te115  1  0.40467568  0.90428660  0.59217378  1
  Te  Te116  1  0.44946228  0.94214680  0.89707510  1
  Te  Te117  1  0.74796161  0.23695699  0.26393210  1
  Te  Te118  1  0.74933176  0.24679340  0.60301445  1
  Te  Te119  1  0.74559787  0.26546869  0.88801403  1
  Te  Te120  1  0.74385437  0.57770395  0.23893798  1
  Te  Te121  1  0.76950226  0.57750363  0.59262205  1
  Te  Te122  1  0.77082505  0.55392989  0.93960247  1
  Te  Te123  1  0.76109495  0.92742804  0.24244790  1
  Te  Te124  1  0.74247751  0.93918143  0.58017001  1
  Te  Te125  1  0.74530777  0.89556034  0.91978745  1
  Te  Te126  1  0.25743093  0.25560471  0.06540143  1
  Te  Te127  1  0.26673027  0.24710427  0.40478005  1
  Te  Te128  1  0.28866543  0.27418246  0.76484143  1
  Te  Te129  1  0.26333368  0.60751347  0.06302006  1
  Te  Te130  1  0.24695145  0.57911398  0.40213481  1
  Te  Te131  1  0.25824150  0.59141437  0.73695907  1
  Te  Te132  1  0.23898875  0.92354699  0.06792635  1
  Te  Te133  1  0.24541493  0.92583143  0.38709214  1
  Te  Te134  1  0.24786716  0.92280842  0.74602869  1
  Te  Te135  1  0.62900106  0.23609787  0.09066344  1
  Te  Te136  1  0.55130424  0.25676659  0.45771450  1
  Te  Te137  1  0.59398735  0.25121543  0.75703173  1
  Te  Te138  1  0.58398650  0.60793731  0.07197143  1
  Te  Te139  1  0.57566352  0.59352026  0.42662287  1
  Te  Te140  1  0.59743868  0.52376975  0.75626327  1
  Te  Te141  1  0.58500726  0.90253324  0.08804098  1
  Te  Te142  1  0.60143883  0.91411641  0.40906249  1
  Te  Te143  1  0.59889982  0.91114413  0.76403867  1
  Te  Te144  1  0.91132864  0.24841838  0.06651588  1
  Te  Te145  1  0.90083489  0.25355004  0.41787663  1
  Te  Te146  1  0.94025143  0.23053928  0.75506117  1
  Te  Te147  1  0.94346606  0.57432422  0.04487400  1
  Te  Te148  1  0.90598756  0.58855626  0.41915043  1
  Te  Te149  1  0.92543633  0.60335539  0.76422001  1
  Te  Te150  1  0.87049113  0.94135253  0.11378146  1
  Te  Te151  1  0.91182669  0.91107444  0.37358048  1
  Te  Te152  1  0.92235848  0.91942180  0.74626812  1
  Te  Te153  1  0.24609213  0.08472339  0.22544512  1
  Te  Te154  1  0.25476245  0.07194231  0.56875342  1
  Te  Te155  1  0.25694311  0.08871133  0.89958199  1
  Te  Te156  1  0.22595677  0.42924548  0.25973247  1
  Te  Te157  1  0.26256092  0.42274879  0.59077152  1
  Te  Te158  1  0.23586722  0.43336312  0.90314452  1
  Te  Te159  1  0.26296484  0.75705736  0.23271113  1
  Te  Te160  1  0.24388177  0.73480849  0.55112551  1
  Te  Te161  1  0.24942989  0.76020501  0.89562900  1
  Te  Te162  1  0.56294558  0.11350550  0.26054542  1
  Te  Te163  1  0.57087551  0.06506973  0.59805412  1
  Te  Te164  1  0.64214464  0.10228783  0.92284284  1
  Te  Te165  1  0.58611487  0.41144997  0.27033687  1
  Te  Te166  1  0.57173637  0.39913450  0.57541040  1
  Te  Te167  1  0.58395361  0.45109750  0.90578595  1
  Te  Te168  1  0.58783113  0.74627809  0.24433913  1
  Te  Te169  1  0.59722078  0.73500632  0.57904712  1
  Te  Te170  1  0.56220404  0.69301235  0.91246307  1
  Te  Te171  1  0.89855587  0.07340527  0.20100095  1
  Te  Te172  1  0.91958806  0.08553592  0.57603235  1
  Te  Te173  1  0.89327324  0.10064111  0.94577356  1
  Te  Te174  1  0.92007725  0.42856704  0.22848942  1
  Te  Te175  1  0.91091570  0.42206411  0.62667182  1
  Te  Te176  1  0.89838554  0.46602540  0.94229437  1
  Te  Te177  1  0.88409964  0.73547312  0.25221706  1
  Te  Te178  1  0.90032685  0.77254997  0.56867773  1
  Te  Te179  1  0.90723965  0.76321850  0.95785982  1
