# generated using pymatgen
data_In2Te3
_symmetry_space_group_name_H-M   'P 1'
_cell_length_a   18.99248255
_cell_length_b   19.01878238
_cell_length_c   19.00166599
_cell_angle_alpha   90.03891660
_cell_angle_beta   90.00841566
_cell_angle_gamma   90.00069735
_symmetry_Int_Tables_number   1
_chemical_formula_structural   In2Te3
_chemical_formula_sum   'In72 Te108'
_cell_volume   6863.66407870
_cell_formula_units_Z   36
loop_
 _symmetry_equiv_pos_site_id
 _symmetry_equiv_pos_as_xyz
  1  'x, y, z'
loop_
 _atom_site_type_symbol
 _atom_site_label
 _atom_site_symmetry_multiplicity
 _atom_site_fract_x
 _atom_site_fract_y
 _atom_site_fract_z
 _atom_site_occupancy
  In  In0  1  0.52484899  0.49647897  0.66182820  1
  In  In1  1  0.02640758  -0.01004304  0.68102893  1
  In  In2  1  0.80403538  0.15924702  0.65100607  1
  In  In3  1  0.00174496  0.66794034  0.68008213  1
  In  In4  1  0.37027909  0.03105918  0.37064625  1
  In  In5  1  0.60244353  0.51264449  -0.02763535  1
  In  In6  1  0.83090315  0.81479941  0.32765998  1
  In  In7  1  0.02352261  -0.00255564  0.34048571  1
  In  In8  1  -0.04363282  0.17224079  0.50160389  1
  In  In9  1  -0.00422842  0.18114199  0.82920026  1
  In  In10  1  0.35605951  0.17171171  0.82495676  1
  In  In11  1  0.82530441  0.65393345  0.82951658  1
  In  In12  1  -0.00799456  0.14510457  0.14439963  1
  In  In13  1  0.66492260  0.01553418  -0.01643604  1
  In  In14  1  0.34021389  0.67498953  0.35911174  1
  In  In15  1  0.84610884  0.00699680  0.81820205  1
  In  In16  1  0.46109524  0.14905866  -0.00686216  1
  In  In17  1  0.60603029  -0.00481384  0.63496651  1
  In  In18  1  0.49511425  0.31868064  0.17282140  1
  In  In19  1  0.80137017  0.00542041  0.48832090  1
  In  In20  1  0.16964276  0.01090077  0.54834295  1
  In  In21  1  0.79866584  0.25585187  0.36888102  1
  In  In22  1  0.34387840  0.16435483  0.16702807  1
  In  In23  1  0.62667164  0.13319751  0.19187897  1
  In  In24  1  0.38006584  0.87537475  0.50772110  1
  In  In25  1  0.36372147  0.66703478  -0.02376871  1
  In  In26  1  0.17461311  0.65966067  0.84387288  1
  In  In27  1  0.64503986  0.85531128  0.48608571  1
  In  In28  1  0.00525066  -0.03698518  0.00003359  1
  In  In29  1  0.12799547  0.50149155  0.66348591  1
  In  In30  1  0.33910214  0.52563498  0.81672632  1
  In  In31  1  0.49925010  0.68060096  0.50535243  1
  In  In32  1  0.17771095  0.33204319  0.15380628  1
  In  In33  1  0.83192807  0.80394662  -0.00632469  1
  In  In34  1  0.31096549  0.50712142  0.18175305  1
  In  In35  1  0.65479730  0.32489099  0.63510734  1
  In  In36  1  -0.01479504  0.33201211  -0.01030586  1
  In  In37  1  -0.03301349  0.33289717  0.67172840  1
  In  In38  1  0.16430010  0.49963970  0.00266283  1
  In  In39  1  0.32288388  0.51269872  0.52373698  1
  In  In40  1  0.47994829  0.86907008  -0.03507661  1
  In  In41  1  0.66590322  0.49067948  0.18524891  1
  In  In42  1  0.17131903  0.01303694  0.15787625  1
  In  In43  1  0.33100314  0.33890324  -0.00422894  1
  In  In44  1  0.65072359  0.18735526  0.82826434  1
  In  In45  1  0.17725391  0.80540146  -0.01139957  1
  In  In46  1  0.80545164  0.47195858  0.00177358  1
  In  In47  1  0.83738274  0.64576816  0.53353398  1
  In  In48  1  0.83458025  0.00590565  0.17718405  1
  In  In49  1  0.20352591  0.84777193  0.67543570  1
  In  In50  1  -0.02093982  0.64497547  0.00002282  1
  In  In51  1  0.48561207  0.50972178  0.31590571  1
  In  In52  1  0.13826269  0.65140373  0.17011577  1
  In  In53  1  0.66029656  0.82418095  0.82500500  1
  In  In54  1  0.65683206  0.69301968  0.32939441  1
  In  In55  1  0.14928743  0.30826568  0.51282781  1
  In  In56  1  -0.00650712  0.63823730  0.32781507  1
  In  In57  1  0.36445507  0.01421022  0.66583429  1
  In  In58  1  0.33995030  0.84536307  0.17810175  1
  In  In59  1  0.19273410  0.69023644  0.49357718  1
  In  In60  1  -0.01407289  0.79560056  0.48876067  1
  In  In61  1  0.37303048  0.31942544  0.35185335  1
  In  In62  1  0.17011187  0.18456481  0.34566285  1
  In  In63  1  0.50469473  0.66255589  0.82213824  1
  In  In64  1  0.82303958  0.65558173  0.16626899  1
  In  In65  1  0.18528042  0.15891954  0.68405766  1
  In  In66  1  -0.00397813  0.47873534  0.49906375  1
  In  In67  1  0.35708063  0.32113885  0.65741587  1
  In  In68  1  0.67821453  0.84996427  0.15854400  1
  In  In69  1  0.83146211  0.19269562  -0.00962581  1
  In  In70  1  0.18723207  0.86171849  0.32313636  1
  In  In71  1  0.79958960  0.48610370  0.67002001  1
  Te  Te72  1  0.09077740  0.08039309  0.04937596  1
  Te  Te73  1  0.08878464  0.09157117  0.43978178  1
  Te  Te74  1  0.09892737  0.07903309  0.77939365  1
  Te  Te75  1  0.07363061  0.41769177  0.08826798  1
  Te  Te76  1  0.08960702  0.40149957  0.41691843  1
  Te  Te77  1  0.06672456  0.40376267  0.75123892  1
  Te  Te78  1  0.06836920  0.74411817  0.07486554  1
  Te  Te79  1  0.09234087  0.75264463  0.38884174  1
  Te  Te80  1  0.10424800  0.75578537  0.74838447  1
  Te  Te81  1  0.40853989  0.05360402  0.09468504  1
  Te  Te82  1  0.47541631  0.07586716  0.46988083  1
  Te  Te83  1  0.44873030  0.12632707  0.71684520  1
  Te  Te84  1  0.40580179  0.41812765  0.10119125  1
  Te  Te85  1  0.42037224  0.43696003  0.43454396  1
  Te  Te86  1  0.42624958  0.42032887  0.74858342  1
  Te  Te87  1  0.41899384  0.77163962  0.06988532  1
  Te  Te88  1  0.43738331  0.77931871  0.40466381  1
  Te  Te89  1  0.39990405  0.74624896  0.76908448  1
  Te  Te90  1  0.75315168  0.09203870  0.08329789  1
  Te  Te91  1  0.74447886  0.11863040  0.41805876  1
  Te  Te92  1  0.72934589  0.07632521  0.75331364  1
  Te  Te93  1  0.73850661  0.39269431  0.10518811  1
  Te  Te94  1  0.73648463  0.39141850  0.36026888  1
  Te  Te95  1  0.71266856  0.40090358  0.75571403  1
  Te  Te96  1  0.72957324  0.73123346  0.07621263  1
  Te  Te97  1  0.75758517  0.74852634  0.44101124  1
  Te  Te98  1  0.74767363  0.74123412  0.74225589  1
  Te  Te99  1  0.09063016  0.23194571  0.22743937  1
  Te  Te100  1  0.06466887  0.22520247  0.60858334  1
  Te  Te101  1  0.08618801  0.25857072  0.91260531  1
  Te  Te102  1  0.07787234  0.54721814  0.25100229  1
  Te  Te103  1  0.07807128  0.60632798  0.55865552  1
  Te  Te104  1  0.07056527  0.56826849  0.90549011  1
  Te  Te105  1  0.07944645  0.91356174  0.22815990  1
  Te  Te106  1  0.08479284  0.88602739  0.57145892  1
  Te  Te107  1  0.10396090  0.90404078  0.91033725  1
  Te  Te108  1  0.44198895  0.21272838  0.27203234  1
  Te  Te109  1  0.45036442  0.29191781  0.54967956  1
  Te  Te110  1  0.43294127  0.27561228  0.90648740  1
  Te  Te111  1  0.40657203  0.61178372  0.23747272  1
  Te  Te112  1  0.41967429  0.59542842  0.60179960  1
  Te  Te113  1  0.44390733  0.55051924  0.92551490  1
  Te  Te114  1  0.41981389  0.93878260  0.26189176  1
  Te  Te115  1  0.46981627  0.91401628  0.62212799  1
  Te  Te116  1  0.38650035  0.94851633  0.88095615  1
  Te  Te117  1  0.70652069  0.24281130  0.24524137  1
  Te  Te118  1  0.76994877  0.26847192  0.55797718  1
  Te  Te119  1  0.71960733  0.27055748  0.93188076  1
  Te  Te120  1  0.74781534  0.58512862  0.27501640  1
  Te  Te121  1  0.72009091  0.56569989  0.57336176  1
  Te  Te122  1  0.73458329  0.58263952  0.92383729  1
  Te  Te123  1  0.74743720  0.92741709  0.27258963  1
  Te  Te124  1  0.73623076  0.92369818  0.59294813  1
  Te  Te125  1  0.76079603  0.91507499  0.91742203  1
  Te  Te126  1  0.25100522  0.23263197  0.06740403  1
  Te  Te127  1  0.27202280  0.24744551  0.43838906  1
  Te  Te128  1  0.25560840  0.26643026  0.76089732  1
  Te  Te129  1  0.25315623  0.60403950  0.06779647  1
  Te  Te130  1  0.24179493  0.57222817  0.40939417  1
  Te  Te131  1  0.23625475  0.58891813  0.72452772  1
  Te  Te132  1  0.24718536  0.90957342  0.07704512  1
  Te  Te133  1  0.25421315  0.93714779  0.43552278  1
  Te  Te134  1  0.26878628  0.95005008  0.76039513  1
  Te  Te135  1  0.56493532  0.22091587  0.08307492  1
  Te  Te136  1  0.55208420  0.21953969  0.45686614  1
  Te  Te137  1  0.56424563  0.24121957  0.71953442  1
  Te  Te138  1  0.57452144  0.57012334  0.10239537  1
  Te  Te139  1  0.57417202  0.59265820  0.40735301  1
  Te  Te140  1  0.60375942  0.58871028  0.74467038  1
  Te  Te141  1  0.58072686  0.92629132  0.06986521  1
  Te  Te142  1  0.57294602  0.96404642  0.41511439  1
  Te  Te143  1  0.57416995  0.92830756  0.76517682  1
  Te  Te144  1  0.90505906  0.26087133  0.10329569  1
  Te  Te145  1  0.95425871  0.27227684  0.39322261  1
  Te  Te146  1  0.87932532  0.24258207  0.75635027  1
  Te  Te147  1  0.90589421  0.55423911  0.09355241  1
  Te  Te148  1  0.89883755  0.56581212  0.41940832  1
  Te  Te149  1  0.91157262  0.56394023  0.74137887  1
  Te  Te150  1  0.90142406  0.90091745  0.09158619  1
  Te  Te151  1  0.92000519  0.91424121  0.41905545  1
  Te  Te152  1  0.93110089  0.90751273  0.75487178  1
  Te  Te153  1  0.25154491  0.08034242  0.26839291  1
  Te  Te154  1  0.28066292  0.10810012  0.57882571  1
  Te  Te155  1  0.32941495  0.07744040  0.93983650  1
  Te  Te156  1  0.26555640  0.38925733  0.26290699  1
  Te  Te157  1  0.23664899  0.40843860  0.59509637  1
  Te  Te158  1  0.25336374  0.43057276  0.90347970  1
  Te  Te159  1  0.24499101  0.74359560  0.24490155  1
  Te  Te160  1  0.28916227  0.77017461  0.57766623  1
  Te  Te161  1  0.29264210  0.75663653  0.87477991  1
  Te  Te162  1  0.56356713  0.02971099  0.27437002  1
  Te  Te163  1  0.62222573  0.11660036  0.53799225  1
  Te  Te164  1  0.56399827  0.08449172  0.89843775  1
  Te  Te165  1  0.57471869  0.39512929  0.27633625  1
  Te  Te166  1  0.60684508  0.43848872  0.55208357  1
  Te  Te167  1  0.62439623  0.39817494  0.88448197  1
  Te  Te168  1  0.58031205  0.77742935  0.24006151  1
  Te  Te169  1  0.59236048  0.76091882  0.58444173  1
  Te  Te170  1  0.57243475  0.75474692  0.92538623  1
  Te  Te171  1  0.92421384  0.08701569  0.26820588  1
  Te  Te172  1  0.91367741  0.05950941  0.59441601  1
  Te  Te173  1  0.91711450  0.08082191  0.93008869  1
  Te  Te174  1  0.87423622  0.38135569  0.31056774  1
  Te  Te175  1  0.88421350  0.40305043  0.56650078  1
  Te  Te176  1  0.89588250  0.40988099  0.90615325  1
  Te  Te177  1  0.92609056  0.74132329  0.23873921  1
  Te  Te178  1  0.90345989  0.75980850  0.60968882  1
  Te  Te179  1  0.93014245  0.74470311  0.89708118  1
