# generated using pymatgen
data_In2Te3
_symmetry_space_group_name_H-M   'P 1'
_cell_length_a   18.76029576
_cell_length_b   18.76876523
_cell_length_c   18.76874189
_cell_angle_alpha   90.00966977
_cell_angle_beta   89.98446303
_cell_angle_gamma   89.99836741
_symmetry_Int_Tables_number   1
_chemical_formula_structural   In2Te3
_chemical_formula_sum   'In72 Te108'
_cell_volume   6608.61607416
_cell_formula_units_Z   36
loop_
 _symmetry_equiv_pos_site_id
 _symmetry_equiv_pos_as_xyz
  1  'x, y, z'
loop_
 _atom_site_type_symbol
 _atom_site_label
 _atom_site_symmetry_multiplicity
 _atom_site_fract_x
 _atom_site_fract_y
 _atom_site_fract_z
 _atom_site_occupancy
  In  In0  1  0.81184728  0.50798480  0.65285948  1
  In  In1  1  0.34793463  -0.00562173  0.35005442  1
  In  In2  1  0.65430816  0.31851563  0.66295046  1
  In  In3  1  0.16494058  0.18468939  0.34987724  1
  In  In4  1  0.66003285  0.83649872  0.82950343  1
  In  In5  1  0.00518883  -0.02908294  0.32412651  1
  In  In6  1  0.80771750  0.16213999  -0.01578949  1
  In  In7  1  0.19097454  -0.00301133  0.50348162  1
  In  In8  1  0.35456946  0.16977364  0.16731169  1
  In  In9  1  0.49301266  0.68065891  0.49375477  1
  In  In10  1  0.82817387  0.36007770  0.16999228  1
  In  In11  1  0.83670147  0.49756338  0.00016390  1
  In  In12  1  -0.00170055  0.52708006  0.47802850  1
  In  In13  1  0.17216964  -0.02976317  0.19359434  1
  In  In14  1  0.35492714  0.69311124  0.03252809  1
  In  In15  1  0.36908150  -0.04548655  -0.01189359  1
  In  In16  1  0.67048249  -0.02653023  0.32240714  1
  In  In17  1  -0.00438560  0.32948028  0.00268708  1
  In  In18  1  -0.01568356  0.65858951  0.32837345  1
  In  In19  1  0.64839814  0.34634012  0.34607620  1
  In  In20  1  0.81589503  0.33187820  0.50598183  1
  In  In21  1  0.63607468  -0.03371462  0.02004401  1
  In  In22  1  0.81419427  0.67028298  0.17543779  1
  In  In23  1  0.32596648  -0.00144619  0.66728748  1
  In  In24  1  0.50473820  0.15046125  0.34713711  1
  In  In25  1  0.82435000  0.82661982  0.66880371  1
  In  In26  1  -0.00436478  0.84339982  0.48972933  1
  In  In27  1  0.17161157  0.66279434  0.50289335  1
  In  In28  1  0.19194920  0.70438573  0.18571942  1
  In  In29  1  0.00071847  0.33265762  0.67951691  1
  In  In30  1  0.18205508  0.34383495  0.50326142  1
  In  In31  1  0.00701435  0.67057030  0.66369106  1
  In  In32  1  0.17584756  0.35505953  0.17759479  1
  In  In33  1  0.50955106  0.82590582  0.32522907  1
  In  In34  1  0.82727485  -0.03822435  0.16056475  1
  In  In35  1  -0.01543143  0.51504349  0.16693652  1
  In  In36  1  0.49867642  0.33134365  0.82841731  1
  In  In37  1  0.51270036  0.15734299  0.00178419  1
  In  In38  1  0.32956499  0.49504490  0.82919139  1
  In  In39  1  0.50430116  0.32420470  0.16703162  1
  In  In40  1  0.83201585  0.15298212  0.36070516  1
  In  In41  1  0.81210575  -0.00127311  0.83131460  1
  In  In42  1  0.16137568  0.17364754  -0.02060775  1
  In  In43  1  -0.01110755  -0.02870826  0.01057515  1
  In  In44  1  -0.00589290  0.16108055  0.80628859  1
  In  In45  1  0.18462850  0.50378879  0.34957907  1
  In  In46  1  0.16400666  0.67930821  0.83139843  1
  In  In47  1  0.67597889  0.81419277  0.47168389  1
  In  In48  1  0.01053917  0.49284240  0.83156542  1
  In  In49  1  0.64691432  0.17048799  0.18107581  1
  In  In50  1  0.51506700  0.66497987  0.82260765  1
  In  In51  1  0.66026322  0.51833340  0.48284390  1
  In  In52  1  0.16443247  0.83846260  0.00367180  1
  In  In53  1  0.34766495  0.66356056  0.65112948  1
  In  In54  1  0.83001174  -0.00467704  0.50876974  1
  In  In55  1  0.00379092  -0.00172594  0.67184253  1
  In  In56  1  0.48490821  0.33412470  0.50560298  1
  In  In57  1  0.50015152  0.83672126  0.66804242  1
  In  In58  1  0.34537327  0.36226496  0.00005625  1
  In  In59  1  0.33581826  0.15677722  0.80166762  1
  In  In60  1  0.66605175  0.17020594  0.82486055  1
  In  In61  1  0.18712258  0.53483797  -0.00901480  1
  In  In62  1  0.65239341  0.50305766  0.82002580  1
  In  In63  1  -0.00651753  0.17509449  0.50789495  1
  In  In64  1  0.65132659  0.67296133  0.00836617  1
  In  In65  1  0.33320889  0.33044912  0.65853980  1
  In  In66  1  0.01717994  0.15794012  0.17484748  1
  In  In67  1  0.18372101  -0.00066994  0.83093957  1
  In  In68  1  0.51496709  0.52930703  0.01985318  1
  In  In69  1  0.33994263  0.82627683  0.48602495  1
  In  In70  1  0.48376717  0.51095543  0.31582521  1
  In  In71  1  0.85348414  0.69988696  0.85567125  1
  Te  Te72  1  0.09647629  0.06716232  0.08081203  1
  Te  Te73  1  0.07018692  0.07315087  0.41834601  1
  Te  Te74  1  0.10844440  0.09085904  0.73339522  1
  Te  Te75  1  0.08564400  0.43068861  0.07492640  1
  Te  Te76  1  0.07732941  0.41500814  0.41298174  1
  Te  Te77  1  0.10150242  0.42308636  0.73989287  1
  Te  Te78  1  0.09381568  0.73237286  0.07911619  1
  Te  Te79  1  0.08284173  0.74589793  0.41040828  1
  Te  Te80  1  0.07786892  0.76695214  0.74925155  1
  Te  Te81  1  0.42764902  0.06376255  0.08626094  1
  Te  Te82  1  0.41210768  0.08776312  0.44470068  1
  Te  Te83  1  0.43255232  0.05880275  0.75418127  1
  Te  Te84  1  0.41717693  0.43766660  0.10897065  1
  Te  Te85  1  0.41145752  0.41973242  0.40804069  1
  Te  Te86  1  0.43140086  0.43068545  0.73760130  1
  Te  Te87  1  0.44533270  0.77251405  0.12089860  1
  Te  Te88  1  0.39668097  0.72897699  0.37596787  1
  Te  Te89  1  0.40784732  0.75448235  0.75826121  1
  Te  Te90  1  0.73821327  0.07343383  0.08891500  1
  Te  Te91  1  0.72010800  0.07582229  0.42824680  1
  Te  Te92  1  0.73440879  0.07486247  0.72708741  1
  Te  Te93  1  0.73520500  0.44231244  0.09169381  1
  Te  Te94  1  0.76127063  0.43075216  0.40488355  1
  Te  Te95  1  0.74752331  0.40691411  0.74791681  1
  Te  Te96  1  0.74567407  0.76400433  0.07928186  1
  Te  Te97  1  0.75282166  0.71872846  0.38205304  1
  Te  Te98  1  0.74154168  0.73159907  0.75487335  1
  Te  Te99  1  0.07465825  0.27034003  0.25847418  1
  Te  Te100  1  0.09507623  0.24869379  0.59035223  1
  Te  Te101  1  0.07635608  0.26222867  0.89097535  1
  Te  Te102  1  0.09871860  0.58396560  0.24701098  1
  Te  Te103  1  0.09220582  0.56611919  0.59156099  1
  Te  Te104  1  0.06777117  0.60070141  0.92364576  1
  Te  Te105  1  0.06257135  0.87525215  0.22632669  1
  Te  Te106  1  0.09391988  0.91007544  0.58609518  1
  Te  Te107  1  0.07738866  0.91252343  0.90070129  1
  Te  Te108  1  0.41974337  0.25641385  0.27423442  1
  Te  Te109  1  0.41993550  0.23007813  0.59035649  1
  Te  Te110  1  0.40902160  0.24398182  0.92594281  1
  Te  Te111  1  0.39975316  0.57541753  0.21190258  1
  Te  Te112  1  0.41432765  0.57100366  0.55685820  1
  Te  Te113  1  0.41142540  0.58851591  0.92212438  1
  Te  Te114  1  0.41723747  0.91619267  0.24578967  1
  Te  Te115  1  0.42264993  0.92250669  0.56777458  1
  Te  Te116  1  0.45861324  0.88812928  0.89434059  1
  Te  Te117  1  0.75013372  0.24674705  0.26321765  1
  Te  Te118  1  0.74617267  0.22270513  0.58638099  1
  Te  Te119  1  0.73646610  0.26760935  0.91163475  1
  Te  Te120  1  0.74335509  0.60073079  0.28487184  1
  Te  Te121  1  0.73684759  0.60725426  0.57498604  1
  Te  Te122  1  0.74311909  0.59161440  0.91003686  1
  Te  Te123  1  0.74024776  0.87162189  0.24030301  1
  Te  Te124  1  0.72916943  0.90892185  0.58420871  1
  Te  Te125  1  0.74968413  0.90536797  0.93391798  1
  Te  Te126  1  0.24804527  0.25055257  0.08473251  1
  Te  Te127  1  0.26997476  0.25106563  0.42629032  1
  Te  Te128  1  0.24746823  0.26551459  0.76290719  1
  Te  Te129  1  0.26996928  0.58511084  0.10772216  1
  Te  Te130  1  0.27717391  0.58809650  0.42997218  1
  Te  Te131  1  0.24643700  0.58724410  0.74117605  1
  Te  Te132  1  0.26831455  0.90366488  0.09624912  1
  Te  Te133  1  0.23260711  0.89838110  0.39286038  1
  Te  Te134  1  0.25785084  0.89887303  0.75338761  1
  Te  Te135  1  0.60272208  0.26200331  0.06700040  1
  Te  Te136  1  0.58997542  0.24152452  0.43633609  1
  Te  Te137  1  0.55407984  0.22580346  0.73343478  1
  Te  Te138  1  0.58730352  0.60435963  0.12760342  1
  Te  Te139  1  0.57951959  0.60822240  0.38840610  1
  Te  Te140  1  0.57704531  0.58084143  0.71924971  1
  Te  Te141  1  0.56437969  0.87828964  0.11711140  1
  Te  Te142  1  0.57228331  0.91918445  0.42897048  1
  Te  Te143  1  0.58610044  0.93213020  0.74431170  1
  Te  Te144  1  0.90974330  0.23869499  0.09087528  1
  Te  Te145  1  0.91946602  0.26635063  0.41076254  1
  Te  Te146  1  0.89559730  0.25035202  0.74338045  1
  Te  Te147  1  0.91436844  0.60720085  0.06982067  1
  Te  Te148  1  0.88177043  0.60546119  0.42486579  1
  Te  Te149  1  0.90944052  0.58689971  0.75488603  1
  Te  Te150  1  0.91185502  0.86231123  0.08003994  1
  Te  Te151  1  0.88837299  0.90509549  0.39938123  1
  Te  Te152  1  0.91430163  0.90987726  0.75950388  1
  Te  Te153  1  0.24618470  0.09227831  0.25327210  1
  Te  Te154  1  0.25574302  0.10111085  0.58340341  1
  Te  Te155  1  0.26993151  0.07381001  0.93415719  1
  Te  Te156  1  0.27389017  0.41358098  0.26988195  1
  Te  Te157  1  0.26621055  0.43790304  0.58065309  1
  Te  Te158  1  0.23121511  0.41083615  0.91244843  1
  Te  Te159  1  0.27836284  0.77527659  0.28084896  1
  Te  Te160  1  0.24742000  0.76325393  0.59019857  1
  Te  Te161  1  0.26405959  0.75172418  0.92476492  1
  Te  Te162  1  0.56775844  0.05792463  0.24288117  1
  Te  Te163  1  0.65014448  0.10443375  0.59205180  1
  Te  Te164  1  0.58986417  0.06378766  0.91163565  1
  Te  Te165  1  0.59483683  0.42876503  0.23375193  1
  Te  Te166  1  0.58501710  0.42518200  0.57942064  1
  Te  Te167  1  0.57515351  0.42260998  0.92545031  1
  Te  Te168  1  0.57599615  0.74740734  0.21267343  1
  Te  Te169  1  0.59334860  0.74765231  0.58534665  1
  Te  Te170  1  0.55382626  0.76913438  0.93209110  1
  Te  Te171  1  0.90660174  0.07267069  0.24463897  1
  Te  Te172  1  0.90591342  0.09157703  0.60059279  1
  Te  Te173  1  0.92472752  0.08273219  0.92264670  1
  Te  Te174  1  0.91248523  0.43318860  0.26564824  1
  Te  Te175  1  0.91818374  0.42532393  0.57593428  1
  Te  Te176  1  0.90653214  0.40381616  0.90271142  1
  Te  Te177  1  0.92151954  0.75790735  0.23890685  1
  Te  Te178  1  0.91001091  0.74570117  0.57160053  1
  Te  Te179  1  0.92984098  0.79334125  0.93817476  1
