# generated using pymatgen
data_In2Te3
_symmetry_space_group_name_H-M   'P 1'
_cell_length_a   18.78122568
_cell_length_b   18.78128894
_cell_length_c   18.78819996
_cell_angle_alpha   89.97656282
_cell_angle_beta   89.97798523
_cell_angle_gamma   90.03462213
_symmetry_Int_Tables_number   1
_chemical_formula_structural   In2Te3
_chemical_formula_sum   'In72 Te108'
_cell_volume   6627.26522343
_cell_formula_units_Z   36
loop_
 _symmetry_equiv_pos_site_id
 _symmetry_equiv_pos_as_xyz
  1  'x, y, z'
loop_
 _atom_site_type_symbol
 _atom_site_label
 _atom_site_symmetry_multiplicity
 _atom_site_fract_x
 _atom_site_fract_y
 _atom_site_fract_z
 _atom_site_occupancy
  In  In0  1  0.47469058  0.52206349  0.63825773  1
  In  In1  1  0.00890780  0.86360327  0.16842653  1
  In  In2  1  0.15402413  0.49492262  0.68003972  1
  In  In3  1  0.65457489  0.48173720  0.85251099  1
  In  In4  1  0.48460972  0.16508226  0.33308727  1
  In  In5  1  0.84068774  0.84269420  0.35861730  1
  In  In6  1  -0.00924306  0.47954593  0.17383388  1
  In  In7  1  0.31890086  0.84466949  0.49896341  1
  In  In8  1  0.50636678  0.66692325  0.15400179  1
  In  In9  1  0.17763669  0.84926048  0.66302687  1
  In  In10  1  0.66717450  0.84048946  0.51390745  1
  In  In11  1  0.33323143  0.16299579  0.82512871  1
  In  In12  1  0.66490827  0.16851513  0.48251943  1
  In  In13  1  0.00049096  0.66376678  -0.00790633  1
  In  In14  1  0.32722562  0.31730910  0.66482213  1
  In  In15  1  0.17663330  0.64694569  0.16409565  1
  In  In16  1  0.32792033  0.49263467  0.84721803  1
  In  In17  1  0.65540278  0.31826822  0.66733104  1
  In  In18  1  0.83496215  0.16586615  0.67386772  1
  In  In19  1  0.48938115  0.01147246  0.17839541  1
  In  In20  1  0.84758114  0.68999595  0.51252419  1
  In  In21  1  0.66586508  0.02024429  0.33068403  1
  In  In22  1  0.48698236  0.33162163  0.16040498  1
  In  In23  1  0.00958413  0.86150787  0.52162857  1
  In  In24  1  0.17727731  0.15014148  0.31242599  1
  In  In25  1  0.66785492  0.32771942  0.32631254  1
  In  In26  1  0.82410389  0.66602615  0.82622093  1
  In  In27  1  0.33275607  0.48642014  0.16163950  1
  In  In28  1  0.02484288  0.48969710  0.50503759  1
  In  In29  1  0.35434569  0.85931168  0.15964985  1
  In  In30  1  0.50786762  0.32575294  0.84097928  1
  In  In31  1  0.70415194  0.46349927  0.13966188  1
  In  In32  1  0.85076279  0.15666936  -0.01603969  1
  In  In33  1  0.82778141  0.48900808  0.31219694  1
  In  In34  1  0.33835353  0.34277496  0.33411507  1
  In  In35  1  0.68658210  0.84794982  0.83771877  1
  In  In36  1  0.48967935  -0.00168874  0.50069592  1
  In  In37  1  0.47513062  0.83886119  0.29679232  1
  In  In38  1  0.85667327  0.50494324  0.66984374  1
  In  In39  1  0.65539943  0.49600448  0.49459991  1
  In  In40  1  0.66980915  0.65492686  0.01761293  1
  In  In41  1  -0.00865329  0.15739039  0.51274345  1
  In  In42  1  0.17350432  0.83876140  -0.02388366  1
  In  In43  1  0.16912249  0.87134740  0.33141390  1
  In  In44  1  0.50464239  0.16895954  0.00363563  1
  In  In45  1  0.18946668  0.48897386  0.34112843  1
  In  In46  1  0.15376941  0.32035662  0.49717700  1
  In  In47  1  0.48495200  0.49745776  0.35008453  1
  In  In48  1  0.33281896  -0.01405248  -0.01191982  1
  In  In49  1  0.69879973  -0.00303854  0.67204807  1
  In  In50  1  -0.01266850  0.67738386  0.35031886  1
  In  In51  1  0.14848208  0.01449919  0.80592651  1
  In  In52  1  0.17883937  0.67208181  0.83730992  1
  In  In53  1  0.16814987  0.65093703  0.50149338  1
  In  In54  1  0.17219729  0.47611344  -0.00388915  1
  In  In55  1  0.85161850  0.01721411  0.15204397  1
  In  In56  1  -0.00153302  0.17298296  0.15968190  1
  In  In57  1  -0.00140986  0.32329578  -0.02007908  1
  In  In58  1  0.49932480  0.83810676  -0.02167166  1
  In  In59  1  0.49985209  0.83528168  0.66752105  1
  In  In60  1  -0.01013100  0.86466535  0.81121598  1
  In  In61  1  0.47725673  0.66023962  0.82885371  1
  In  In62  1  0.31778540  0.68407969  0.35047443  1
  In  In63  1  0.82849155  0.17571480  0.34194861  1
  In  In64  1  0.66878898  0.01162983  -0.01887135  1
  In  In65  1  0.67072625  0.68352352  0.68399378  1
  In  In66  1  0.49312660  0.17795061  0.67650454  1
  In  In67  1  0.81647878  0.65930123  0.16061540  1
  In  In68  1  0.83858035  0.31751333  0.83886432  1
  In  In69  1  0.18269360  0.19020644  0.03833568  1
  In  In70  1  0.00991707  0.33224175  0.67442290  1
  In  In71  1  0.67442890  0.82100377  0.16290754  1
  Te  Te72  1  0.07558814  0.08852934  0.06568985  1
  Te  Te73  1  0.10053533  0.08790158  0.43296509  1
  Te  Te74  1  0.06821904  0.12622199  0.75037500  1
  Te  Te75  1  0.08275283  0.39323018  0.08824566  1
  Te  Te76  1  0.07525727  0.40034721  0.39270243  1
  Te  Te77  1  0.08805961  0.40484806  0.77696565  1
  Te  Te78  1  0.08833686  0.74775251  0.08693536  1
  Te  Te79  1  0.09778677  0.75929066  0.41763291  1
  Te  Te80  1  0.08846014  0.76209662  0.75300191  1
  Te  Te81  1  0.39987550  0.08667723  0.08235047  1
  Te  Te82  1  0.40230895  0.10470077  0.44274730  1
  Te  Te83  1  0.40321700  0.07366247  0.72942749  1
  Te  Te84  1  0.40008856  0.40194776  0.06108560  1
  Te  Te85  1  0.41694712  0.40488006  0.44309650  1
  Te  Te86  1  0.42661235  0.41180109  0.74311778  1
  Te  Te87  1  0.41097008  0.74940414  0.06840908  1
  Te  Te88  1  0.42557374  0.76388491  0.42196680  1
  Te  Te89  1  0.40286365  0.75312660  0.74446976  1
  Te  Te90  1  0.74258508  0.09679692  0.08314747  1
  Te  Te91  1  0.76668686  0.06509674  0.43440094  1
  Te  Te92  1  0.75701454  0.08683684  0.77876889  1
  Te  Te93  1  0.79741779  0.38859399  0.05260005  1
  Te  Te94  1  0.75598625  0.40765065  0.42223471  1
  Te  Te95  1  0.75044651  0.41473252  0.74197446  1
  Te  Te96  1  0.77003274  0.76358493  0.05932199  1
  Te  Te97  1  0.74295985  0.74217322  0.41513099  1
  Te  Te98  1  0.77625828  0.78083195  0.73312177  1
  Te  Te99  1  0.08380509  0.24858518  0.25320121  1
  Te  Te100  1  0.09917035  0.22691981  0.60562267  1
  Te  Te101  1  0.07866543  0.20955759  0.92903265  1
  Te  Te102  1  0.08268114  0.58236462  0.26719514  1
  Te  Te103  1  0.06713712  0.59774824  0.60252220  1
  Te  Te104  1  0.08763205  0.57167760  0.90890994  1
  Te  Te105  1  0.09082376  0.96234491  0.24316801  1
  Te  Te106  1  0.08840574  0.96162141  0.60971391  1
  Te  Te107  1  0.07269272  0.93577755  0.91918129  1
  Te  Te108  1  0.38858252  0.23190266  0.23010970  1
  Te  Te109  1  0.40114439  0.22718985  0.57059983  1
  Te  Te110  1  0.40271053  0.25463444  0.92526807  1
  Te  Te111  1  0.40020474  0.59561942  0.24772424  1
  Te  Te112  1  0.38298886  0.60232463  0.55942569  1
  Te  Te113  1  0.43322813  0.56046944  0.92660952  1
  Te  Te114  1  0.37982803  0.96121930  0.28213935  1
  Te  Te115  1  0.39731665  0.92980631  0.60106504  1
  Te  Te116  1  0.41334589  0.91411641  0.88605838  1
  Te  Te117  1  0.74854527  0.24333017  0.23722971  1
  Te  Te118  1  0.75620561  0.25206072  0.57416556  1
  Te  Te119  1  0.74564559  0.25059614  0.93230657  1
  Te  Te120  1  0.72415001  0.57873782  0.24835388  1
  Te  Te121  1  0.74977735  0.58791842  0.58997238  1
  Te  Te122  1  0.75644534  0.56959408  0.92504009  1
  Te  Te123  1  0.75430917  0.92196316  0.24821558  1
  Te  Te124  1  0.77720443  0.91635908  0.57471109  1
  Te  Te125  1  0.77749933  0.92480910  0.92791846  1
  Te  Te126  1  0.27736570  0.26958399  0.11890118  1
  Te  Te127  1  0.25388871  0.24264154  0.41433775  1
  Te  Te128  1  0.23155955  0.24085798  0.74829702  1
  Te  Te129  1  0.26296106  0.58297518  0.05923443  1
  Te  Te130  1  0.28292248  0.56176356  0.44163160  1
  Te  Te131  1  0.26184711  0.58295353  0.74362392  1
  Te  Te132  1  0.23431237  0.92374923  0.08909378  1
  Te  Te133  1  0.23535141  0.95545880  0.43915179  1
  Te  Te134  1  0.25639100  0.92159310  0.76574019  1
  Te  Te135  1  0.59258669  0.26567103  0.07705022  1
  Te  Te136  1  0.56446623  0.26384771  0.41952438  1
  Te  Te137  1  0.60168424  0.22426070  0.77407645  1
  Te  Te138  1  0.58080696  0.55416602  0.08485076  1
  Te  Te139  1  0.57066425  0.59264503  0.42307336  1
  Te  Te140  1  0.58584995  0.57016418  0.74494573  1
  Te  Te141  1  0.57469471  0.91337085  0.09152862  1
  Te  Te142  1  0.57876195  0.91702220  0.40293807  1
  Te  Te143  1  0.58734010  0.92715461  0.75330550  1
  Te  Te144  1  0.89240772  0.26861117  0.08703663  1
  Te  Te145  1  0.91980678  0.25495496  0.42814647  1
  Te  Te146  1  0.94619818  0.22448051  0.76827106  1
  Te  Te147  1  0.91334078  0.57293615  0.08055165  1
  Te  Te148  1  0.90939030  0.57016730  0.42544640  1
  Te  Te149  1  0.93309376  0.58984605  0.76126675  1
  Te  Te150  1  0.92074002  0.92042511  0.06517933  1
  Te  Te151  1  0.94947528  0.92896951  0.40447024  1
  Te  Te152  1  0.92171395  0.97895071  0.74250433  1
  Te  Te153  1  0.25815145  0.05157855  0.23740399  1
  Te  Te154  1  0.19971903  0.05155044  0.55901842  1
  Te  Te155  1  0.23864990  0.08677769  0.92171160  1
  Te  Te156  1  0.23000538  0.39410625  0.22847234  1
  Te  Te157  1  0.23960725  0.41390215  0.58261530  1
  Te  Te158  1  0.23865842  0.38620106  0.89897929  1
  Te  Te159  1  0.24593259  0.76658445  0.24196217  1
  Te  Te160  1  0.25794499  0.73753431  0.59054340  1
  Te  Te161  1  0.27515913  0.74975113  0.91866850  1
  Te  Te162  1  0.59077164  0.11148281  0.23497406  1
  Te  Te163  1  0.59306360  0.07848232  0.58517097  1
  Te  Te164  1  0.55451366  0.06643045  0.90811289  1
  Te  Te165  1  0.57563659  0.42350755  0.24860227  1
  Te  Te166  1  0.56650824  0.40751402  0.58307932  1
  Te  Te167  1  0.59260337  0.38723108  0.94856820  1
  Te  Te168  1  0.58815357  0.74088729  0.25976604  1
  Te  Te169  1  0.57499652  0.73614026  0.57793014  1
  Te  Te170  1  0.59900440  0.73711557  0.90695522  1
  Te  Te171  1  0.92635494  0.08521001  0.26474801  1
  Te  Te172  1  0.91782968  0.05927179  0.60398692  1
  Te  Te173  1  0.88233311  0.05565561  0.87574601  1
  Te  Te174  1  0.91638836  0.38467928  0.25921526  1
  Te  Te175  1  0.91894406  0.40289323  0.57465623  1
  Te  Te176  1  0.91141862  0.42437157  0.91389513  1
  Te  Te177  1  0.91339418  0.75272658  0.24006926  1
  Te  Te178  1  0.93476653  0.76351414  0.60446941  1
  Te  Te179  1  0.92226036  0.75755538  0.90395723  1
