# generated using pymatgen
data_In2Te3
_symmetry_space_group_name_H-M   'P 1'
_cell_length_a   18.92272481
_cell_length_b   18.92040095
_cell_length_c   18.93565453
_cell_angle_alpha   90.05798867
_cell_angle_beta   90.03414141
_cell_angle_gamma   90.04026243
_symmetry_Int_Tables_number   1
_chemical_formula_structural   In2Te3
_chemical_formula_sum   'In72 Te108'
_cell_volume   6779.44159265
_cell_formula_units_Z   36
loop_
 _symmetry_equiv_pos_site_id
 _symmetry_equiv_pos_as_xyz
  1  'x, y, z'
loop_
 _atom_site_type_symbol
 _atom_site_label
 _atom_site_symmetry_multiplicity
 _atom_site_fract_x
 _atom_site_fract_y
 _atom_site_fract_z
 _atom_site_occupancy
  In  In0  1  0.86132953  0.53486259  0.70324264  1
  In  In1  1  0.35003874  0.84672101  0.15413909  1
  In  In2  1  0.66416071  0.14693824  0.14467401  1
  In  In3  1  0.69118062  0.49257545  0.15147663  1
  In  In4  1  0.48675716  0.17584546  0.68162106  1
  In  In5  1  -0.06920473  0.58488335  0.89120895  1
  In  In6  1  -0.00740275  -0.01023028  0.01086712  1
  In  In7  1  0.29484871  -0.05543762  0.64791382  1
  In  In8  1  0.00065965  0.82584111  0.14732059  1
  In  In9  1  0.31640960  0.50666610  0.81738631  1
  In  In10  1  0.32288143  -0.00033949  -0.03044493  1
  In  In11  1  0.53295009  0.68136627  0.86476788  1
  In  In12  1  0.50610938  -0.01366980  0.82581731  1
  In  In13  1  0.13230818  -0.02485159  0.48944170  1
  In  In14  1  0.83830425  0.68973050  0.12932665  1
  In  In15  1  0.32677374  0.51534112  0.17593730  1
  In  In16  1  0.01424116  0.76675865  0.81813583  1
  In  In17  1  0.50223775  0.52302000  0.69491220  1
  In  In18  1  0.68848147  0.16033706  0.47839368  1
  In  In19  1  -0.03565356  -0.04201630  0.32878089  1
  In  In20  1  0.33680391  0.16030068  0.82933417  1
  In  In21  1  0.82578568  0.31098067  0.13613857  1
  In  In22  1  0.50176356  0.81948693  0.33942461  1
  In  In23  1  0.29533286  0.53997927  0.49506632  1
  In  In24  1  0.15824186  0.31769515  0.83785081  1
  In  In25  1  -0.00749524  -0.02102833  0.66862382  1
  In  In26  1  0.68324665  0.16894673  0.81470495  1
  In  In27  1  0.48398544  0.50857547  0.33693526  1
  In  In28  1  0.13883774  0.82479436  0.33473488  1
  In  In29  1  0.83409902  0.49866538  0.33715546  1
  In  In30  1  0.25821471  0.76406431  0.49245240  1
  In  In31  1  0.33146848  0.33173638  0.33907950  1
  In  In32  1  0.65178846  0.33513519  0.33446970  1
  In  In33  1  0.84580166  0.15777752  0.33413733  1
  In  In34  1  0.83577136  0.67981614  0.50369786  1
  In  In35  1  0.15356460  0.18237316  0.67502646  1
  In  In36  1  0.68439277  0.50641620  0.51333197  1
  In  In37  1  0.68582111  0.69587086  0.35546154  1
  In  In38  1  0.49523644  0.67678341  0.51755799  1
  In  In39  1  0.50474340  0.16519759  0.33114566  1
  In  In40  1  0.52838778  0.65402976  0.17032115  1
  In  In41  1  0.00515126  0.34076157  0.65900888  1
  In  In42  1  0.85203067  0.34829542  0.84212619  1
  In  In43  1  0.67672446  0.35889886  0.67516719  1
  In  In44  1  0.14956471  0.82223291  0.00132719  1
  In  In45  1  0.01295945  0.51059401  0.18119047  1
  In  In46  1  -0.00633364  0.51115561  0.51666508  1
  In  In47  1  0.50790229  0.18124604  0.00242771  1
  In  In48  1  0.32151673  0.34001453  -0.00935079  1
  In  In49  1  0.32901857  0.67676189  0.02389511  1
  In  In50  1  0.74608782  -0.02270274  0.27006822  1
  In  In51  1  -0.00964089  0.32675312  0.34582122  1
  In  In52  1  0.66043100  0.33792919  -0.01699212  1
  In  In53  1  0.16267900  0.34038992  0.50676339  1
  In  In54  1  0.17224055  0.34827797  0.15328949  1
  In  In55  1  0.48622281  0.48053571  -0.01145569  1
  In  In56  1  0.31230377  0.18355402  0.18250844  1
  In  In57  1  0.83451871  0.14242032  0.65534960  1
  In  In58  1  0.49614222  0.83779269  0.66115094  1
  In  In59  1  0.68202207  0.83014707  0.50999174  1
  In  In60  1  0.50195547  0.01231599  0.15665814  1
  In  In61  1  0.15580308  0.13494211  0.32336904  1
  In  In62  1  0.50579317  0.02394572  0.49076749  1
  In  In63  1  0.16125761  0.52018434  0.66774576  1
  In  In64  1  0.83229225  0.80796173  0.68861070  1
  In  In65  1  -0.00297655  0.15812616  0.15602254  1
  In  In66  1  0.15684086  0.68018839  0.16541396  1
  In  In67  1  0.33321623  0.15918373  0.52177701  1
  In  In68  1  -0.01562618  0.15018082  0.85244897  1
  In  In69  1  0.33627277  0.83930583  0.82354479  1
  In  In70  1  0.67187699  -0.00974766  0.67799233  1
  In  In71  1  0.68313899  -0.02033625  0.00148949  1
  Te  Te72  1  0.09033262  0.07034001  0.08646574  1
  Te  Te73  1  0.04812180  0.06786736  0.40421425  1
  Te  Te74  1  0.07449650  0.08033795  0.75243310  1
  Te  Te75  1  0.07736518  0.42874890  0.07738492  1
  Te  Te76  1  0.07749880  0.42861112  0.41830668  1
  Te  Te77  1  0.08056877  0.42603578  0.75716742  1
  Te  Te78  1  0.05588147  0.71509051  0.05671999  1
  Te  Te79  1  0.12025002  0.72024229  0.44546598  1
  Te  Te80  1  0.13205987  0.79826775  0.72042898  1
  Te  Te81  1  0.40491813  0.09361310  0.07188496  1
  Te  Te82  1  0.39753221  0.08580302  0.40359993  1
  Te  Te83  1  0.40702252  0.05592778  0.73299056  1
  Te  Te84  1  0.40518286  0.41166394  0.09672901  1
  Te  Te85  1  0.39575935  0.43346367  0.43148091  1
  Te  Te86  1  0.42087092  0.42098403  0.76281245  1
  Te  Te87  1  0.44583228  0.75147412  0.08467559  1
  Te  Te88  1  0.40038291  0.74827162  0.42573575  1
  Te  Te89  1  0.43387673  0.74240782  0.75983657  1
  Te  Te90  1  0.76917421  0.08404614  0.06396298  1
  Te  Te91  1  0.76418053  0.05115763  0.40830093  1
  Te  Te92  1  0.77408548  0.05785098  0.76774402  1
  Te  Te93  1  0.77322860  0.42253297  0.04548073  1
  Te  Te94  1  0.75345905  0.40417383  0.42487254  1
  Te  Te95  1  0.75722913  0.44356267  0.77208870  1
  Te  Te96  1  0.71903672  0.70906743  0.04496721  1
  Te  Te97  1  0.78988096  0.79851406  0.40318596  1
  Te  Te98  1  0.77784408  0.71949640  0.79827594  1
  Te  Te99  1  0.08800777  0.25416911  0.25208577  1
  Te  Te100  1  0.06606318  0.23818965  0.56405317  1
  Te  Te101  1  0.06372794  0.24957936  0.92868244  1
  Te  Te102  1  0.09463057  0.59565775  0.27093193  1
  Te  Te103  1  0.08733360  0.60924059  0.57511171  1
  Te  Te104  1  0.07013204  0.64436182  0.89110419  1
  Te  Te105  1  0.07924175  0.92178734  0.23561428  1
  Te  Te106  1  0.08606852  0.88244679  0.59712819  1
  Te  Te107  1  0.05944172  0.89802637  0.91120293  1
  Te  Te108  1  0.42729142  0.26193495  0.24370539  1
  Te  Te109  1  0.41841551  0.25995486  0.58326058  1
  Te  Te110  1  0.42151601  0.26089803  0.90725204  1
  Te  Te111  1  0.40901263  0.61374971  0.25764272  1
  Te  Te112  1  0.40195559  0.58788602  0.59311925  1
  Te  Te113  1  0.40975007  0.59378101  0.92157900  1
  Te  Te114  1  0.42634749  0.92463181  0.25970530  1
  Te  Te115  1  0.41786629  0.91926833  0.56105949  1
  Te  Te116  1  0.43235738  0.90342279  0.92836036  1
  Te  Te117  1  0.74226254  0.24381591  0.25218026  1
  Te  Te118  1  0.74354298  0.24677117  0.59127548  1
  Te  Te119  1  0.76280018  0.24773916  0.91589584  1
  Te  Te120  1  0.74317269  0.59047820  0.25754583  1
  Te  Te121  1  0.75825116  0.59969148  0.60527440  1
  Te  Te122  1  0.78189474  0.61730201  0.92060067  1
  Te  Te123  1  0.80430387  0.85981394  0.19914215  1
  Te  Te124  1  0.77250212  0.91839877  0.59244590  1
  Te  Te125  1  0.72118206  0.88554491  0.89580417  1
  Te  Te126  1  0.23452261  0.24021646  0.06566376  1
  Te  Te127  1  0.23772639  0.23917853  0.41719410  1
  Te  Te128  1  0.26292889  0.26204136  0.74133884  1
  Te  Te129  1  0.22955376  0.57631627  0.07739594  1
  Te  Te130  1  0.22074776  0.61382020  0.39138901  1
  Te  Te131  1  0.24496240  0.61543175  0.74607627  1
  Te  Te132  1  0.24478218  0.91887216  0.07180743  1
  Te  Te133  1  0.24188575  0.90245015  0.41748918  1
  Te  Te134  1  0.22703040  0.93058430  0.77791259  1
  Te  Te135  1  0.58652941  0.26898134  0.09760371  1
  Te  Te136  1  0.57311764  0.25275369  0.43521885  1
  Te  Te137  1  0.58391586  0.26626972  0.75598532  1
  Te  Te138  1  0.59111250  0.56651877  0.06307234  1
  Te  Te139  1  0.58787764  0.59256030  0.41965322  1
  Te  Te140  1  0.60512598  0.59853009  0.76770561  1
  Te  Te141  1  0.59529891  0.91533673  0.09988899  1
  Te  Te142  1  0.58759145  0.91331736  0.42443661  1
  Te  Te143  1  0.60302084  0.88568208  0.76337949  1
  Te  Te144  1  0.93797826  0.25480055  0.05989739  1
  Te  Te145  1  0.90148129  0.25024158  0.43307289  1
  Te  Te146  1  0.91702957  0.24576144  0.74079018  1
  Te  Te147  1  0.90727190  0.56493118  0.09275143  1
  Te  Te148  1  0.92236376  0.59705048  0.41048821  1
  Te  Te149  1  0.96984468  0.62862005  0.74439565  1
  Te  Te150  1  0.88982389  0.89538007  0.07296534  1
  Te  Te151  1  0.93667733  0.85636067  0.43127584  1
  Te  Te152  1  0.92365092  0.89427064  0.77163596  1
  Te  Te153  1  0.25686553  0.06450665  0.24533452  1
  Te  Te154  1  0.22339014  0.07263851  0.58226209  1
  Te  Te155  1  0.23073716  0.09025730  0.90133382  1
  Te  Te156  1  0.24017027  0.42719217  0.26484353  1
  Te  Te157  1  0.25215758  0.42450103  0.59197149  1
  Te  Te158  1  0.22794499  0.43185760  0.91596045  1
  Te  Te159  1  0.25125638  0.77126476  0.24140514  1
  Te  Te160  1  0.25792153  0.75285266  0.64138020  1
  Te  Te161  1  0.25250036  0.75012384  0.91654735  1
  Te  Te162  1  0.60396236  0.07172339  0.26389546  1
  Te  Te163  1  0.59386860  0.09165875  0.59607323  1
  Te  Te164  1  0.58499482  0.08924535  0.90846820  1
  Te  Te165  1  0.58034604  0.43513444  0.24605556  1
  Te  Te166  1  0.57738750  0.43234634  0.58724225  1
  Te  Te167  1  0.58390364  0.42533710  0.89405881  1
  Te  Te168  1  0.60588961  0.76321431  0.24455056  1
  Te  Te169  1  0.60212662  0.74186906  0.60275165  1
  Te  Te170  1  0.61974251  0.77642906  0.94369503  1
  Te  Te171  1  0.90218072  0.06409744  0.22955368  1
  Te  Te172  1  0.92085138  0.06151402  0.56979601  1
  Te  Te173  1  0.89206228  0.07033952  0.93551396  1
  Te  Te174  1  0.90143757  0.39900756  0.24304619  1
  Te  Te175  1  0.89691401  0.42695001  0.59705862  1
  Te  Te176  1  0.95914840  0.43547771  0.89228861  1
  Te  Te177  1  0.91963015  0.74362153  0.24219509  1
  Te  Te178  1  0.92768306  0.77072052  0.57724612  1
  Te  Te179  1  0.88134174  0.73849905  0.90965135  1
