# generated using pymatgen
data_In2Te3
_symmetry_space_group_name_H-M   'P 1'
_cell_length_a   19.04669553
_cell_length_b   18.99989992
_cell_length_c   19.02983237
_cell_angle_alpha   90.31870480
_cell_angle_beta   89.97584804
_cell_angle_gamma   90.10621242
_symmetry_Int_Tables_number   1
_chemical_formula_structural   In2Te3
_chemical_formula_sum   'In72 Te108'
_cell_volume   6886.49781351
_cell_formula_units_Z   36
loop_
 _symmetry_equiv_pos_site_id
 _symmetry_equiv_pos_as_xyz
  1  'x, y, z'
loop_
 _atom_site_type_symbol
 _atom_site_label
 _atom_site_symmetry_multiplicity
 _atom_site_fract_x
 _atom_site_fract_y
 _atom_site_fract_z
 _atom_site_occupancy
  In  In0  1  0.70467576  0.59435026  0.37661177  1
  In  In1  1  0.66096395  -0.00525156  0.31580160  1
  In  In2  1  0.67137484  0.83897013  0.50011791  1
  In  In3  1  0.00082040  0.49468170  0.49438543  1
  In  In4  1  0.80795809  0.28524596  0.83642090  1
  In  In5  1  0.16400220  0.47473079  0.01162362  1
  In  In6  1  0.83442907  0.36834568  0.49354649  1
  In  In7  1  0.85042143  0.49675873  -0.01823534  1
  In  In8  1  0.46227427  0.01287616  0.54264006  1
  In  In9  1  0.84448619  0.67772117  0.14855236  1
  In  In10  1  0.70248849  0.68909722  0.65149892  1
  In  In11  1  0.64860273  0.33605682  0.64638670  1
  In  In12  1  -0.00642444  0.84854408  0.82897959  1
  In  In13  1  0.00295753  0.01578904  0.65876321  1
  In  In14  1  0.85923104  0.34902742  0.16564541  1
  In  In15  1  0.82441497  0.17068013  0.31978644  1
  In  In16  1  0.52321884  0.80675330  -0.00814522  1
  In  In17  1  0.49136098  0.84297092  0.32250796  1
  In  In18  1  0.10622113  0.63957271  0.79709491  1
  In  In19  1  0.82049822  0.15626947  0.65908522  1
  In  In20  1  0.67531139  0.18224687  0.16894968  1
  In  In21  1  0.46878718  0.02243293  0.81722672  1
  In  In22  1  0.02144486  0.65391963  0.32134932  1
  In  In23  1  0.14667392  0.46764671  0.68530117  1
  In  In24  1  0.65831774  0.87038977  0.80167210  1
  In  In25  1  -0.00155407  0.34865098  0.32378678  1
  In  In26  1  0.00203539  0.31441858  0.00334067  1
  In  In27  1  0.64814606  -0.00806335  0.00302539  1
  In  In28  1  0.53033077  0.32293012  0.80935712  1
  In  In29  1  0.02472840  0.16591572  0.48915494  1
  In  In30  1  0.48235235  0.01831879  0.16918413  1
  In  In31  1  0.33091655  0.18811584  0.84095718  1
  In  In32  1  0.67137808  0.48711951  0.15332258  1
  In  In33  1  0.50912482  0.15503589  0.00660741  1
  In  In34  1  0.15327790  0.68766806  0.52261167  1
  In  In35  1  0.68384012  0.49804223  0.81967636  1
  In  In36  1  0.32365811  0.69649696  -0.02367363  1
  In  In37  1  0.85138641  0.83201625  0.36434080  1
  In  In38  1  0.49050322  0.52124317  0.36131802  1
  In  In39  1  0.17125583  0.86062114  0.66947342  1
  In  In40  1  0.02171415  0.66258462  -0.00884557  1
  In  In41  1  0.16672172  0.32084461  0.51583077  1
  In  In42  1  0.49118251  0.34935956  0.17393663  1
  In  In43  1  0.32736416  0.51326934  0.49063204  1
  In  In44  1  0.87086412  0.50554700  0.68304823  1
  In  In45  1  0.16984069  0.85036793  0.35269235  1
  In  In46  1  0.80481806  0.04703006  0.83777828  1
  In  In47  1  0.51910854  0.63520874  0.80985299  1
  In  In48  1  0.16519152  -0.01900278  0.17184858  1
  In  In49  1  0.47565498  0.45881840  -0.03690305  1
  In  In50  1  0.31805951  0.01225678  -0.02723946  1
  In  In51  1  0.48902536  0.20440650  0.36907816  1
  In  In52  1  0.68058695  0.63725814  -0.01383476  1
  In  In53  1  0.01299465  0.14931732  0.83551525  1
  In  In54  1  -0.00095025  0.15558855  0.18443137  1
  In  In55  1  0.47865916  0.65260458  0.18152906  1
  In  In56  1  0.17289855  0.66456621  0.17468327  1
  In  In57  1  0.33654547  0.83003090  0.83607299  1
  In  In58  1  0.19514484  0.02662346  0.51138701  1
  In  In59  1  0.30412073  0.34656432  0.30678647  1
  In  In60  1  0.35580614  0.20711438  0.52036067  1
  In  In61  1  0.64880005  0.15779912  0.48595348  1
  In  In62  1  0.30636021  0.64325240  0.69003068  1
  In  In63  1  0.29745189  0.39476528  0.80591121  1
  In  In64  1  0.19908412  0.20271685  0.14692754  1
  In  In65  1  0.84939108  0.84396546  0.60903290  1
  In  In66  1  0.85654791  -0.00597087  0.16664483  1
  In  In67  1  0.15697327  0.83332464  -0.01355965  1
  In  In68  1  0.65370908  0.79573674  0.18800120  1
  In  In69  1  0.33073242  0.68398012  0.35162505  1
  In  In70  1  0.49694494  0.67738497  0.50795895  1
  In  In71  1  0.00128876  -0.01799566  -0.00271260  1
  Te  Te72  1  0.08279090  0.07652544  0.08544978  1
  Te  Te73  1  0.11424667  0.08852604  0.40562566  1
  Te  Te74  1  0.10082256  0.10415396  0.72509669  1
  Te  Te75  1  0.06837300  0.40557835  0.09733342  1
  Te  Te76  1  0.10085662  0.41327580  0.41518722  1
  Te  Te77  1  0.13305275  0.36239935  0.78658490  1
  Te  Te78  1  0.08396622  0.75702471  0.09329708  1
  Te  Te79  1  0.06954869  0.75841390  0.42222701  1
  Te  Te80  1  0.06304637  0.76698972  0.72160090  1
  Te  Te81  1  0.39131756  0.09726090  0.07874394  1
  Te  Te82  1  0.40831265  0.09150156  0.42555276  1
  Te  Te83  1  0.38894160  0.10894919  0.72827888  1
  Te  Te84  1  0.40206555  0.43008501  0.08697155  1
  Te  Te85  1  0.40264676  0.41064067  0.41005194  1
  Te  Te86  1  0.43408372  0.41422122  0.74402814  1
  Te  Te87  1  0.41746349  0.75169778  0.08560629  1
  Te  Te88  1  0.41149910  0.77879249  0.43738948  1
  Te  Te89  1  0.41585952  0.73045902  0.75333902  1
  Te  Te90  1  0.74260800  0.06662851  0.09805978  1
  Te  Te91  1  0.75021396  0.07306851  0.40896910  1
  Te  Te92  1  0.72882630  0.05017616  0.70769943  1
  Te  Te93  1  0.76099706  0.40564161  0.06301059  1
  Te  Te94  1  0.75553290  0.45714844  0.41088777  1
  Te  Te95  1  0.76314338  0.40035751  0.73529312  1
  Te  Te96  1  0.73824628  0.75137839  0.06899945  1
  Te  Te97  1  0.74988791  0.73569060  0.42278349  1
  Te  Te98  1  0.77037544  0.79137343  0.73811528  1
  Te  Te99  1  0.09082756  0.26096397  0.24226791  1
  Te  Te100  1  0.08537537  0.23594751  0.60370214  1
  Te  Te101  1  0.09705226  0.22322666  0.93499941  1
  Te  Te102  1  0.10568773  0.55447183  0.24700747  1
  Te  Te103  1  0.08722219  0.57232754  0.59234021  1
  Te  Te104  1  0.07036145  0.54184182  0.91106068  1
  Te  Te105  1  0.07362447  0.91657620  0.26511818  1
  Te  Te106  1  0.08616316  0.92817345  0.56695246  1
  Te  Te107  1  0.10108561  0.93615692  0.89232776  1
  Te  Te108  1  0.40946341  0.24819786  0.25009189  1
  Te  Te109  1  0.42204272  0.30402685  0.61521948  1
  Te  Te110  1  0.44348382  0.25650113  0.91590493  1
  Te  Te111  1  0.37847092  0.56675059  0.25805630  1
  Te  Te112  1  0.41090003  0.58566710  0.59410695  1
  Te  Te113  1  0.42405860  0.59198871  0.91965168  1
  Te  Te114  1  0.40053220  0.92940055  0.24928260  1
  Te  Te115  1  0.40549052  0.91986354  0.63881672  1
  Te  Te116  1  0.43548611  0.91272159  0.92827901  1
  Te  Te117  1  0.74962479  0.28244188  0.25277740  1
  Te  Te118  1  0.75422065  0.25374874  0.56152438  1
  Te  Te119  1  0.74328079  0.17108574  0.89942017  1
  Te  Te120  1  0.75102109  0.59018885  0.23064894  1
  Te  Te121  1  0.81986689  0.61358421  0.59076073  1
  Te  Te122  1  0.78280253  0.59256675  0.88425959  1
  Te  Te123  1  0.75262310  0.89160382  0.25340025  1
  Te  Te124  1  0.73525749  0.94020679  0.58856213  1
  Te  Te125  1  0.74494272  0.92097217  0.91451340  1
  Te  Te126  1  0.28362542  0.30498734  0.08669140  1
  Te  Te127  1  0.25464036  0.25025437  0.41533901  1
  Te  Te128  1  0.24583766  0.26830504  0.74441669  1
  Te  Te129  1  0.24594912  0.59801141  0.05885951  1
  Te  Te130  1  0.22671809  0.60038522  0.42164143  1
  Te  Te131  1  0.24038262  0.54935696  0.78617636  1
  Te  Te132  1  0.25825202  0.91051508  0.06585500  1
  Te  Te133  1  0.26343713  0.91334393  0.44581124  1
  Te  Te134  1  0.27655919  0.93199055  0.74732130  1
  Te  Te135  1  0.58242591  0.26315439  0.08370186  1
  Te  Te136  1  0.61007795  0.27868187  0.40819866  1
  Te  Te137  1  0.59860366  0.22239530  0.72526110  1
  Te  Te138  1  0.57903489  0.58640127  0.08387866  1
  Te  Te139  1  0.58804861  0.56249520  0.47092088  1
  Te  Te140  1  0.61532571  0.57449000  0.71022545  1
  Te  Te141  1  0.57612897  0.90553359  0.10768808  1
  Te  Te142  1  0.57551701  0.92684548  0.41998218  1
  Te  Te143  1  0.53608716  0.91851276  0.73107804  1
  Te  Te144  1  0.90556325  0.22662735  0.09084624  1
  Te  Te145  1  0.91372111  0.25633913  0.41020092  1
  Te  Te146  1  0.91688338  0.23143196  0.74726223  1
  Te  Te147  1  0.93223490  0.57545884  0.08142863  1
  Te  Te148  1  0.92460483  0.58175069  0.40543980  1
  Te  Te149  1  0.97198202  0.56792953  0.76960559  1
  Te  Te150  1  0.91834082  0.89520178  0.08033076  1
  Te  Te151  1  0.90846361  0.89736064  0.48150729  1
  Te  Te152  1  0.91186014  0.95508299  0.76146341  1
  Te  Te153  1  0.23904035  0.09314268  0.23294899  1
  Te  Te154  1  0.27773221  0.11125959  0.60312146  1
  Te  Te155  1  0.22997502  0.11939196  0.92462530  1
  Te  Te156  1  0.25137873  0.47170301  0.25246624  1
  Te  Te157  1  0.25294366  0.42276930  0.58762533  1
  Te  Te158  1  0.25628071  0.37194063  0.95037714  1
  Te  Te159  1  0.25535129  0.76481811  0.25133910  1
  Te  Te160  1  0.26115396  0.75632201  0.60120385  1
  Te  Te161  1  0.21383566  0.74007915  0.87911487  1
  Te  Te162  1  0.57646564  0.10605883  0.25700998  1
  Te  Te163  1  0.55841215  0.11282048  0.59370342  1
  Te  Te164  1  0.58383523  0.08091718  0.89744676  1
  Te  Te165  1  0.57522020  0.44125294  0.26050901  1
  Te  Te166  1  0.54262546  0.35118477  0.54415275  1
  Te  Te167  1  0.60894379  0.41001023  0.91585598  1
  Te  Te168  1  0.56951175  0.71678848  0.28576539  1
  Te  Te169  1  0.58224580  0.76468922  0.59725045  1
  Te  Te170  1  0.60675137  0.73814608  0.88448226  1
  Te  Te171  1  0.92554313  0.06302135  0.28142959  1
  Te  Te172  1  0.91407422  0.08895772  0.56085152  1
  Te  Te173  1  0.91594476  0.08847694  0.93515127  1
  Te  Te174  1  0.90400525  0.44498604  0.26706072  1
  Te  Te175  1  0.93905686  0.40019437  0.59818566  1
  Te  Te176  1  0.90836487  0.38079443  0.90360518  1
  Te  Te177  1  0.92167997  0.75071543  0.25539092  1
  Te  Te178  1  0.92594393  0.71901064  0.60445983  1
  Te  Te179  1  0.93182604  0.75420449  0.92199525  1
