# generated using pymatgen
data_In2Te3
_symmetry_space_group_name_H-M   'P 1'
_cell_length_a   18.75309818
_cell_length_b   18.76813338
_cell_length_c   18.76846795
_cell_angle_alpha   89.90615640
_cell_angle_beta   89.99105853
_cell_angle_gamma   90.00342224
_symmetry_Int_Tables_number   1
_chemical_formula_structural   In2Te3
_chemical_formula_sum   'In72 Te108'
_cell_volume   6605.75318591
_cell_formula_units_Z   36
loop_
 _symmetry_equiv_pos_site_id
 _symmetry_equiv_pos_as_xyz
  1  'x, y, z'
loop_
 _atom_site_type_symbol
 _atom_site_label
 _atom_site_symmetry_multiplicity
 _atom_site_fract_x
 _atom_site_fract_y
 _atom_site_fract_z
 _atom_site_occupancy
  In  In0  1  -0.00055870  0.49258356  0.17964669  1
  In  In1  1  0.80431582  0.35395296  0.80294613  1
  In  In2  1  0.67557535  0.50206749  0.18010560  1
  In  In3  1  0.01750675  0.70525848  0.02986880  1
  In  In4  1  -0.00149975  0.32801726  0.63269274  1
  In  In5  1  0.17461842  0.48429343  0.00727666  1
  In  In6  1  0.64340506  -0.00497223  0.02308311  1
  In  In7  1  0.64079530  0.32882506  0.00699653  1
  In  In8  1  0.01598600  0.15517576  0.50700676  1
  In  In9  1  0.34028384  0.16358519  0.46000309  1
  In  In10  1  0.34203990  -0.01200925  0.65516355  1
  In  In11  1  0.31504075  0.65546786  0.63739918  1
  In  In12  1  0.36224830  0.49154076  0.48524122  1
  In  In13  1  0.83357222  0.68158238  0.16653384  1
  In  In14  1  0.81756876  0.50332717  -0.01363888  1
  In  In15  1  0.64225567  0.15159248  0.46789211  1
  In  In16  1  0.49652786  0.85340531  0.33365629  1
  In  In17  1  0.17407019  0.49311125  0.64163618  1
  In  In18  1  0.16158396  0.67505500  0.51154410  1
  In  In19  1  -0.00257727  0.51632068  0.81855845  1
  In  In20  1  0.66569900  0.48530673  0.82429010  1
  In  In21  1  0.84471596  0.83305350  0.00428518  1
  In  In22  1  0.67012634  0.67061500  0.63859180  1
  In  In23  1  0.50618055  0.49590957  -0.01292488  1
  In  In24  1  0.32918824  0.70015052  0.32977753  1
  In  In25  1  0.49221818  0.46355532  0.65483152  1
  In  In26  1  0.32220110  0.17410530  0.83645790  1
  In  In27  1  0.19007546  0.00093519  0.47529047  1
  In  In28  1  0.47674026  0.30013175  0.19690507  1
  In  In29  1  0.00240745  -0.00286538  0.34789768  1
  In  In30  1  0.51088742  -0.00873564  0.83832511  1
  In  In31  1  0.18210490  0.65861867  0.83485204  1
  In  In32  1  0.66538648  0.80959260  0.82618282  1
  In  In33  1  0.87544198  0.33694496  0.19525563  1
  In  In34  1  0.48921095  0.19154738  0.64632203  1
  In  In35  1  0.19621556  0.00332818  0.19125985  1
  In  In36  1  0.81382587  0.83790741  0.31098517  1
  In  In37  1  0.00705739  0.82947454  0.48399206  1
  In  In38  1  0.00625373  0.19377282  0.85424416  1
  In  In39  1  0.84182002  -0.00761683  0.82727293  1
  In  In40  1  0.63826718  0.15950844  0.82882627  1
  In  In41  1  0.49457486  0.68218031  0.18655157  1
  In  In42  1  0.34446986  0.81952048  0.85563643  1
  In  In43  1  0.68570720  -0.00664869  0.61452434  1
  In  In44  1  0.34923780  0.66326658  0.01722786  1
  In  In45  1  0.17780603  0.19198273  0.69042053  1
  In  In46  1  -0.02066775  0.01732174  0.66091072  1
  In  In47  1  -0.01056779  0.65800028  0.66458946  1
  In  In48  1  0.66342290  0.33210579  0.34484555  1
  In  In49  1  0.18412524  0.32270706  0.82959545  1
  In  In50  1  0.81983743  0.34336843  0.49381423  1
  In  In51  1  0.79700690  0.15674929  0.02018228  1
  In  In52  1  0.17285882  0.01124950  0.86410727  1
  In  In53  1  0.32809199  0.49493963  0.18097423  1
  In  In54  1  0.32668557  0.29373283  0.03564988  1
  In  In55  1  0.17188322  0.82713514  0.65993030  1
  In  In56  1  0.01353715  0.33511770  0.33312848  1
  In  In57  1  0.69579168  0.66191560  0.00787507  1
  In  In58  1  0.49450112  0.67118788  0.83462249  1
  In  In59  1  0.81841359  0.17517839  0.64123886  1
  In  In60  1  0.63867334  0.13437703  0.19678659  1
  In  In61  1  0.16177982  0.49274290  0.33102039  1
  In  In62  1  0.80773333  0.15800980  0.33693138  1
  In  In63  1  -0.01174813  0.86075225  0.84472055  1
  In  In64  1  -0.00526381  -0.01343987  0.02231427  1
  In  In65  1  0.49278074  0.86761381  0.02367874  1
  In  In66  1  0.02200446  0.34683528  0.00372245  1
  In  In67  1  0.17218932  0.83975309  0.34161368  1
  In  In68  1  0.01727187  0.17194947  0.17883170  1
  In  In69  1  0.50284446  0.83925931  0.63402963  1
  In  In70  1  0.83926377  0.65009514  0.46535340  1
  In  In71  1  0.64008987  0.64944758  0.36511815  1
  Te  Te72  1  0.09641268  0.07638926  0.09118329  1
  Te  Te73  1  0.10569472  0.10076002  0.39511737  1
  Te  Te74  1  0.08087692  0.08406965  0.75662246  1
  Te  Te75  1  0.10812238  0.40085065  0.11698517  1
  Te  Te76  1  0.08232636  0.41905369  0.43323378  1
  Te  Te77  1  0.08186995  0.40726948  0.74836259  1
  Te  Te78  1  0.11591997  0.75769170  0.12279643  1
  Te  Te79  1  0.07747426  0.72900762  0.39571519  1
  Te  Te80  1  0.08158072  0.74579214  0.75509537  1
  Te  Te81  1  0.39032190  0.04409346  0.13044527  1
  Te  Te82  1  0.43166896  0.06017902  0.40637887  1
  Te  Te83  1  0.42031863  0.08158332  0.75001912  1
  Te  Te84  1  0.42645944  0.41579315  0.09129229  1
  Te  Te85  1  0.47177886  0.40509822  0.42539519  1
  Te  Te86  1  0.38811591  0.41604244  0.74498900  1
  Te  Te87  1  0.40054415  0.77374690  0.10779379  1
  Te  Te88  1  0.43709479  0.74676451  0.41938838  1
  Te  Te89  1  0.40865739  0.75378883  0.73378373  1
  Te  Te90  1  0.75964498  0.04546298  0.11876298  1
  Te  Te91  1  0.72647585  0.04379880  0.39617565  1
  Te  Te92  1  0.74685457  0.08471918  0.74652268  1
  Te  Te93  1  0.75149701  0.40620619  0.08517775  1
  Te  Te94  1  0.72548195  0.44107114  0.42710825  1
  Te  Te95  1  0.72684927  0.42775551  0.69680784  1
  Te  Te96  1  0.73334147  0.77697868  0.09672919  1
  Te  Te97  1  0.73831549  0.75804308  0.41733825  1
  Te  Te98  1  0.75834127  0.74500743  0.73360446  1
  Te  Te99  1  0.11414606  0.26016066  0.25087170  1
  Te  Te100  1  0.11476138  0.25755603  0.56422228  1
  Te  Te101  1  0.11736196  0.24096332  0.94514818  1
  Te  Te102  1  0.09045936  0.58999488  0.24338811  1
  Te  Te103  1  0.06507402  0.56911174  0.56605543  1
  Te  Te104  1  0.08166712  0.58142002  0.93026744  1
  Te  Te105  1  0.07898252  0.91619828  0.24517521  1
  Te  Te106  1  0.08525800  0.93029102  0.57891365  1
  Te  Te107  1  0.09724938  0.90266036  0.94190460  1
  Te  Te108  1  0.38951018  0.22925107  0.29480400  1
  Te  Te109  1  0.41032293  0.26736013  0.54579047  1
  Te  Te110  1  0.41563354  0.24386930  0.92938154  1
  Te  Te111  1  0.41660179  0.58274571  0.26956461  1
  Te  Te112  1  0.43643072  0.59025706  0.57633259  1
  Te  Te113  1  0.40148799  0.57289439  0.90578851  1
  Te  Te114  1  0.41633334  0.92090024  0.22177503  1
  Te  Te115  1  0.41788711  0.92439587  0.54598936  1
  Te  Te116  1  0.39631769  0.94241140  0.92865269  1
  Te  Te117  1  0.74421125  0.25238511  0.23284916  1
  Te  Te118  1  0.71443636  0.25230080  0.56543947  1
  Te  Te119  1  0.74461211  0.25387513  0.91023301  1
  Te  Te120  1  0.75146738  0.59827218  0.26538185  1
  Te  Te121  1  0.73496716  0.57360323  0.54386625  1
  Te  Te122  1  0.75522583  0.59814925  0.88400593  1
  Te  Te123  1  0.73905626  0.94215035  0.23719923  1
  Te  Te124  1  0.79029032  0.90859901  0.56358532  1
  Te  Te125  1  0.73957480  0.92199347  0.91899851  1
  Te  Te126  1  0.24637715  0.23497812  0.14274835  1
  Te  Te127  1  0.27203742  0.27973791  0.39123768  1
  Te  Te128  1  0.29745694  0.28977576  0.72502995  1
  Te  Te129  1  0.24237487  0.58850644  0.09689447  1
  Te  Te130  1  0.25489067  0.59144324  0.42149125  1
  Te  Te131  1  0.26186136  0.56136872  0.74827043  1
  Te  Te132  1  0.28479142  0.94159505  0.08756063  1
  Te  Te133  1  0.28084346  0.93535698  0.37937246  1
  Te  Te134  1  0.24725807  0.91378089  0.76177251  1
  Te  Te135  1  0.56556383  0.22753927  0.09592492  1
  Te  Te136  1  0.55054977  0.26497106  0.42179330  1
  Te  Te137  1  0.57844238  0.26287367  0.74109383  1
  Te  Te138  1  0.58035095  0.59041235  0.08392790  1
  Te  Te139  1  0.55917023  0.53540425  0.41201996  1
  Te  Te140  1  0.57718100  0.58633453  0.74254223  1
  Te  Te141  1  0.56648154  0.93301829  0.13700902  1
  Te  Te142  1  0.59802113  0.94962012  0.39138896  1
  Te  Te143  1  0.59675131  0.91602188  0.73714156  1
  Te  Te144  1  0.92001135  0.24686153  0.07459183  1
  Te  Te145  1  0.91420613  0.24089216  0.41646175  1
  Te  Te146  1  0.91350630  0.24513679  0.73877760  1
  Te  Te147  1  0.91515494  0.57900681  0.07632145  1
  Te  Te148  1  0.93928159  0.57124206  0.39089427  1
  Te  Te149  1  0.89199609  0.56517890  0.72858821  1
  Te  Te150  1  0.92279895  0.89476815  0.11345645  1
  Te  Te151  1  0.89667336  0.91865644  0.42608669  1
  Te  Te152  1  0.90294571  0.89902360  0.72249903  1
  Te  Te153  1  0.28834755  0.11716329  0.23795927  1
  Te  Te154  1  0.24798510  0.09120671  0.59083275  1
  Te  Te155  1  0.25719208  0.09851546  0.94750380  1
  Te  Te156  1  0.28079296  0.40443960  0.29139377  1
  Te  Te157  1  0.25882764  0.41007613  0.55490042  1
  Te  Te158  1  0.27152674  0.40303418  0.92705455  1
  Te  Te159  1  0.23621704  0.76032498  0.22661005  1
  Te  Te160  1  0.26852687  0.77751111  0.55395766  1
  Te  Te161  1  0.24190418  0.74936025  0.94219385  1
  Te  Te162  1  0.55218349  0.07808946  0.30756727  1
  Te  Te163  1  0.56410420  0.07479781  0.57689119  1
  Te  Te164  1  0.55817456  0.09478957  0.94221835  1
  Te  Te165  1  0.57177163  0.41424678  0.24434515  1
  Te  Te166  1  0.60887718  0.39470110  0.59857288  1
  Te  Te167  1  0.56198638  0.39213612  0.89103630  1
  Te  Te168  1  0.59952399  0.75689124  0.26307019  1
  Te  Te169  1  0.58916851  0.75740941  0.54663912  1
  Te  Te170  1  0.56857224  0.75806479  0.93635871  1
  Te  Te171  1  0.91738622  0.08551879  0.25487559  1
  Te  Te172  1  0.89063502  0.07665912  0.55087659  1
  Te  Te173  1  0.91833466  0.08239874  0.92560809  1
  Te  Te174  1  0.90133099  0.45072568  0.29963530  1
  Te  Te175  1  0.90269723  0.42790178  0.58400231  1
  Te  Te176  1  0.91521890  0.40712046  0.90845836  1
  Te  Te177  1  0.92518794  0.75829016  0.25294406  1
  Te  Te178  1  0.91149679  0.74534338  0.56813092  1
  Te  Te179  1  0.92056821  0.74049817  0.90991309  1
