# generated using pymatgen
data_In2Te3
_symmetry_space_group_name_H-M   'P 1'
_cell_length_a   18.77769200
_cell_length_b   18.77652384
_cell_length_c   18.77210565
_cell_angle_alpha   90.03989315
_cell_angle_beta   89.92576822
_cell_angle_gamma   90.05629782
_symmetry_Int_Tables_number   1
_chemical_formula_structural   In2Te3
_chemical_formula_sum   'In72 Te108'
_cell_volume   6618.65455777
_cell_formula_units_Z   36
loop_
 _symmetry_equiv_pos_site_id
 _symmetry_equiv_pos_as_xyz
  1  'x, y, z'
loop_
 _atom_site_type_symbol
 _atom_site_label
 _atom_site_symmetry_multiplicity
 _atom_site_fract_x
 _atom_site_fract_y
 _atom_site_fract_z
 _atom_site_occupancy
  In  In0  1  0.67155799  0.15483325  0.52372672  1
  In  In1  1  0.83652093  0.32653070  0.84130003  1
  In  In2  1  0.02371764  0.35684270  0.68153084  1
  In  In3  1  0.49542620  0.84760976  0.66500719  1
  In  In4  1  0.15435174  0.81973499  0.32656908  1
  In  In5  1  0.66128658  0.81732825  0.18955592  1
  In  In6  1  0.00424885  0.82398849  0.81959512  1
  In  In7  1  0.81913093  0.84459639  -0.03269153  1
  In  In8  1  0.33790301  0.01028678  0.34346562  1
  In  In9  1  0.17017545  0.49160463  -0.00991411  1
  In  In10  1  0.51573537  0.81826362  -0.02611650  1
  In  In11  1  -0.01136183  0.18633768  0.50644207  1
  In  In12  1  0.67596426  0.50559049  0.50499976  1
  In  In13  1  0.15562736  0.83402875  0.66187954  1
  In  In14  1  0.36813588  0.19503048  0.18799664  1
  In  In15  1  0.49683143  0.00472890  0.15540441  1
  In  In16  1  0.17066080  -0.04138778  0.17378499  1
  In  In17  1  0.01385829  0.67538816  -0.00362276  1
  In  In18  1  -0.00904874  0.00261561  0.67613840  1
  In  In19  1  0.65042781  0.18723625  0.15929979  1
  In  In20  1  0.65366759  0.83582487  0.50248355  1
  In  In21  1  0.16218916  0.16846631  -0.02508516  1
  In  In22  1  0.00918946  0.32742857  -0.00512502  1
  In  In23  1  0.35576783  0.33645560  -0.01682419  1
  In  In24  1  0.81613561  0.66198023  0.17090402  1
  In  In25  1  0.16756453  0.66277591  0.49426066  1
  In  In26  1  0.33086309  0.81230477  0.17006785  1
  In  In27  1  0.16682593  0.50010928  0.32309155  1
  In  In28  1  0.50799498  0.33927906  0.49767393  1
  In  In29  1  -0.01418591  0.16783109  0.17417868  1
  In  In30  1  0.36236545  0.83952701  0.51524761  1
  In  In31  1  0.51143849  0.67595967  0.50036417  1
  In  In32  1  0.83248613  0.49061982  -0.00509260  1
  In  In33  1  0.00943565  0.65481164  0.33933466  1
  In  In34  1  0.84894047  -0.02604562  0.48877260  1
  In  In35  1  0.64725269  0.15888887  0.82748985  1
  In  In36  1  0.66447615  0.01596166  -0.01676650  1
  In  In37  1  0.64498894  0.65013818  -0.01496348  1
  In  In38  1  -0.00607947  0.66358716  0.66171846  1
  In  In39  1  0.83302449  0.65879536  0.51289347  1
  In  In40  1  0.34795554  0.63259510  -0.02548212  1
  In  In41  1  0.65576391  -0.00611503  0.33106606  1
  In  In42  1  0.63733938  0.32939403  -0.00956684  1
  In  In43  1  0.34095686  0.83549141  0.85338997  1
  In  In44  1  0.34497318  0.16284394  0.80379074  1
  In  In45  1  -0.00141142  0.00685604  -0.00097439  1
  In  In46  1  0.18832015  0.31450285  0.50602391  1
  In  In47  1  0.00079227  0.82448233  0.17486471  1
  In  In48  1  0.18101112  -0.00640918  0.83320246  1
  In  In49  1  0.53220515  0.82211259  0.33383369  1
  In  In50  1  0.82339675  0.00900691  0.18839748  1
  In  In51  1  0.17451284  0.16479591  0.34660749  1
  In  In52  1  -0.01481842  0.33558302  0.33781073  1
  In  In53  1  0.17870373  0.35306677  0.15423989  1
  In  In54  1  0.19992854  0.82261899  0.00802027  1
  In  In55  1  0.34683742  0.35646399  0.70049343  1
  In  In56  1  0.65839494  0.66205157  0.34124001  1
  In  In57  1  0.83995954  0.49546216  0.65778958  1
  In  In58  1  0.34037176  0.16375137  0.50887531  1
  In  In59  1  0.63126675  0.50750992  0.17050837  1
  In  In60  1  0.17872520  0.01252312  0.51717157  1
  In  In61  1  0.36379072  0.51925993  0.17874613  1
  In  In62  1  0.34173230  0.48351771  0.49230203  1
  In  In63  1  0.32123266  0.62963037  0.69760196  1
  In  In64  1  0.83323964  0.00279679  0.82643318  1
  In  In65  1  0.64222407  0.31261159  0.66599802  1
  In  In66  1  0.83745703  0.34080413  0.18044737  1
  In  In67  1  -0.00069928  0.51350636  0.50833743  1
  In  In68  1  0.66695777  0.34551035  0.33372433  1
  In  In69  1  0.65097269  0.00160171  0.66775548  1
  In  In70  1  0.64513166  0.50592101  0.82376099  1
  In  In71  1  0.00185358  0.17807737  0.83778148  1
  Te  Te72  1  0.09320116  0.08420995  0.08992579  1
  Te  Te73  1  0.07666295  0.08505852  0.42828751  1
  Te  Te74  1  0.09235698  0.08722403  0.75238764  1
  Te  Te75  1  0.06643254  0.43149940  0.09003466  1
  Te  Te76  1  0.09437694  0.41209984  0.42941951  1
  Te  Te77  1  0.09960373  0.46416676  0.74952768  1
  Te  Te78  1  0.10617540  0.74328661  0.09876609  1
  Te  Te79  1  0.06515345  0.75858280  0.43661836  1
  Te  Te80  1  0.10364414  0.72896055  0.75762979  1
  Te  Te81  1  0.41817321  0.10628213  0.08077056  1
  Te  Te82  1  0.43351539  0.09365599  0.41665771  1
  Te  Te83  1  0.40642648  0.07027243  0.70363893  1
  Te  Te84  1  0.42820461  0.43256144  0.07291265  1
  Te  Te85  1  0.42692809  0.41079164  0.39391449  1
  Te  Te86  1  0.44100430  0.45586699  0.76349304  1
  Te  Te87  1  0.41401484  0.74351397  0.06068784  1
  Te  Te88  1  0.41467532  0.74919923  0.40602442  1
  Te  Te89  1  0.40631599  0.74952286  0.74493261  1
  Te  Te90  1  0.74864963  0.09253690  0.08454196  1
  Te  Te91  1  0.75067022  0.07170791  0.42042025  1
  Te  Te92  1  0.75435243  0.09727280  0.73771562  1
  Te  Te93  1  0.73350004  0.41536988  0.08521197  1
  Te  Te94  1  0.76115873  0.41646004  0.42388873  1
  Te  Te95  1  0.74231728  0.40686252  0.75173416  1
  Te  Te96  1  0.74006654  0.75008748  0.06891476  1
  Te  Te97  1  0.75086224  0.75249183  0.41975095  1
  Te  Te98  1  0.72920713  0.76713754  0.81924462  1
  Te  Te99  1  0.09521092  0.25823177  0.24727208  1
  Te  Te100  1  0.09401304  0.24358981  0.60162057  1
  Te  Te101  1  0.10640850  0.27983255  0.88658303  1
  Te  Te102  1  0.08462547  0.58374179  0.23463094  1
  Te  Te103  1  0.10492365  0.57268524  0.60041411  1
  Te  Te104  1  0.08165669  0.57842680  0.90644484  1
  Te  Te105  1  0.05392747  0.93463414  0.27384151  1
  Te  Te106  1  0.06852341  0.92016862  0.57275118  1
  Te  Te107  1  0.08732462  0.90366527  0.92845399  1
  Te  Te108  1  0.45094661  0.28220393  0.27079125  1
  Te  Te109  1  0.41565592  0.26687028  0.59464755  1
  Te  Te110  1  0.43597672  0.25101696  0.88794419  1
  Te  Te111  1  0.44264643  0.60765176  0.26479949  1
  Te  Te112  1  0.41151049  0.58820401  0.57977696  1
  Te  Te113  1  0.43970720  0.57068073  0.87346430  1
  Te  Te114  1  0.42382007  0.90765520  0.25335610  1
  Te  Te115  1  0.41564254  0.95619685  0.59254244  1
  Te  Te116  1  0.43847555  0.93067704  0.91403670  1
  Te  Te117  1  0.75420351  0.24037479  0.25850021  1
  Te  Te118  1  0.75179469  0.26635555  0.57996109  1
  Te  Te119  1  0.74077091  0.23993237  0.92159140  1
  Te  Te120  1  0.74243077  0.56191382  0.25982900  1
  Te  Te121  1  0.73522406  0.59851380  0.61370011  1
  Te  Te122  1  0.75415415  0.58165062  0.90138748  1
  Te  Te123  1  0.75968097  0.89750655  0.27272454  1
  Te  Te124  1  0.74949403  0.91101746  0.59305714  1
  Te  Te125  1  0.71118258  0.90770516  0.87325321  1
  Te  Te126  1  0.25411526  0.24964607  0.07199892  1
  Te  Te127  1  0.28145282  0.25810668  0.39968124  1
  Te  Te128  1  0.24558570  0.26146957  0.75523100  1
  Te  Te129  1  0.25577000  0.57804626  0.08412427  1
  Te  Te130  1  0.26349316  0.58528486  0.40638231  1
  Te  Te131  1  0.23749229  0.53513889  0.77935497  1
  Te  Te132  1  0.28319173  0.92940235  0.07577374  1
  Te  Te133  1  0.24831373  0.90969658  0.41958935  1
  Te  Te134  1  0.26347485  0.90888538  0.73966384  1
  Te  Te135  1  0.54561761  0.24319398  0.07082203  1
  Te  Te136  1  0.59466704  0.24146016  0.42017380  1
  Te  Te137  1  0.54894119  0.25846026  0.77064736  1
  Te  Te138  1  0.54963797  0.56131597  0.05863730  1
  Te  Te139  1  0.56694619  0.56315787  0.41131402  1
  Te  Te140  1  0.53764111  0.58029390  0.74835728  1
  Te  Te141  1  0.59966952  0.91192675  0.08556874  1
  Te  Te142  1  0.56030345  0.93453978  0.43583084  1
  Te  Te143  1  0.56553064  0.92991800  0.76787992  1
  Te  Te144  1  0.90491924  0.25018520  0.07457841  1
  Te  Te145  1  0.89300883  0.24864542  0.41205230  1
  Te  Te146  1  0.91791287  0.25223792  0.73596318  1
  Te  Te147  1  0.91393837  0.58891488  0.07976772  1
  Te  Te148  1  0.90058530  0.57021790  0.40827535  1
  Te  Te149  1  0.91290846  0.58022579  0.75333258  1
  Te  Te150  1  0.90973901  0.91701732  0.08598591  1
  Te  Te151  1  0.93733491  0.92489240  0.38196681  1
  Te  Te152  1  0.89899009  0.89620904  0.73762304  1
  Te  Te153  1  0.24918798  0.08206983  0.24030409  1
  Te  Te154  1  0.25854546  0.09249074  0.61375697  1
  Te  Te155  1  0.27134363  0.07947706  0.91799681  1
  Te  Te156  1  0.27370827  0.41535443  0.25326331  1
  Te  Te157  1  0.25061628  0.42017767  0.59609872  1
  Te  Te158  1  0.26793222  0.42256086  0.89712523  1
  Te  Te159  1  0.24363396  0.72791921  0.25436778  1
  Te  Te160  1  0.25988126  0.74690321  0.58633201  1
  Te  Te161  1  0.24671115  0.72364395  0.90364534  1
  Te  Te162  1  0.57112307  0.09394721  0.25461512  1
  Te  Te163  1  0.55968313  0.10421872  0.60926410  1
  Te  Te164  1  0.55195819  0.07771755  0.91021756  1
  Te  Te165  1  0.56084981  0.39037154  0.23336323  1
  Te  Te166  1  0.57689818  0.43254516  0.59662316  1
  Te  Te167  1  0.55349973  0.42565988  0.91254531  1
  Te  Te168  1  0.55617079  0.70828237  0.22331486  1
  Te  Te169  1  0.59508567  0.74399599  0.60956399  1
  Te  Te170  1  0.58421621  0.73147128  0.87010928  1
  Te  Te171  1  0.91357215  0.08839403  0.27544762  1
  Te  Te172  1  0.90260751  0.08441737  0.58427270  1
  Te  Te173  1  0.90386171  0.09818904  0.92459053  1
  Te  Te174  1  0.92994818  0.43565126  0.24454837  1
  Te  Te175  1  0.92239154  0.39913536  0.57306169  1
  Te  Te176  1  0.93495111  0.42559573  0.90184892  1
  Te  Te177  1  0.90652620  0.74365927  0.26313951  1
  Te  Te178  1  0.91383183  0.76009134  0.58350901  1
  Te  Te179  1  0.90793338  0.73873979  0.90223809  1
