# generated using pymatgen
data_In2Te3
_symmetry_space_group_name_H-M   'P 1'
_cell_length_a   18.75000911
_cell_length_b   18.75336177
_cell_length_c   18.75656255
_cell_angle_alpha   89.96260586
_cell_angle_beta   89.96893195
_cell_angle_gamma   89.88640380
_symmetry_Int_Tables_number   1
_chemical_formula_structural   In2Te3
_chemical_formula_sum   'In72 Te108'
_cell_volume   6595.27418003
_cell_formula_units_Z   36
loop_
 _symmetry_equiv_pos_site_id
 _symmetry_equiv_pos_as_xyz
  1  'x, y, z'
loop_
 _atom_site_type_symbol
 _atom_site_label
 _atom_site_symmetry_multiplicity
 _atom_site_fract_x
 _atom_site_fract_y
 _atom_site_fract_z
 _atom_site_occupancy
  In  In0  1  0.82079525  0.34090425  0.84163281  1
  In  In1  1  0.32387453  0.66207072  0.34449895  1
  In  In2  1  0.18073894  0.66415708  0.50274071  1
  In  In3  1  0.82922226  0.48859452  0.35826846  1
  In  In4  1  0.83379507  0.68735204  0.83933083  1
  In  In5  1  0.13681478  0.69139782  0.13617395  1
  In  In6  1  -0.00805862  0.64963687  0.31407826  1
  In  In7  1  0.79382595  0.51939820  0.66911002  1
  In  In8  1  0.47952440  0.50120153  0.01194916  1
  In  In9  1  0.82986632  0.18882061  -0.00210768  1
  In  In10  1  0.34012102  0.49145764  0.84625291  1
  In  In11  1  0.16797431  0.50195241  0.66358069  1
  In  In12  1  0.65806858  0.82334538  0.48372208  1
  In  In13  1  0.16604284  0.84220631  0.32486710  1
  In  In14  1  0.01338643  0.18519504  0.18776066  1
  In  In15  1  0.02294068  0.14037160  0.80926588  1
  In  In16  1  0.49482086  0.83997175  0.31278634  1
  In  In17  1  0.16594684  -0.00360249  0.48377407  1
  In  In18  1  0.33390132  0.84933648  0.13920264  1
  In  In19  1  0.19527032  0.32479727  0.85040797  1
  In  In20  1  0.64689516  -0.00094882  0.67727991  1
  In  In21  1  -0.00372338  0.32795571  0.67639711  1
  In  In22  1  0.52146719  0.17401250  0.69807271  1
  In  In23  1  0.49819138  0.83064628  0.67962680  1
  In  In24  1  0.30316634  0.47216784  0.17433204  1
  In  In25  1  0.49563443  0.13693314  -0.01411394  1
  In  In26  1  0.49698179  0.33316427  0.49895507  1
  In  In27  1  0.64556223  0.68569651  0.33481162  1
  In  In28  1  0.83956924  0.32277810  0.17813900  1
  In  In29  1  0.34257936  0.15770772  0.84550335  1
  In  In30  1  -0.00504439  0.52097556  0.84859168  1
  In  In31  1  0.00146872  0.30950322  0.32486736  1
  In  In32  1  0.50635642  0.67258361  0.17300222  1
  In  In33  1  0.83057511  0.83053208  0.68349273  1
  In  In34  1  0.65735491  0.15673689  0.14783618  1
  In  In35  1  0.66450257  0.32103415  -0.00679855  1
  In  In36  1  0.01680062  -0.00931466  0.34074653  1
  In  In37  1  0.83351415  0.68377006  0.15648090  1
  In  In38  1  0.85067351  0.16611588  0.35321494  1
  In  In39  1  -0.00293988  0.83980871  0.84321590  1
  In  In40  1  0.30822612  0.85083420  0.50657623  1
  In  In41  1  0.18665598  0.00099891  0.16688467  1
  In  In42  1  0.18096831  0.16320212  -0.01226013  1
  In  In43  1  0.35455879  0.84333565  0.84711838  1
  In  In44  1  0.64756184  0.50649730  0.18403983  1
  In  In45  1  0.84631133  0.50527499  0.01111576  1
  In  In46  1  0.15312741  0.32436935  0.48445994  1
  In  In47  1  -0.00072506  0.15568203  0.50326653  1
  In  In48  1  0.66826417  0.00851278  0.31933554  1
  In  In49  1  0.49102681  0.15177502  0.31770623  1
  In  In50  1  0.51375731  0.49846712  0.34823588  1
  In  In51  1  0.34577207  0.00091607  0.67183712  1
  In  In52  1  0.36280643  0.50555152  0.48399060  1
  In  In53  1  0.51210203  0.66359913  0.51244380  1
  In  In54  1  0.32067370  0.32747135  0.68346337  1
  In  In55  1  0.34263833  0.66516529  -0.00787783  1
  In  In56  1  -0.00116115  0.50400533  0.50840361  1
  In  In57  1  0.15957230  0.84176142  0.66378418  1
  In  In58  1  0.51457088  0.50276005  0.67619812  1
  In  In59  1  -0.00236635  -0.01040702  -0.00775698  1
  In  In60  1  0.84963954  0.00322072  0.50804353  1
  In  In61  1  0.32958403  0.16532698  0.48099535  1
  In  In62  1  0.67325322  0.19121509  0.54674474  1
  In  In63  1  0.04324658  0.47522950  0.14584406  1
  In  In64  1  0.79401407  -0.01393044  0.84442144  1
  In  In65  1  0.32699769  0.16515606  0.15573402  1
  In  In66  1  0.64867425  0.71544062  -0.03510699  1
  In  In67  1  0.83356899  -0.03072952  0.15286756  1
  In  In68  1  -0.00965622  0.83591079  0.51710661  1
  In  In69  1  0.66278381  0.35319801  0.33990990  1
  In  In70  1  0.67035675  0.49183813  0.82317125  1
  In  In71  1  0.15752287  0.67422364  0.84106932  1
  Te  Te72  1  0.07625123  0.08858151  0.08472278  1
  Te  Te73  1  0.09717189  0.10637653  0.39476659  1
  Te  Te74  1  0.08719304  0.05308364  0.71079075  1
  Te  Te75  1  0.13178550  0.38780053  0.06315135  1
  Te  Te76  1  0.07281307  0.42590548  0.40332190  1
  Te  Te77  1  0.09066105  0.41587758  0.76396820  1
  Te  Te78  1  0.05011356  0.77816476  0.05306313  1
  Te  Te79  1  0.08589258  0.75386822  0.42007016  1
  Te  Te80  1  0.06698375  0.74778067  0.74062225  1
  Te  Te81  1  0.40027103  0.06345400  0.07357510  1
  Te  Te82  1  0.42356838  0.06863777  0.42109411  1
  Te  Te83  1  0.44214839  0.06579625  0.77043663  1
  Te  Te84  1  0.40124922  0.40160366  0.08710959  1
  Te  Te85  1  0.40835080  0.39470380  0.39053188  1
  Te  Te86  1  0.42828484  0.40036333  0.75923401  1
  Te  Te87  1  0.43648703  0.75988835  0.06950666  1
  Te  Te88  1  0.42012343  0.75109842  0.42283906  1
  Te  Te89  1  0.39993374  0.74303514  0.74764133  1
  Te  Te90  1  0.75676716  0.07373717  0.06818499  1
  Te  Te91  1  0.74185064  0.09077722  0.43074088  1
  Te  Te92  1  0.74511355  0.08589852  0.74520961  1
  Te  Te93  1  0.74574046  0.41526955  0.09038464  1
  Te  Te94  1  0.75493792  0.39632061  0.44648786  1
  Te  Te95  1  0.72611298  0.37843075  0.72092018  1
  Te  Te96  1  0.74956090  0.77044180  0.06243355  1
  Te  Te97  1  0.75846746  0.74774641  0.40624789  1
  Te  Te98  1  0.72861880  0.75613806  0.76177327  1
  Te  Te99  1  0.11962311  0.28288838  0.23322052  1
  Te  Te100  1  0.09237057  0.24047587  0.59533278  1
  Te  Te101  1  0.07738420  0.24335490  0.90744817  1
  Te  Te102  1  0.10576381  0.58121900  0.24069580  1
  Te  Te103  1  0.07536920  0.60311348  0.59593963  1
  Te  Te104  1  0.09110174  0.58469103  0.93902444  1
  Te  Te105  1  0.07360301  0.90968859  0.22552199  1
  Te  Te106  1  0.06274786  0.94832832  0.59373447  1
  Te  Te107  1  0.10009040  0.92744514  0.90506929  1
  Te  Te108  1  0.41526958  0.25149584  0.24066853  1
  Te  Te109  1  0.41626252  0.24253564  0.59521264  1
  Te  Te110  1  0.42124889  0.25283164  0.92544144  1
  Te  Te111  1  0.41651933  0.57750155  0.25135142  1
  Te  Te112  1  0.40965043  0.58952734  0.59967867  1
  Te  Te113  1  0.44091981  0.59601175  0.89733843  1
  Te  Te114  1  0.41484843  0.93339354  0.23017131  1
  Te  Te115  1  0.42786161  0.91796159  0.57256483  1
  Te  Te116  1  0.45183706  0.91621917  0.93758394  1
  Te  Te117  1  0.74138490  0.23558701  0.25512433  1
  Te  Te118  1  0.77487364  0.27001647  0.61474004  1
  Te  Te119  1  0.71965202  0.22131446  0.88991874  1
  Te  Te120  1  0.75260209  0.58628582  0.25782272  1
  Te  Te121  1  0.71530295  0.58555144  0.56449587  1
  Te  Te122  1  0.75012174  0.58261887  0.92240714  1
  Te  Te123  1  0.74964081  0.90275822  0.25454231  1
  Te  Te124  1  0.74236291  0.91901335  0.57921469  1
  Te  Te125  1  0.73635482  0.89509378  0.94979655  1
  Te  Te126  1  0.23836753  0.26784271  0.07892049  1
  Te  Te127  1  0.25518900  0.26269498  0.39395603  1
  Te  Te128  1  0.23819437  0.21852100  0.74860568  1
  Te  Te129  1  0.25204278  0.59608041  0.09366225  1
  Te  Te130  1  0.23639189  0.55646949  0.41034465  1
  Te  Te131  1  0.25340354  0.58402150  0.75858436  1
  Te  Te132  1  0.23610382  0.91994807  0.05273850  1
  Te  Te133  1  0.26979811  0.93518891  0.38581754  1
  Te  Te134  1  0.24931076  0.92007522  0.75814228  1
  Te  Te135  1  0.56172202  0.25072094  0.07937433  1
  Te  Te136  1  0.58746820  0.23875660  0.41544595  1
  Te  Te137  1  0.61322955  0.25668712  0.77664363  1
  Te  Te138  1  0.59529878  0.59554358  0.07135197  1
  Te  Te139  1  0.61524612  0.56854173  0.44188620  1
  Te  Te140  1  0.59212498  0.59938527  0.75821013  1
  Te  Te141  1  0.59568199  0.93540870  0.01666144  1
  Te  Te142  1  0.57387489  0.92735680  0.41108000  1
  Te  Te143  1  0.58854452  0.90238384  0.77794044  1
  Te  Te144  1  0.93679940  0.26452307  0.07738523  1
  Te  Te145  1  0.91164529  0.27091229  0.44295537  1
  Te  Te146  1  0.90924209  0.24078965  0.76525836  1
  Te  Te147  1  0.93960576  0.58267952  0.09955222  1
  Te  Te148  1  0.90675113  0.59931504  0.43087967  1
  Te  Te149  1  0.90801682  0.59060650  0.74529358  1
  Te  Te150  1  0.92656894  0.88113586  0.07129144  1
  Te  Te151  1  0.90849267  0.90612082  0.40577144  1
  Te  Te152  1  0.91201086  0.93405372  0.75748244  1
  Te  Te153  1  0.24234496  0.09812515  0.26118277  1
  Te  Te154  1  0.24953162  0.08024956  0.58161786  1
  Te  Te155  1  0.26063286  0.05801585  0.92106011  1
  Te  Te156  1  0.23024934  0.38914319  0.27206110  1
  Te  Te157  1  0.25642435  0.41312336  0.57295907  1
  Te  Te158  1  0.23852076  0.43513375  0.94234927  1
  Te  Te159  1  0.25472915  0.75030142  0.24028003  1
  Te  Te160  1  0.26281255  0.74323805  0.60414541  1
  Te  Te161  1  0.24618115  0.76414063  0.92714471  1
  Te  Te162  1  0.56521981  0.05731077  0.21692414  1
  Te  Te163  1  0.56747824  0.08640857  0.57938845  1
  Te  Te164  1  0.60655120  0.05501443  0.92758869  1
  Te  Te165  1  0.55920788  0.39699256  0.23550467  1
  Te  Te166  1  0.58822491  0.41561579  0.58050667  1
  Te  Te167  1  0.57551093  0.41884705  0.91807830  1
  Te  Te168  1  0.60332263  0.78098457  0.22080459  1
  Te  Te169  1  0.60317009  0.74437890  0.60312382  1
  Te  Te170  1  0.54292869  0.79581587  0.89376356  1
  Te  Te171  1  0.91051146  0.07851820  0.24228477  1
  Te  Te172  1  0.90940232  0.09624851  0.60495769  1
  Te  Te173  1  0.90872576  0.08628127  0.91204376  1
  Te  Te174  1  0.92320872  0.43030797  0.24814885  1
  Te  Te175  1  0.90863031  0.42969872  0.60451779  1
  Te  Te176  1  0.92898815  0.40707106  0.92822274  1
  Te  Te177  1  0.92040948  0.76029082  0.24892386  1
  Te  Te178  1  0.90074860  0.74329666  0.58695981  1
  Te  Te179  1  0.93453733  0.73901937  0.93795119  1
