# generated using pymatgen
data_In2Te3
_symmetry_space_group_name_H-M   'P 1'
_cell_length_a   18.94619904
_cell_length_b   18.93131808
_cell_length_c   18.91851355
_cell_angle_alpha   90.20419708
_cell_angle_beta   89.78413471
_cell_angle_gamma   90.15238492
_symmetry_Int_Tables_number   1
_chemical_formula_structural   In2Te3
_chemical_formula_sum   'In72 Te108'
_cell_volume   6785.51160117
_cell_formula_units_Z   36
loop_
 _symmetry_equiv_pos_site_id
 _symmetry_equiv_pos_as_xyz
  1  'x, y, z'
loop_
 _atom_site_type_symbol
 _atom_site_label
 _atom_site_symmetry_multiplicity
 _atom_site_fract_x
 _atom_site_fract_y
 _atom_site_fract_z
 _atom_site_occupancy
  In  In0  1  0.01243642  0.87969720  0.82457246  1
  In  In1  1  0.83999001  0.32909361  0.81082746  1
  In  In2  1  0.17898373  0.65964877  0.83441221  1
  In  In3  1  0.01351817  0.00673530  0.01086135  1
  In  In4  1  0.15596871  0.00858694  0.50189513  1
  In  In5  1  0.67137602  0.66980141  0.66744533  1
  In  In6  1  0.88081332  0.84616513  0.34101175  1
  In  In7  1  0.38582374  0.81791055  0.87005769  1
  In  In8  1  0.50674182  0.49139006  0.31670060  1
  In  In9  1  0.84480436  0.17267993  -0.02504160  1
  In  In10  1  0.49637821  0.17493799  0.63059542  1
  In  In11  1  0.84916516  0.15753391  0.32597179  1
  In  In12  1  0.83079935  0.34889500  0.49155663  1
  In  In13  1  -0.00905170  0.49619814  0.84336990  1
  In  In14  1  0.48105011  0.33356946  0.16163494  1
  In  In15  1  0.48993283  0.49522001  0.66692762  1
  In  In16  1  0.49246592  -0.01794493  0.47317623  1
  In  In17  1  0.16853405  0.50075182  0.35789480  1
  In  In18  1  0.18424542  0.47497530  0.00460499  1
  In  In19  1  0.16428541  0.20553092  0.01262324  1
  In  In20  1  -0.00065870  0.52070748  0.17042932  1
  In  In21  1  0.35536443  0.63776500  0.33847371  1
  In  In22  1  0.00400937  0.68180237  0.32787003  1
  In  In23  1  0.02229301  0.18622102  0.20398081  1
  In  In24  1  0.83805602  0.65367271  0.87735376  1
  In  In25  1  0.68819780  -0.03103486  0.65975390  1
  In  In26  1  0.85476098  0.02497370  0.16636562  1
  In  In27  1  -0.00440386  0.02992784  0.62896729  1
  In  In28  1  0.17037734  0.01276856  0.85752603  1
  In  In29  1  0.83880345  0.65890584  0.47187840  1
  In  In30  1  0.18674007  0.86349729  0.68090590  1
  In  In31  1  0.47735435  0.15646830  0.02280880  1
  In  In32  1  0.65810196  0.17262451  0.15891535  1
  In  In33  1  0.02625645  0.18115343  0.82584412  1
  In  In34  1  0.82646559  0.31680001  0.15108899  1
  In  In35  1  0.81875215  0.52703540  0.30012007  1
  In  In36  1  0.02025197  0.64462230  0.67316870  1
  In  In37  1  0.67206743  0.15327689  0.83745647  1
  In  In38  1  0.50782255  0.35470532  0.84054620  1
  In  In39  1  0.33133650  0.03007892  0.32428578  1
  In  In40  1  0.66679530  0.50213404  0.48799049  1
  In  In41  1  0.51220159  0.51039148  0.02137851  1
  In  In42  1  0.46761022  -0.00094233  0.87788573  1
  In  In43  1  0.31905834  0.82812991  0.17736568  1
  In  In44  1  0.31631627  0.81642496  0.51721008  1
  In  In45  1  0.66105102  0.00659563  0.30810742  1
  In  In46  1  0.64904310  0.17498892  0.49245123  1
  In  In47  1  0.50846647  0.64405660  0.52269569  1
  In  In48  1  0.30955439  0.02226396  0.67763672  1
  In  In49  1  0.02082893  0.70515757  0.02181005  1
  In  In50  1  0.16836985  0.35265136  0.17283751  1
  In  In51  1  0.67187795  0.33930933  0.67633614  1
  In  In52  1  0.81684723  -0.01809163  0.82471200  1
  In  In53  1  0.47453042  0.19703970  0.32217113  1
  In  In54  1  0.83171785  0.49390654  0.01434700  1
  In  In55  1  0.48698430  0.82556067  0.31369761  1
  In  In56  1  0.18059114  0.47198374  0.64533102  1
  In  In57  1  0.15474046  0.85430776  0.33005252  1
  In  In58  1  0.81872366  0.82586686  0.00537775  1
  In  In59  1  0.51586977  0.83654480  0.65766180  1
  In  In60  1  0.83163718  0.81487673  0.62972277  1
  In  In61  1  0.43506010  0.32813136  0.48364673  1
  In  In62  1  0.33390742  0.63553494  0.65158029  1
  In  In63  1  0.00567417  0.33227376  0.63768853  1
  In  In64  1  0.66766777  0.81546998  0.17385278  1
  In  In65  1  0.16942391  0.19970246  0.65442141  1
  In  In66  1  0.50871979  0.84099854  0.01681108  1
  In  In67  1  0.48670231  0.65389407  0.84769128  1
  In  In68  1  0.01807384  0.34467989  0.33537165  1
  In  In69  1  0.65512721  0.81947816  0.85300224  1
  In  In70  1  0.33427040  0.18826804  0.82988286  1
  In  In71  1  0.33210655  0.64787102  0.00941607  1
  Te  Te72  1  0.09501159  0.09831840  0.09742905  1
  Te  Te73  1  0.10775148  0.06252736  0.37355593  1
  Te  Te74  1  0.10132301  0.07320602  0.73784904  1
  Te  Te75  1  0.06546557  0.41590466  0.08294108  1
  Te  Te76  1  0.09490252  0.40511828  0.44898149  1
  Te  Te77  1  0.07487842  0.41893749  0.74415345  1
  Te  Te78  1  0.10885412  0.77140480  0.12153232  1
  Te  Te79  1  0.08254375  0.76464954  0.42061928  1
  Te  Te80  1  0.08544530  0.76095523  0.76162597  1
  Te  Te81  1  0.38977809  0.05611017  0.08235183  1
  Te  Te82  1  0.41624236  0.10247802  0.43079533  1
  Te  Te83  1  0.42598475  0.08656484  0.75299350  1
  Te  Te84  1  0.40412218  0.44475230  0.09995439  1
  Te  Te85  1  0.38417474  0.40703868  0.36005277  1
  Te  Te86  1  0.40519531  0.40163471  0.74432310  1
  Te  Te87  1  0.41463498  0.74554547  0.09097281  1
  Te  Te88  1  0.42925924  0.75048029  0.44055669  1
  Te  Te89  1  0.42125410  0.73864398  0.72987015  1
  Te  Te90  1  0.75658848  0.09329690  0.07230176  1
  Te  Te91  1  0.74185722  0.08638749  0.40917386  1
  Te  Te92  1  0.75822265  0.08602654  0.73062948  1
  Te  Te93  1  0.73399766  0.42031106  0.10097096  1
  Te  Te94  1  0.74807777  0.42274931  0.38774725  1
  Te  Te95  1  0.75964657  0.43227680  0.74639707  1
  Te  Te96  1  0.74613102  0.72748636  0.08431197  1
  Te  Te97  1  0.77589827  0.73815139  0.36409919  1
  Te  Te98  1  0.75749642  0.75909255  0.75758118  1
  Te  Te99  1  0.13021094  0.25372067  0.28408310  1
  Te  Te100  1  0.06505257  0.22338388  0.55527677  1
  Te  Te101  1  0.08268647  0.28432575  0.91561627  1
  Te  Te102  1  0.10225279  0.59157720  0.25248771  1
  Te  Te103  1  0.09560619  0.56955313  0.57387691  1
  Te  Te104  1  0.07559515  0.59345763  0.92554296  1
  Te  Te105  1  0.06454453  0.88732167  0.21581902  1
  Te  Te106  1  0.08060898  0.90570044  0.58491321  1
  Te  Te107  1  0.10567280  0.90485465  0.94195741  1
  Te  Te108  1  0.37961735  0.23398173  0.21451920  1
  Te  Te109  1  0.39714765  0.28252149  0.62117067  1
  Te  Te110  1  0.42111824  0.26492841  0.92754580  1
  Te  Te111  1  0.41962431  0.56958816  0.22197262  1
  Te  Te112  1  0.39896365  0.54083878  0.55110439  1
  Te  Te113  1  0.40003749  0.55195789  0.91394519  1
  Te  Te114  1  0.41361128  0.93249391  0.23707008  1
  Te  Te115  1  0.40432637  0.92433040  0.59594113  1
  Te  Te116  1  0.37979761  0.93691454  0.98635245  1
  Te  Te117  1  0.74507813  0.24608254  0.25916979  1
  Te  Te118  1  0.74818054  0.25069566  0.57811112  1
  Te  Te119  1  0.74235868  0.26410078  0.91363716  1
  Te  Te120  1  0.72000637  0.56158069  0.19659431  1
  Te  Te121  1  0.75773299  0.58211595  0.57913713  1
  Te  Te122  1  0.73384289  0.56586042  0.92817486  1
  Te  Te123  1  0.77241776  0.92376062  0.24558239  1
  Te  Te124  1  0.76412164  0.91429721  0.54379533  1
  Te  Te125  1  0.72982586  0.92659304  0.93397878  1
  Te  Te126  1  0.26798644  0.26789357  0.09818185  1
  Te  Te127  1  0.29979902  0.29183228  0.42995522  1
  Te  Te128  1  0.22656770  0.27323942  0.77121444  1
  Te  Te129  1  0.22389353  0.58757554  0.08869160  1
  Te  Te130  1  0.25772919  0.58972620  0.43733487  1
  Te  Te131  1  0.25451847  0.55748232  0.75459189  1
  Te  Te132  1  0.19823652  0.90763238  0.13861686  1
  Te  Te133  1  0.26685397  0.92416499  0.42430534  1
  Te  Te134  1  0.27809861  0.91712045  0.78946907  1
  Te  Te135  1  0.58143214  0.25980209  0.06509304  1
  Te  Te136  1  0.56671703  0.27381999  0.41616175  1
  Te  Te137  1  0.58097540  0.23785178  0.74912445  1
  Te  Te138  1  0.58068336  0.58721018  0.13066575  1
  Te  Te139  1  0.58751015  0.59619702  0.40147391  1
  Te  Te140  1  0.58267825  0.58107690  0.75213313  1
  Te  Te141  1  0.59381085  0.92103393  0.10366742  1
  Te  Te142  1  0.59367072  0.90129594  0.39571689  1
  Te  Te143  1  0.57828446  0.92154100  0.76836393  1
  Te  Te144  1  0.93117464  0.22862875  0.08598613  1
  Te  Te145  1  0.92454947  0.25337959  0.41627016  1
  Te  Te146  1  0.92449374  0.23243408  0.72950916  1
  Te  Te147  1  0.91925729  0.60681737  0.07683860  1
  Te  Te148  1  0.92866998  0.56221389  0.39763469  1
  Te  Te149  1  0.90547260  0.58790014  0.75818098  1
  Te  Te150  1  0.91885889  0.91269328  0.08342323  1
  Te  Te151  1  0.91475387  0.93178823  0.45706842  1
  Te  Te152  1  0.91207587  0.92212928  0.71899998  1
  Te  Te153  1  0.20432679  0.06376908  0.25911467  1
  Te  Te154  1  0.25720264  0.10812559  0.56799638  1
  Te  Te155  1  0.25538980  0.10890236  0.93402852  1
  Te  Te156  1  0.25998620  0.43236439  0.26029392  1
  Te  Te157  1  0.22238575  0.37483498  0.54012744  1
  Te  Te158  1  0.22183538  0.37449411  0.90576347  1
  Te  Te159  1  0.26000602  0.74509864  0.28908427  1
  Te  Te160  1  0.22749134  0.73398082  0.60507679  1
  Te  Te161  1  0.25769949  0.75156507  0.92489558  1
  Te  Te162  1  0.55777776  0.09465195  0.24223241  1
  Te  Te163  1  0.58624288  0.05546649  0.57625891  1
  Te  Te164  1  0.58203154  0.07963644  0.93504296  1
  Te  Te165  1  0.58428856  0.38349180  0.25421789  1
  Te  Te166  1  0.58222379  0.41284652  0.57698582  1
  Te  Te167  1  0.59640756  0.44016507  0.92024336  1
  Te  Te168  1  0.56441548  0.72546465  0.23545771  1
  Te  Te169  1  0.60583230  0.75783122  0.56352935  1
  Te  Te170  1  0.58159682  0.72405496  0.94324634  1
  Te  Te171  1  0.95941857  0.06400127  0.27453609  1
  Te  Te172  1  0.90599605  0.07095639  0.52301676  1
  Te  Te173  1  0.92932255  0.07070227  0.89365531  1
  Te  Te174  1  0.91644172  0.40724837  0.24008028  1
  Te  Te175  1  0.90956070  0.42903854  0.58439411  1
  Te  Te176  1  0.91251959  0.39747323  0.92748842  1
  Te  Te177  1  0.89255540  0.73243679  0.24339008  1
  Te  Te178  1  0.93536627  0.72505846  0.57011618  1
  Te  Te179  1  0.92505795  0.77513335  0.90425991  1
