# generated using pymatgen
data_In2Te3
_symmetry_space_group_name_H-M   'P 1'
_cell_length_a   18.95864883
_cell_length_b   18.96562803
_cell_length_c   18.94161524
_cell_angle_alpha   90.03301061
_cell_angle_beta   90.04622358
_cell_angle_gamma   89.97889979
_symmetry_Int_Tables_number   1
_chemical_formula_structural   In2Te3
_chemical_formula_sum   'In72 Te108'
_cell_volume   6810.69416308
_cell_formula_units_Z   36
loop_
 _symmetry_equiv_pos_site_id
 _symmetry_equiv_pos_as_xyz
  1  'x, y, z'
loop_
 _atom_site_type_symbol
 _atom_site_label
 _atom_site_symmetry_multiplicity
 _atom_site_fract_x
 _atom_site_fract_y
 _atom_site_fract_z
 _atom_site_occupancy
  In  In0  1  0.81129095  0.64213407  0.83263975  1
  In  In1  1  0.51291722  0.19026652  0.34541356  1
  In  In2  1  0.18510414  0.34501508  0.81580735  1
  In  In3  1  0.80852564  0.39286963  0.13688140  1
  In  In4  1  0.16773418  0.32760148  0.20596065  1
  In  In5  1  0.67641500  0.79160201  0.86839865  1
  In  In6  1  0.66595608  0.82507746  0.47675502  1
  In  In7  1  0.50779179  0.50564185  0.02289970  1
  In  In8  1  0.83697739  0.49280808  0.66222776  1
  In  In9  1  0.66583923  -0.01965984  0.02021866  1
  In  In10  1  0.16509789  -0.00654645  0.86180740  1
  In  In11  1  0.17175951  0.18490315  0.68720496  1
  In  In12  1  0.81939473  0.83023687  0.31613794  1
  In  In13  1  -0.00760067  0.17499330  0.83950789  1
  In  In14  1  0.33996071  0.83868620  0.15620778  1
  In  In15  1  0.02169665  -0.00493468  0.00199410  1
  In  In16  1  0.47977603  0.61475330  0.46828005  1
  In  In17  1  -0.00714570  0.02203574  0.35050709  1
  In  In18  1  0.33135620  0.00876758  0.31088018  1
  In  In19  1  0.17149083  0.16137899  0.01668284  1
  In  In20  1  0.83347877  0.17628998  0.63033917  1
  In  In21  1  0.84545180  0.83058064  0.63723968  1
  In  In22  1  0.16866135  0.81199881  0.69142088  1
  In  In23  1  0.12223681  0.51605676  0.64879315  1
  In  In24  1  0.17330386  0.84399234  0.33239022  1
  In  In25  1  0.83279652  0.19305226  0.34167925  1
  In  In26  1  0.33658939  0.03804914  0.03094598  1
  In  In27  1  0.01837583  0.82338624  0.18267215  1
  In  In28  1  0.68476172  0.16362164  0.83948145  1
  In  In29  1  0.62349325  0.21151905  0.15773456  1
  In  In30  1  0.50144865  0.32250402  0.86988505  1
  In  In31  1  0.85834665  0.17092323  0.01657058  1
  In  In32  1  0.33737819  0.78229113  0.50541018  1
  In  In33  1  0.16876965  0.82413777  0.01324119  1
  In  In34  1  0.68001666  0.48279417  0.47407770  1
  In  In35  1  0.48999371  -0.00524420  0.86329090  1
  In  In36  1  0.71612009  0.65450358  0.31647923  1
  In  In37  1  0.82938521  -0.00817418  0.16699084  1
  In  In38  1  0.65334352  0.36281548  0.30516412  1
  In  In39  1  0.81037735  0.01165102  0.49278166  1
  In  In40  1  0.33558497  0.49572380  0.15881953  1
  In  In41  1  0.35213151  0.48803087  0.81721022  1
  In  In42  1  0.66094863  0.82486385  0.16568057  1
  In  In43  1  0.00376971  0.80697035  0.48710084  1
  In  In44  1  0.51936127  0.80256816  0.66803957  1
  In  In45  1  0.35520952  0.19669777  0.19788118  1
  In  In46  1  0.65976246  0.64079366  0.67466926  1
  In  In47  1  -0.01528801  -0.01352746  0.65827854  1
  In  In48  1  0.15601381  0.32704656  0.48111207  1
  In  In49  1  0.68669893  0.33099940  0.63433397  1
  In  In50  1  0.65759063  0.65274648  0.03560555  1
  In  In51  1  0.31621809  0.65134066  0.31806808  1
  In  In52  1  0.50445393  0.18193761  0.65216111  1
  In  In53  1  0.33032638  0.85585282  0.84918119  1
  In  In54  1  0.34914422  0.68575164  0.02201206  1
  In  In55  1  0.33489640  0.34676095  0.64449605  1
  In  In56  1  0.33766616  0.66629229  0.67247606  1
  In  In57  1  0.51646955  0.00303683  0.51668223  1
  In  In58  1  -0.01221574  0.35196353  -0.00480055  1
  In  In59  1  0.81568175  0.82767388  -0.01304371  1
  In  In60  1  0.31210048  0.17058438  0.49197283  1
  In  In61  1  0.64955160  0.02375150  0.68477369  1
  In  In62  1  0.17626764  0.50378125  -0.01988376  1
  In  In63  1  0.83336091  0.34519682  0.84130147  1
  In  In64  1  0.36728830  0.02084201  0.65188205  1
  In  In65  1  0.53839285  0.65880055  0.85390477  1
  In  In66  1  0.13885166  0.64855662  0.83741355  1
  In  In67  1  -0.02164646  0.63445664  0.34169180  1
  In  In68  1  -0.00282705  0.49876692  0.15903304  1
  In  In69  1  0.15907199  0.50746176  0.35302558  1
  In  In70  1  0.14849477  -0.00049432  0.47154593  1
  In  In71  1  0.00622403  0.36143364  0.64572476  1
  Te  Te72  1  0.06092688  0.10306640  0.09149507  1
  Te  Te73  1  0.09963129  0.11518463  0.39588749  1
  Te  Te74  1  0.07990669  0.07876513  0.75607886  1
  Te  Te75  1  0.10393937  0.41390453  0.08656483  1
  Te  Te76  1  0.05828662  0.40642262  0.40030608  1
  Te  Te77  1  0.07106149  0.42927144  0.76520606  1
  Te  Te78  1  0.06997447  0.73617993  0.07671687  1
  Te  Te79  1  0.09210732  0.73150993  0.39333417  1
  Te  Te80  1  0.05988505  0.73227380  0.74603913  1
  Te  Te81  1  0.43747743  0.09803550  0.12034356  1
  Te  Te82  1  0.41432300  0.07620986  0.42907413  1
  Te  Te83  1  0.43733642  0.09641513  0.76177481  1
  Te  Te84  1  0.42682405  0.39868853  0.08870668  1
  Te  Te85  1  0.46257151  0.46464974  0.47654409  1
  Te  Te86  1  0.44203061  0.39381353  0.74247987  1
  Te  Te87  1  0.43419992  0.72586560  0.13261841  1
  Te  Te88  1  0.42294815  0.73884535  0.39275532  1
  Te  Te89  1  0.41658386  0.75351762  0.77384088  1
  Te  Te90  1  0.74724964  0.09194794  0.08697178  1
  Te  Te91  1  0.73890416  0.09391768  0.39637371  1
  Te  Te92  1  0.77504798  0.08897506  0.74114939  1
  Te  Te93  1  0.72340295  0.44356818  0.02246217  1
  Te  Te94  1  0.77372767  0.43501425  0.36456609  1
  Te  Te95  1  0.73659459  0.41787172  0.74946803  1
  Te  Te96  1  0.76524606  0.73810074  0.09871747  1
  Te  Te97  1  0.77957218  0.73689422  0.42970805  1
  Te  Te98  1  0.73725879  0.75672565  0.73301310  1
  Te  Te99  1  0.06558269  0.25319079  0.28005011  1
  Te  Te100  1  0.07776631  0.24260526  0.58450671  1
  Te  Te101  1  0.09415657  0.25974191  0.91316647  1
  Te  Te102  1  0.08619812  0.58703573  0.24416115  1
  Te  Te103  1  0.03478906  0.57998089  0.54278844  1
  Te  Te104  1  0.06151192  0.59051453  0.94820817  1
  Te  Te105  1  0.08319491  0.93802345  0.25515275  1
  Te  Te106  1  0.08653581  0.90262927  0.57843134  1
  Te  Te107  1  0.07162941  0.88631026  0.90746391  1
  Te  Te108  1  0.43681386  0.29412840  0.27434830  1
  Te  Te109  1  0.42126797  0.26051692  0.55425129  1
  Te  Te110  1  0.44283415  0.22273677  0.95768894  1
  Te  Te111  1  0.42035639  0.56818631  0.25533391  1
  Te  Te112  1  0.40019117  0.56080698  0.58641545  1
  Te  Te113  1  0.41306690  0.58414263  0.92008011  1
  Te  Te114  1  0.42261172  0.91337234  0.25198898  1
  Te  Te115  1  0.41645037  0.88707058  0.59192189  1
  Te  Te116  1  0.40716489  0.91607633  0.96294107  1
  Te  Te117  1  0.74755001  0.26489160  0.22265741  1
  Te  Te118  1  0.77961242  0.27392146  0.53263269  1
  Te  Te119  1  0.75824869  0.25396611  0.93659521  1
  Te  Te120  1  0.78646149  0.54226189  0.24486389  1
  Te  Te121  1  0.74910729  0.57969556  0.57170992  1
  Te  Te122  1  0.71829519  0.56696522  0.92474267  1
  Te  Te123  1  0.72576088  0.93246975  0.25825821  1
  Te  Te124  1  0.72501495  0.92428961  0.58661326  1
  Te  Te125  1  0.74028110  0.92564346  0.89934050  1
  Te  Te126  1  0.25165615  0.25910562  0.09759517  1
  Te  Te127  1  0.26946363  0.27740396  0.40155002  1
  Te  Te128  1  0.28836403  0.25043341  0.75550066  1
  Te  Te129  1  0.24627010  0.59314167  0.08240600  1
  Te  Te130  1  0.25299217  0.58689122  0.43423828  1
  Te  Te131  1  0.24170422  0.56761791  0.74956049  1
  Te  Te132  1  0.23651736  0.93465065  0.08749842  1
  Te  Te133  1  0.26263330  0.90446729  0.44022651  1
  Te  Te134  1  0.25182431  0.93078390  0.74380990  1
  Te  Te135  1  0.55245821  0.27917862  0.04438434  1
  Te  Te136  1  0.60575342  0.27896879  0.41617419  1
  Te  Te137  1  0.60554383  0.25151705  0.74409495  1
  Te  Te138  1  0.59952101  0.55392881  0.13454133  1
  Te  Te139  1  0.60123277  0.57521641  0.38278055  1
  Te  Te140  1  0.55380401  0.56723745  0.74186301  1
  Te  Te141  1  0.56426163  0.91551472  0.10136984  1
  Te  Te142  1  0.57735903  0.92190784  0.41206243  1
  Te  Te143  1  0.56922517  0.91697278  0.75753045  1
  Te  Te144  1  0.92215974  0.27431141  0.10286306  1
  Te  Te145  1  0.94963702  0.27696761  0.37999049  1
  Te  Te146  1  0.91776560  0.25991243  0.73825900  1
  Te  Te147  1  0.86128051  0.53618679  0.10078906  1
  Te  Te148  1  0.92918882  0.54122766  0.44498333  1
  Te  Te149  1  0.91496758  0.58152064  0.74913165  1
  Te  Te150  1  0.91829362  0.90410217  0.08232487  1
  Te  Te151  1  0.90754511  0.90699439  0.41707247  1
  Te  Te152  1  0.90841022  0.90229278  0.74865151  1
  Te  Te153  1  0.24762727  0.10714652  0.24786747  1
  Te  Te154  1  0.23359837  0.08324732  0.58978125  1
  Te  Te155  1  0.26090493  0.09826328  0.90958805  1
  Te  Te156  1  0.26080567  0.42519182  0.27332571  1
  Te  Te157  1  0.22425394  0.42442985  0.57843495  1
  Te  Te158  1  0.27713152  0.40532335  0.92086573  1
  Te  Te159  1  0.23997483  0.75332447  0.23301789  1
  Te  Te160  1  0.22353374  0.71918758  0.58418202  1
  Te  Te161  1  0.24805262  0.74112896  0.90547132  1
  Te  Te162  1  0.56871669  0.10270006  0.23940815  1
  Te  Te163  1  0.60893365  0.11165645  0.56749409  1
  Te  Te164  1  0.59331119  0.08306357  0.93015314  1
  Te  Te165  1  0.56789889  0.41397572  0.19456979  1
  Te  Te166  1  0.58155995  0.41849127  0.56908217  1
  Te  Te167  1  0.59232808  0.42868668  0.92241279  1
  Te  Te168  1  0.60399478  0.73745012  0.26899070  1
  Te  Te169  1  0.57749328  0.72425906  0.55498392  1
  Te  Te170  1  0.56580429  0.75752477  0.96313963  1
  Te  Te171  1  0.90703852  0.09235317  0.24829996  1
  Te  Te172  1  0.92931366  0.08389638  0.55601560  1
  Te  Te173  1  0.91625326  0.07102626  0.91799009  1
  Te  Te174  1  0.91082607  0.41596914  0.24768661  1
  Te  Te175  1  0.89155749  0.39849302  0.55891722  1
  Te  Te176  1  0.91651100  0.44526485  0.90915646  1
  Te  Te177  1  0.91262368  0.73454336  0.24461764  1
  Te  Te178  1  0.93395297  0.72260176  0.58627882  1
  Te  Te179  1  0.89513972  0.72449786  0.92049113  1
