# generated using pymatgen
data_In2Te3
_symmetry_space_group_name_H-M   'P 1'
_cell_length_a   18.98208017
_cell_length_b   18.99858712
_cell_length_c   18.98234234
_cell_angle_alpha   89.90626235
_cell_angle_beta   90.05804992
_cell_angle_gamma   90.13832143
_symmetry_Int_Tables_number   1
_chemical_formula_structural   In2Te3
_chemical_formula_sum   'In72 Te108'
_cell_volume   6845.62084566
_cell_formula_units_Z   36
loop_
 _symmetry_equiv_pos_site_id
 _symmetry_equiv_pos_as_xyz
  1  'x, y, z'
loop_
 _atom_site_type_symbol
 _atom_site_label
 _atom_site_symmetry_multiplicity
 _atom_site_fract_x
 _atom_site_fract_y
 _atom_site_fract_z
 _atom_site_occupancy
  In  In0  1  0.32159503  0.80996343  0.85280762  1
  In  In1  1  -0.00186331  -0.00272213  0.33530076  1
  In  In2  1  0.66859212  -0.00703732  0.68187049  1
  In  In3  1  -0.00101074  0.50584842  0.50180685  1
  In  In4  1  -0.02709843  0.82815698  0.14468181  1
  In  In5  1  0.83017283  0.00214131  0.16736148  1
  In  In6  1  0.35731210  -0.02283524  0.35054895  1
  In  In7  1  0.17578227  0.00323019  0.52760438  1
  In  In8  1  0.79260593  0.83255595  -0.00877200  1
  In  In9  1  -0.01366617  0.00842440  0.68969086  1
  In  In10  1  0.52041425  0.33947608  0.15319048  1
  In  In11  1  -0.00970278  0.84783502  0.48954217  1
  In  In12  1  0.50017368  0.32357590  0.83717694  1
  In  In13  1  0.17275707  0.60407547  0.15662657  1
  In  In14  1  0.66976315  0.50747545  0.50183375  1
  In  In15  1  0.51255009  -0.00621925  0.83068509  1
  In  In16  1  0.85983344  0.36620386  0.18615215  1
  In  In17  1  0.33355724  0.51549918  0.47536083  1
  In  In18  1  -0.00298887  0.18857117  0.51838059  1
  In  In19  1  0.15129827  0.36116741  0.84856318  1
  In  In20  1  0.66020168  0.51098061  0.15030818  1
  In  In21  1  0.15422653  0.82861057  0.00182163  1
  In  In22  1  0.49919013  0.84241541  0.34140984  1
  In  In23  1  0.35925675  -0.00042641  0.67200458  1
  In  In24  1  0.50495892  0.01326823  0.51210235  1
  In  In25  1  -0.00440717  0.64604916  -0.00884279  1
  In  In26  1  0.84681443  0.66837474  0.19009987  1
  In  In27  1  0.48817329  0.33928377  0.50710794  1
  In  In28  1  0.83496656  0.48131718  -0.02989558  1
  In  In29  1  0.15592465  0.04233405  0.14460194  1
  In  In30  1  0.16560945  0.20080389  -0.01211296  1
  In  In31  1  0.82326474  0.15034090  0.67017047  1
  In  In32  1  0.65586862  0.83081455  0.52832190  1
  In  In33  1  0.63200448  0.82547212  0.16424765  1
  In  In34  1  0.32306094  0.85927614  0.51893026  1
  In  In35  1  0.52780066  0.67467074  0.83996924  1
  In  In36  1  0.65838083  0.66246512  0.33325340  1
  In  In37  1  0.00896918  0.66613844  0.33423485  1
  In  In38  1  0.49348488  0.68395885  0.50243645  1
  In  In39  1  0.34212797  0.31489313  0.67800274  1
  In  In40  1  0.51661695  -0.00036048  0.17404008  1
  In  In41  1  0.67114643  0.34019326  0.70128857  1
  In  In42  1  0.48506321  0.50329682  0.00415626  1
  In  In43  1  0.33978062  0.65252585  0.68229828  1
  In  In44  1  0.00309676  0.64905993  0.69483556  1
  In  In45  1  0.66571402  0.50554451  0.83548934  1
  In  In46  1  0.32930989  -0.00699858  0.00863774  1
  In  In47  1  0.15333421  0.81679205  0.29941921  1
  In  In48  1  0.81944673  0.68185604  0.82543125  1
  In  In49  1  0.17475662  0.50131935  0.66310830  1
  In  In50  1  0.35994778  0.34216461  0.00989282  1
  In  In51  1  0.84201190  0.15324088  -0.00557557  1
  In  In52  1  0.66980128  0.02319090  -0.01884468  1
  In  In53  1  0.15973146  0.79707867  0.68216299  1
  In  In54  1  0.35370384  0.15972558  0.16823634  1
  In  In55  1  0.15152887  0.37030444  0.14464704  1
  In  In56  1  0.35711629  0.77814993  0.11645750  1
  In  In57  1  0.15604531  0.34448442  0.48486086  1
  In  In58  1  0.33665609  0.62148970  0.30942414  1
  In  In59  1  0.16722205  0.17374134  0.32887680  1
  In  In60  1  0.68142594  0.03200534  0.32050436  1
  In  In61  1  0.32565567  0.47572232  0.82437303  1
  In  In62  1  0.68585718  0.29775544  -0.01805500  1
  In  In63  1  0.02001601  0.17024461  0.13173482  1
  In  In64  1  0.81493319  0.67506586  0.51786500  1
  In  In65  1  0.16219850  -0.00416480  0.83003467  1
  In  In66  1  0.67429886  0.15799817  0.49713673  1
  In  In67  1  0.84341806  0.33199826  0.48576987  1
  In  In68  1  0.31321454  0.34895221  0.31122761  1
  In  In69  1  0.82537278  0.83905965  0.67477191  1
  In  In70  1  -0.01966253  0.32592388  0.65916003  1
  In  In71  1  0.67850508  0.33797662  0.33434268  1
  Te  Te72  1  0.05830439  0.06425231  0.02624173  1
  Te  Te73  1  0.08900640  0.08309048  0.42744900  1
  Te  Te74  1  0.09241454  0.09177425  0.74455993  1
  Te  Te75  1  0.05105081  0.43038932  0.05281354  1
  Te  Te76  1  0.05273341  0.40990107  0.40101434  1
  Te  Te77  1  0.06859011  0.42513717  0.73776852  1
  Te  Te78  1  0.07813031  0.73212576  0.09688577  1
  Te  Te79  1  0.09309951  0.75518304  0.42438687  1
  Te  Te80  1  0.08470296  0.72948430  0.78744594  1
  Te  Te81  1  0.43539266  0.08222164  0.06933068  1
  Te  Te82  1  0.42018733  0.08818412  0.41934483  1
  Te  Te83  1  0.41170432  0.08576181  0.77660009  1
  Te  Te84  1  0.39984112  0.44315529  0.12173962  1
  Te  Te85  1  0.41863411  0.41956636  0.39639913  1
  Te  Te86  1  0.43527591  0.41841660  0.73858342  1
  Te  Te87  1  0.46603571  0.72757434  0.02768347  1
  Te  Te88  1  0.39444728  0.76295524  0.41811795  1
  Te  Te89  1  0.42247951  0.75394881  0.75564176  1
  Te  Te90  1  0.73677336  0.09560358  0.09549392  1
  Te  Te91  1  0.77390762  0.10682728  0.40404832  1
  Te  Te92  1  0.77295228  0.05209064  0.77015215  1
  Te  Te93  1  0.74488993  0.40787068  0.07781848  1
  Te  Te94  1  0.76632520  0.43673375  0.40858315  1
  Te  Te95  1  0.76902233  0.41709258  0.77882406  1
  Te  Te96  1  0.74439951  0.74367597  0.10508246  1
  Te  Te97  1  0.73652219  0.75857601  0.41837795  1
  Te  Te98  1  0.72181124  0.76440596  0.74957068  1
  Te  Te99  1  0.08887671  0.25949043  0.23565434  1
  Te  Te100  1  0.10421877  0.25768218  0.59800729  1
  Te  Te101  1  0.05522269  0.26842907  0.91799021  1
  Te  Te102  1  0.03940788  0.57066713  0.22252158  1
  Te  Te103  1  0.09275364  0.59560132  0.57901322  1
  Te  Te104  1  0.07978341  0.53477255  0.94271307  1
  Te  Te105  1  0.07372409  0.92371912  0.22467266  1
  Te  Te106  1  0.08493027  0.90602022  0.59977906  1
  Te  Te107  1  0.07657799  0.89747964  0.89879724  1
  Te  Te108  1  0.42588326  0.26354877  0.24830504  1
  Te  Te109  1  0.43430227  0.23704180  0.59705261  1
  Te  Te110  1  0.39304996  0.24759006  0.90476526  1
  Te  Te111  1  0.41846578  0.57412773  0.20187678  1
  Te  Te112  1  0.42215177  0.57449850  0.58273317  1
  Te  Te113  1  0.41915724  0.57528215  0.89018624  1
  Te  Te114  1  0.41004617  0.90004510  0.22857825  1
  Te  Te115  1  0.44606174  0.90051728  0.59504408  1
  Te  Te116  1  0.41419915  0.90852334  0.91899642  1
  Te  Te117  1  0.76540765  0.26747851  0.24073129  1
  Te  Te118  1  0.75211107  0.26251078  0.58622759  1
  Te  Te119  1  0.79398885  0.25212685  0.89316175  1
  Te  Te120  1  0.75238255  0.57215520  0.25779516  1
  Te  Te121  1  0.74281786  0.58285633  0.60448061  1
  Te  Te122  1  0.74452464  0.59517330  0.92821922  1
  Te  Te123  1  0.73188646  0.91310341  0.24196710  1
  Te  Te124  1  0.75779507  0.93118558  0.57446344  1
  Te  Te125  1  0.75136493  0.93644180  0.89282079  1
  Te  Te126  1  0.25216013  0.25459843  0.09987716  1
  Te  Te127  1  0.25863688  0.25399999  0.41849376  1
  Te  Te128  1  0.24970928  0.27125553  0.78348682  1
  Te  Te129  1  0.24523184  0.58726030  0.03184534  1
  Te  Te130  1  0.22771023  0.57768196  0.39564436  1
  Te  Te131  1  0.23563036  0.58738978  0.77149748  1
  Te  Te132  1  0.23351322  0.91755940  0.09727650  1
  Te  Te133  1  0.22710282  0.91231772  0.40492648  1
  Te  Te134  1  0.25694407  0.89967347  0.74350361  1
  Te  Te135  1  0.57676784  0.24013259  0.06259093  1
  Te  Te136  1  0.58680172  0.25591780  0.42242020  1
  Te  Te137  1  0.60528905  0.23337209  0.78064310  1
  Te  Te138  1  0.57291944  0.60420067  0.07241313  1
  Te  Te139  1  0.56440014  0.58005264  0.41761559  1
  Te  Te140  1  0.58106546  0.57979330  0.74224751  1
  Te  Te141  1  0.58289520  0.92362391  0.06110599  1
  Te  Te142  1  0.59471283  0.92842355  0.41889110  1
  Te  Te143  1  0.59861516  0.89280998  0.76527719  1
  Te  Te144  1  0.90785504  0.25745260  0.08611438  1
  Te  Te145  1  0.93422869  0.25233787  0.40355305  1
  Te  Te146  1  0.90663048  0.23994349  0.75352493  1
  Te  Te147  1  0.88922733  0.57944919  0.07646217  1
  Te  Te148  1  0.90754809  0.59796861  0.42291715  1
  Te  Te149  1  0.90608730  0.57480770  0.77371555  1
  Te  Te150  1  0.89852918  0.92512419  0.05717328  1
  Te  Te151  1  0.89552042  0.92383648  0.40950859  1
  Te  Te152  1  0.91794754  0.90546938  0.76696365  1
  Te  Te153  1  0.26479738  0.07382879  0.25841968  1
  Te  Te154  1  0.27882009  0.08785615  0.58494486  1
  Te  Te155  1  0.24265156  0.08546986  0.92657415  1
  Te  Te156  1  0.22239446  0.44876993  0.24819173  1
  Te  Te157  1  0.26415116  0.41661826  0.57576144  1
  Te  Te158  1  0.25108138  0.42839243  0.94905826  1
  Te  Te159  1  0.25138280  0.72832669  0.22673000  1
  Te  Te160  1  0.25911270  0.73765476  0.58361268  1
  Te  Te161  1  0.25195051  0.72269424  0.95430353  1
  Te  Te162  1  0.56406130  0.10021267  0.26769727  1
  Te  Te163  1  0.58782746  0.09732868  0.60684824  1
  Te  Te164  1  0.59501949  0.10771620  0.88516088  1
  Te  Te165  1  0.58572336  0.43019914  0.25472989  1
  Te  Te166  1  0.59291374  0.41081073  0.59122564  1
  Te  Te167  1  0.58397597  0.41069503  0.93499749  1
  Te  Te168  1  0.55091283  0.73160754  0.25165005  1
  Te  Te169  1  0.59249080  0.72300726  0.60362882  1
  Te  Te170  1  0.59230111  0.74782686  0.94965451  1
  Te  Te171  1  0.93463209  0.08937739  0.23355694  1
  Te  Te172  1  0.91435806  0.07561284  0.57368176  1
  Te  Te173  1  0.94163483  0.06932445  0.93062348  1
  Te  Te174  1  0.96052770  0.44184742  0.26148850  1
  Te  Te175  1  0.89918577  0.43136603  0.58731033  1
  Te  Te176  1  0.95495837  0.40294395  0.93266790  1
  Te  Te177  1  0.91494850  0.77359093  0.27367499  1
  Te  Te178  1  0.92700988  0.74845828  0.59311116  1
  Te  Te179  1  0.90721944  0.75284669  0.92820224  1
