# generated using pymatgen
data_In2Te3
_symmetry_space_group_name_H-M   'P 1'
_cell_length_a   18.85209925
_cell_length_b   18.86407079
_cell_length_c   18.85832638
_cell_angle_alpha   89.92539703
_cell_angle_beta   90.03269416
_cell_angle_gamma   90.03400908
_symmetry_Int_Tables_number   1
_chemical_formula_structural   In2Te3
_chemical_formula_sum   'In72 Te108'
_cell_volume   6706.52839200
_cell_formula_units_Z   36
loop_
 _symmetry_equiv_pos_site_id
 _symmetry_equiv_pos_as_xyz
  1  'x, y, z'
loop_
 _atom_site_type_symbol
 _atom_site_label
 _atom_site_symmetry_multiplicity
 _atom_site_fract_x
 _atom_site_fract_y
 _atom_site_fract_z
 _atom_site_occupancy
  In  In0  1  0.32627257  0.50644099  0.48646770  1
  In  In1  1  0.49978338  0.63102077  0.16558861  1
  In  In2  1  0.66383363  0.35300726  0.30665360  1
  In  In3  1  0.00329914  0.36293664  0.66160476  1
  In  In4  1  0.67640333  0.16701929  0.50836597  1
  In  In5  1  0.01626334  0.32651875  0.31187015  1
  In  In6  1  0.69982444  0.81379440  0.81719680  1
  In  In7  1  0.01592888  -0.00335187  0.68591756  1
  In  In8  1  0.46406324  0.15671769  0.65508000  1
  In  In9  1  -0.00522192  0.82336825  0.81822958  1
  In  In10  1  0.31166655  0.17521259  0.53713836  1
  In  In11  1  0.28896056  0.79916116  0.52317037  1
  In  In12  1  0.50087640  0.31343156  0.49978732  1
  In  In13  1  -0.00469622  0.01420427  0.31968292  1
  In  In14  1  0.85037737  0.82724809  0.33146656  1
  In  In15  1  0.67213846  0.68189745  0.67314579  1
  In  In16  1  0.49191250  0.80806728  0.67675229  1
  In  In17  1  0.00531500  0.81953631  0.18371690  1
  In  In18  1  0.16823885  0.33083737  0.50194472  1
  In  In19  1  -0.00606290  0.50079040  0.82886946  1
  In  In20  1  0.32800710  0.83273381  0.84006958  1
  In  In21  1  0.83077360  0.51114412  0.32122750  1
  In  In22  1  0.17435626  0.00132714  0.83583822  1
  In  In23  1  0.16966760  -0.00196523  0.17553865  1
  In  In24  1  0.15235470  0.65647566  0.83474040  1
  In  In25  1  0.03217085  0.80049137  0.47483984  1
  In  In26  1  0.66165160  0.34899232  0.01277259  1
  In  In27  1  0.15172860  0.20393641  0.01842304  1
  In  In28  1  0.49554922  0.01736678  0.15757658  1
  In  In29  1  0.00080857  0.51549227  0.51369195  1
  In  In30  1  0.34325334  0.33702436  0.00319719  1
  In  In31  1  0.15925480  0.00345994  0.48842078  1
  In  In32  1  0.48034825  0.47402505  0.32308066  1
  In  In33  1  0.49186753  0.48435079  0.67902100  1
  In  In34  1  0.81489032  0.00860174  0.16754378  1
  In  In35  1  0.01090157  0.15588221  0.48690044  1
  In  In36  1  0.16185142  0.45771547  -0.00954072  1
  In  In37  1  -0.00723045  0.00708654  -0.01277159  1
  In  In38  1  0.66655328  0.82819316  0.15867152  1
  In  In39  1  0.47227251  0.19410068  0.29123773  1
  In  In40  1  0.48972835  0.84034221  0.01296608  1
  In  In41  1  0.65920351  0.16101292  0.15611878  1
  In  In42  1  0.83773150  0.33974539  0.83999367  1
  In  In43  1  0.48939551  0.66698787  0.84495178  1
  In  In44  1  0.68552501  0.65985838  -0.00461389  1
  In  In45  1  0.67296685  0.51598241  0.47635708  1
  In  In46  1  0.15680868  0.52247793  0.69143525  1
  In  In47  1  0.81819170  0.16885245  0.67406466  1
  In  In48  1  0.85191458  0.01439562  0.85963327  1
  In  In49  1  0.33660578  0.46627746  0.16853950  1
  In  In50  1  0.68658962  -0.01592225  0.66350858  1
  In  In51  1  0.49945759  0.33296408  0.84246714  1
  In  In52  1  -0.00496412  0.47946688  0.13881554  1
  In  In53  1  0.35594271  0.00907003  0.67585069  1
  In  In54  1  0.68953436  0.66282022  0.30841330  1
  In  In55  1  0.32234501  0.63690472  -0.02334044  1
  In  In56  1  0.85040278  0.82208418  -0.01618819  1
  In  In57  1  0.84653586  0.67000383  0.50988130  1
  In  In58  1  0.81408250  -0.01173972  0.51341819  1
  In  In59  1  0.66208767  0.20621963  0.85351183  1
  In  In60  1  0.31407766  0.82455229  0.16866202  1
  In  In61  1  0.33899708  0.01488805  0.33734235  1
  In  In62  1  0.49856657  0.83939403  0.36032360  1
  In  In63  1  0.49053830  -0.01040389  0.47834937  1
  In  In64  1  0.84108466  0.49833124  -0.00804816  1
  In  In65  1  0.15494520  0.66982326  0.16060054  1
  In  In66  1  0.51437058  0.03131685  0.82554104  1
  In  In67  1  0.84362430  0.18929130  0.33153083  1
  In  In68  1  0.32465025  0.02645506  0.01657642  1
  In  In69  1  0.67606369  0.35320965  0.69025342  1
  In  In70  1  0.18133670  0.50839216  0.31848676  1
  In  In71  1  0.49429463  0.66826099  0.50625692  1
  Te  Te72  1  0.08155414  0.08329850  0.08595941  1
  Te  Te73  1  0.10661495  0.10055357  0.38305689  1
  Te  Te74  1  0.07860607  0.09565316  0.77251459  1
  Te  Te75  1  0.11547860  0.38450104  0.11584181  1
  Te  Te76  1  0.08062951  0.42709694  0.41539125  1
  Te  Te77  1  0.10016576  0.40361784  0.77019488  1
  Te  Te78  1  0.07691647  0.75715251  0.07205326  1
  Te  Te79  1  0.12376159  0.71943824  0.39487852  1
  Te  Te80  1  0.10819687  0.76495557  0.73940002  1
  Te  Te81  1  0.43458445  0.11292338  0.06294917  1
  Te  Te82  1  0.41751738  0.11272566  0.42583940  1
  Te  Te83  1  0.39198070  0.11197989  0.78414482  1
  Te  Te84  1  0.44573322  0.41509374  0.08181117  1
  Te  Te85  1  0.39708112  0.38882593  0.41686893  1
  Te  Te86  1  0.39865871  0.41129012  0.76599098  1
  Te  Te87  1  0.40450283  0.73420006  0.08189420  1
  Te  Te88  1  0.39480050  0.74583629  0.42132320  1
  Te  Te89  1  0.38563214  0.72623830  0.74722001  1
  Te  Te90  1  0.75159248  0.09019757  0.06377088  1
  Te  Te91  1  0.75934537  0.08705744  0.40867148  1
  Te  Te92  1  0.73688063  0.08444317  0.77115684  1
  Te  Te93  1  0.75100979  0.43674066  0.09473316  1
  Te  Te94  1  0.75955758  0.40994738  0.41204015  1
  Te  Te95  1  0.76440480  0.44564705  0.76457679  1
  Te  Te96  1  0.77121365  0.74266397  0.09008708  1
  Te  Te97  1  0.74907666  0.74717536  0.41620302  1
  Te  Te98  1  0.79416457  0.71573800  0.75476975  1
  Te  Te99  1  0.08057442  0.22459892  0.22578313  1
  Te  Te100  1  0.07638314  0.24662197  0.59010558  1
  Te  Te101  1  0.03637315  0.26287529  0.94425046  1
  Te  Te102  1  0.06929926  0.57177131  0.23997258  1
  Te  Te103  1  0.08199748  0.61282522  0.59592385  1
  Te  Te104  1  0.07719051  0.57173178  0.93794322  1
  Te  Te105  1  0.09341110  0.90822905  0.27121528  1
  Te  Te106  1  0.07781194  0.91087665  0.57717723  1
  Te  Te107  1  0.08018580  0.90838122  0.91345552  1
  Te  Te108  1  0.36984797  0.27333693  0.22131215  1
  Te  Te109  1  0.40173021  0.29151362  0.61532970  1
  Te  Te110  1  0.41983682  0.23686898  0.92115613  1
  Te  Te111  1  0.39192731  0.58164374  0.26029169  1
  Te  Te112  1  0.40659012  0.58106631  0.59315703  1
  Te  Te113  1  0.43713007  0.55676169  0.93037221  1
  Te  Te114  1  0.42021816  0.91068196  0.24159019  1
  Te  Te115  1  0.41109492  0.90083983  0.57890629  1
  Te  Te116  1  0.41572031  0.93287351  0.91542306  1
  Te  Te117  1  0.75501675  0.25891801  0.22925404  1
  Te  Te118  1  0.75570040  0.27318056  0.58278284  1
  Te  Te119  1  0.77000271  0.25595334  0.94716842  1
  Te  Te120  1  0.72878974  0.55301399  0.21878428  1
  Te  Te121  1  0.75184012  0.57921666  0.58849581  1
  Te  Te122  1  0.74978757  0.57041712  0.89810453  1
  Te  Te123  1  0.74297975  0.91222409  0.26011542  1
  Te  Te124  1  0.76567807  0.87854551  0.59913860  1
  Te  Te125  1  0.74868451  0.91554078  0.91929073  1
  Te  Te126  1  0.26915731  0.24817909  0.10318843  1
  Te  Te127  1  0.24371814  0.23540423  0.41952478  1
  Te  Te128  1  0.26282471  0.22392304  0.66949019  1
  Te  Te129  1  0.24479132  0.56194788  0.08452287  1
  Te  Te130  1  0.22551616  0.60277857  0.42795297  1
  Te  Te131  1  0.26269015  0.57401613  0.78141530  1
  Te  Te132  1  0.23885932  0.91172204  0.06937933  1
  Te  Te133  1  0.26160238  0.91413077  0.42042136  1
  Te  Te134  1  0.25110568  0.91274024  0.73686646  1
  Te  Te135  1  0.57080109  0.26037864  0.09098579  1
  Te  Te136  1  0.59561727  0.24654724  0.40251171  1
  Te  Te137  1  0.57927374  0.23968003  0.72336024  1
  Te  Te138  1  0.57007826  0.57927801  0.04695064  1
  Te  Te139  1  0.56644141  0.58873609  0.39576085  1
  Te  Te140  1  0.57908371  0.58817590  0.74935898  1
  Te  Te141  1  0.59393601  0.93237655  0.07506937  1
  Te  Te142  1  0.60571778  0.91810194  0.42206427  1
  Te  Te143  1  0.57725999  0.90922689  0.75374621  1
  Te  Te144  1  0.99609400  0.28546797  0.11726730  1
  Te  Te145  1  0.92778629  0.26916653  0.42872597  1
  Te  Te146  1  0.91936987  0.25774622  0.74176462  1
  Te  Te147  1  0.92245754  0.59036182  0.07499313  1
  Te  Te148  1  0.92684685  0.59449836  0.40477792  1
  Te  Te149  1  0.93422108  0.62286673  0.77021420  1
  Te  Te150  1  0.91433821  0.91751416  0.09182579  1
  Te  Te151  1  0.92596585  0.92626301  0.42310555  1
  Te  Te152  1  0.89955186  0.92126029  0.74905555  1
  Te  Te153  1  0.27592645  0.08714505  0.22643938  1
  Te  Te154  1  0.22635404  0.06673022  0.61013632  1
  Te  Te155  1  0.23396382  0.10897157  0.92741641  1
  Te  Te156  1  0.25341431  0.38827955  0.26688632  1
  Te  Te157  1  0.23466089  0.43749263  0.58644734  1
  Te  Te158  1  0.24619108  0.37993478  0.89872457  1
  Te  Te159  1  0.22998055  0.74838701  0.26494346  1
  Te  Te160  1  0.19993483  0.71991064  0.61024635  1
  Te  Te161  1  0.23665598  0.75228420  0.92948302  1
  Te  Te162  1  0.57705669  0.08581567  0.26528934  1
  Te  Te163  1  0.58175338  0.07252102  0.58541977  1
  Te  Te164  1  0.59328448  0.09950203  0.92814363  1
  Te  Te165  1  0.55605414  0.40384857  0.21555257  1
  Te  Te166  1  0.58563149  0.42278501  0.56533918  1
  Te  Te167  1  0.61368119  0.41422030  0.88735878  1
  Te  Te168  1  0.56720951  0.74711170  0.24407346  1
  Te  Te169  1  0.59277133  0.76377704  0.57123149  1
  Te  Te170  1  0.58461571  0.76490396  0.91739015  1
  Te  Te171  1  0.91769546  0.10570833  0.22736442  1
  Te  Te172  1  0.91303928  0.08589013  0.58512137  1
  Te  Te173  1  0.93236951  0.12607383  0.91912598  1
  Te  Te174  1  0.90663297  0.40597034  0.24179820  1
  Te  Te175  1  0.90094984  0.44545531  0.59697486  1
  Te  Te176  1  0.94738629  0.39382707  0.93603949  1
  Te  Te177  1  0.91165457  0.72426089  0.24776518  1
  Te  Te178  1  0.94185517  0.75579672  0.58211128  1
  Te  Te179  1  0.92253256  0.71980016  0.90091515  1
