# generated using pymatgen
data_In2Te3
_symmetry_space_group_name_H-M   'P 1'
_cell_length_a   18.76843372
_cell_length_b   18.76644631
_cell_length_c   18.76324625
_cell_angle_alpha   90.02017835
_cell_angle_beta   90.05925724
_cell_angle_gamma   90.01352768
_symmetry_Int_Tables_number   1
_chemical_formula_structural   In2Te3
_chemical_formula_sum   'In72 Te108'
_cell_volume   6608.72649367
_cell_formula_units_Z   36
loop_
 _symmetry_equiv_pos_site_id
 _symmetry_equiv_pos_as_xyz
  1  'x, y, z'
loop_
 _atom_site_type_symbol
 _atom_site_label
 _atom_site_symmetry_multiplicity
 _atom_site_fract_x
 _atom_site_fract_y
 _atom_site_fract_z
 _atom_site_occupancy
  In  In0  1  0.67565482  0.16753770  0.86214509  1
  In  In1  1  0.84986943  0.31538011  0.15354007  1
  In  In2  1  0.33489125  0.82038224  0.14118242  1
  In  In3  1  0.00561597  0.49529824  0.15529582  1
  In  In4  1  -0.01122568  0.14357837  0.86288034  1
  In  In5  1  0.18436359  0.65500794  0.49301054  1
  In  In6  1  0.83497912  0.85856596  0.65428451  1
  In  In7  1  0.83955670  0.84039168  0.30858541  1
  In  In8  1  0.00034487  0.01666884  0.68752035  1
  In  In9  1  0.00591501  0.51264343  0.86841324  1
  In  In10  1  0.13491346  0.32519212  0.15884908  1
  In  In11  1  -0.01565048  0.01694591  0.28102262  1
  In  In12  1  0.64602090  0.65815646  0.67991332  1
  In  In13  1  0.32769715  -0.01791257  0.67704532  1
  In  In14  1  0.82026358  0.49927532  -0.01406030  1
  In  In15  1  0.49831735  0.81257601  -0.00772296  1
  In  In16  1  -0.00664487  0.32024637  0.66524483  1
  In  In17  1  0.13695721  0.16182642  0.66716235  1
  In  In18  1  0.31243353  0.33095388  0.03274819  1
  In  In19  1  0.82376663  0.52178581  0.30512883  1
  In  In20  1  0.65888385  0.82846532  0.85148475  1
  In  In21  1  0.33738740  -0.01334292  -0.00413331  1
  In  In22  1  0.66741825  0.32030457  0.00567950  1
  In  In23  1  0.50205160  0.81627728  0.67471806  1
  In  In24  1  -0.01178637  0.66344018  0.29607967  1
  In  In25  1  0.01798356  0.68957015  0.68497494  1
  In  In26  1  0.17014739  0.83502434  0.70982586  1
  In  In27  1  0.16354368  0.32433232  0.84339884  1
  In  In28  1  0.83655778  0.85343913  0.03707279  1
  In  In29  1  0.69243656  0.02110123  0.01943389  1
  In  In30  1  0.51365143  0.16798152  0.00229291  1
  In  In31  1  0.32303999  0.14642882  0.84543579  1
  In  In32  1  0.35078143  0.48626207  0.86386459  1
  In  In33  1  0.31298653  0.17800835  0.18506905  1
  In  In34  1  0.50687093  0.17003288  0.67418317  1
  In  In35  1  0.00761107  0.66935520  0.00440043  1
  In  In36  1  -0.00036907  0.83053187  0.49213099  1
  In  In37  1  0.34231864  0.83141164  0.51108832  1
  In  In38  1  0.16187692  0.85464887  0.30939298  1
  In  In39  1  0.47686498  0.50622590  0.32100617  1
  In  In40  1  0.66595724  0.49817602  0.50656743  1
  In  In41  1  0.34405879  0.17966973  0.46079676  1
  In  In42  1  0.49706449  -0.00932927  0.17786311  1
  In  In43  1  0.51991331  0.84539866  0.35226355  1
  In  In44  1  0.32094323  0.03166295  0.31096780  1
  In  In45  1  -0.00259520  0.17787076  0.47733680  1
  In  In46  1  0.51713588  0.34484481  0.13604010  1
  In  In47  1  0.01516581  0.84614873  0.84132950  1
  In  In48  1  0.66673565  0.33682735  0.32409582  1
  In  In49  1  0.52694982  0.52556145  0.00929220  1
  In  In50  1  0.80518527  0.46677008  0.70973318  1
  In  In51  1  0.85991407  0.31298418  0.49326079  1
  In  In52  1  0.80448637  0.66313952  0.46710887  1
  In  In53  1  0.65907915  0.67065341  0.31612744  1
  In  In54  1  0.66766665  0.01833910  0.67252272  1
  In  In55  1  0.69658339  0.16391237  0.49580834  1
  In  In56  1  0.33136158  0.36406055  0.66999389  1
  In  In57  1  0.33448355  0.52109886  0.50768251  1
  In  In58  1  0.51855025  0.35854778  0.52377599  1
  In  In59  1  0.50961096  0.14975481  0.32357603  1
  In  In60  1  0.36029374  0.65676241  0.68471502  1
  In  In61  1  0.67149139  0.82572685  0.17182097  1
  In  In62  1  0.17158670  0.82701927  0.00549200  1
  In  In63  1  0.31296995  0.34859483  0.30383132  1
  In  In64  1  0.82859424  0.65533998  0.83902575  1
  In  In65  1  0.49480115  0.33515562  0.82444472  1
  In  In66  1  0.80219658  0.00270247  0.49538788  1
  In  In67  1  0.82138711  0.18176740  0.66663957  1
  In  In68  1  0.32302713  0.67140287  0.32498818  1
  In  In69  1  0.02527743  0.45874917  0.46631144  1
  In  In70  1  0.16003755  0.01488083  0.50629995  1
  In  In71  1  0.18051464  0.49853607  0.65881900  1
  Te  Te72  1  0.02599761  0.08585693  0.07494203  1
  Te  Te73  1  0.07767494  0.07440874  0.39546657  1
  Te  Te74  1  0.10542594  0.07086085  0.78247457  1
  Te  Te75  1  0.06225321  0.40315477  0.05248151  1
  Te  Te76  1  0.09781929  0.37050772  0.37106923  1
  Te  Te77  1  0.08181885  0.41814056  0.74793508  1
  Te  Te78  1  0.08395213  0.75244653  0.10183115  1
  Te  Te79  1  0.09178492  0.74588547  0.40562218  1
  Te  Te80  1  0.11381987  0.72146067  0.80596480  1
  Te  Te81  1  0.41539326  0.09409574  0.09593179  1
  Te  Te82  1  0.42691020  0.05976808  0.41783949  1
  Te  Te83  1  0.42626343  0.07374362  0.76029085  1
  Te  Te84  1  0.40959897  0.44083923  0.08244651  1
  Te  Te85  1  0.41287729  0.40485164  0.41787297  1
  Te  Te86  1  0.43948114  0.45366940  0.73544656  1
  Te  Te87  1  0.39918144  0.71754222  0.05429461  1
  Te  Te88  1  0.42188615  0.74126334  0.41827386  1
  Te  Te89  1  0.41009171  0.76024483  0.77769195  1
  Te  Te90  1  0.79006702  0.11470649  0.07984626  1
  Te  Te91  1  0.76955628  0.09730707  0.38687880  1
  Te  Te92  1  0.76645425  0.08174455  0.76798819  1
  Te  Te93  1  0.74884038  0.41516149  0.09403483  1
  Te  Te94  1  0.76204411  0.42228580  0.41347461  1
  Te  Te95  1  0.71809618  0.39678308  0.80190849  1
  Te  Te96  1  0.73658187  0.74796227  0.06388600  1
  Te  Te97  1  0.73087264  0.78040064  0.40220744  1
  Te  Te98  1  0.75669626  0.75760091  0.74486807  1
  Te  Te99  1  0.06718547  0.25741902  0.27315806  1
  Te  Te100  1  0.09248472  0.26305478  0.56302566  1
  Te  Te101  1  0.06313924  0.25530299  0.92770959  1
  Te  Te102  1  0.09371660  0.57401153  0.24688060  1
  Te  Te103  1  0.07980842  0.58321819  0.57920573  1
  Te  Te104  1  0.11233367  0.57807173  0.94897914  1
  Te  Te105  1  0.05079233  0.89800249  0.21902908  1
  Te  Te106  1  0.08207429  0.91018474  0.59679940  1
  Te  Te107  1  0.08520963  0.93144186  0.93933196  1
  Te  Te108  1  0.43284583  0.26346339  0.24451423  1
  Te  Te109  1  0.41342157  0.25510585  0.58558478  1
  Te  Te110  1  0.40811780  0.25830849  0.92699078  1
  Te  Te111  1  0.40457184  0.59432192  0.22136195  1
  Te  Te112  1  0.43989873  0.60117161  0.57266669  1
  Te  Te113  1  0.42152178  0.59972489  0.93078756  1
  Te  Te114  1  0.39995370  0.90376746  0.26060538  1
  Te  Te115  1  0.43573378  0.92557843  0.58394703  1
  Te  Te116  1  0.41057921  0.89676802  0.90360111  1
  Te  Te117  1  0.75314911  0.24617769  0.24709759  1
  Te  Te118  1  0.73980439  0.28028551  0.58505900  1
  Te  Te119  1  0.77638401  0.24089825  0.94208118  1
  Te  Te120  1  0.74111429  0.60248989  0.20843222  1
  Te  Te121  1  0.76090097  0.58524625  0.59286842  1
  Te  Te122  1  0.72231657  0.59309218  0.92063052  1
  Te  Te123  1  0.75583045  0.93344377  0.22860290  1
  Te  Te124  1  0.71349293  0.90314915  0.57375097  1
  Te  Te125  1  0.75719026  0.92134296  0.92245126  1
  Te  Te126  1  0.21484799  0.22186561  0.07358514  1
  Te  Te127  1  0.23650525  0.24487839  0.38349851  1
  Te  Te128  1  0.25757855  0.25070629  0.74536946  1
  Te  Te129  1  0.29179162  0.54880028  0.11998766  1
  Te  Te130  1  0.24128857  0.55800244  0.39030491  1
  Te  Te131  1  0.26173962  0.57093843  0.76374708  1
  Te  Te132  1  0.24303044  0.93468615  0.10302031  1
  Te  Te133  1  0.24767407  0.91820653  0.42384106  1
  Te  Te134  1  0.25848606  0.91964106  0.79251916  1
  Te  Te135  1  0.60464616  0.22271961  0.11057047  1
  Te  Te136  1  0.57795376  0.25432727  0.42192891  1
  Te  Te137  1  0.60577068  0.25493052  0.75345777  1
  Te  Te138  1  0.61005775  0.56897676  0.12259715  1
  Te  Te139  1  0.57940593  0.58037014  0.41064972  1
  Te  Te140  1  0.55962148  0.55818622  0.74401071  1
  Te  Te141  1  0.57988192  0.91941083  0.07015047  1
  Te  Te142  1  0.62541150  0.91696026  0.42299579  1
  Te  Te143  1  0.58426303  0.92028486  0.75523728  1
  Te  Te144  1  0.96067769  0.22668877  0.09914708  1
  Te  Te145  1  0.91649504  0.24675423  0.37239076  1
  Te  Te146  1  0.91254255  0.24776704  0.76960101  1
  Te  Te147  1  0.90586363  0.58546486  0.08111005  1
  Te  Te148  1  0.92477906  0.58363003  0.41435603  1
  Te  Te149  1  0.92583805  0.57835029  0.74923815  1
  Te  Te150  1  0.95448859  0.94326790  0.06310015  1
  Te  Te151  1  0.91907682  0.93136517  0.41315023  1
  Te  Te152  1  0.90605165  0.92951307  0.76902709  1
  Te  Te153  1  0.20955961  0.07897277  0.22809944  1
  Te  Te154  1  0.25917848  0.09623458  0.58861307  1
  Te  Te155  1  0.23791455  0.08966959  0.95080632  1
  Te  Te156  1  0.23524885  0.43574219  0.20648981  1
  Te  Te157  1  0.24162481  0.40562389  0.55368068  1
  Te  Te158  1  0.23359917  0.42256179  0.93789622  1
  Te  Te159  1  0.23082398  0.74392351  0.22767926  1
  Te  Te160  1  0.24455373  0.75001173  0.59886962  1
  Te  Te161  1  0.23062374  0.73669092  0.90498301  1
  Te  Te162  1  0.60415916  0.06025537  0.25362795  1
  Te  Te163  1  0.58232426  0.08991923  0.56791641  1
  Te  Te164  1  0.57810039  0.06300377  0.91607938  1
  Te  Te165  1  0.58875717  0.43755555  0.23809849  1
  Te  Te166  1  0.59470847  0.43867091  0.62528354  1
  Te  Te167  1  0.59380034  0.41854026  0.90974160  1
  Te  Te168  1  0.55495220  0.75080687  0.23654432  1
  Te  Te169  1  0.57730153  0.73592157  0.57466245  1
  Te  Te170  1  0.58957202  0.71704864  0.91951739  1
  Te  Te171  1  0.89763542  0.10643971  0.19638871  1
  Te  Te172  1  0.91724625  0.08815174  0.58119820  1
  Te  Te173  1  0.91105508  0.05979926  0.96119687  1
  Te  Te174  1  0.91713704  0.41573659  0.25341323  1
  Te  Te175  1  0.91661114  0.42397753  0.58336602  1
  Te  Te176  1  0.91959705  0.40691842  0.92400040  1
  Te  Te177  1  0.90820432  0.75295431  0.21079246  1
  Te  Te178  1  0.90751369  0.74567493  0.57951275  1
  Te  Te179  1  0.91202854  0.75803711  0.91798865  1
