# generated using pymatgen
data_In2Te3
_symmetry_space_group_name_H-M   'P 1'
_cell_length_a   18.80177319
_cell_length_b   18.80557935
_cell_length_c   18.80496595
_cell_angle_alpha   89.89568177
_cell_angle_beta   89.98884632
_cell_angle_gamma   89.98495821
_symmetry_Int_Tables_number   1
_chemical_formula_structural   In2Te3
_chemical_formula_sum   'In72 Te108'
_cell_volume   6649.01534174
_cell_formula_units_Z   36
loop_
 _symmetry_equiv_pos_site_id
 _symmetry_equiv_pos_as_xyz
  1  'x, y, z'
loop_
 _atom_site_type_symbol
 _atom_site_label
 _atom_site_symmetry_multiplicity
 _atom_site_fract_x
 _atom_site_fract_y
 _atom_site_fract_z
 _atom_site_occupancy
  In  In0  1  -0.01708804  0.00246202  0.35949253  1
  In  In1  1  0.17452696  0.02205153  0.82791622  1
  In  In2  1  0.49229261  0.70683649  0.16376261  1
  In  In3  1  0.80868285  0.14433420  0.31475239  1
  In  In4  1  0.67795441  0.32142996  0.67040474  1
  In  In5  1  0.64635239  0.27184887  0.00384217  1
  In  In6  1  0.66294950  0.69643347  0.31682527  1
  In  In7  1  -0.01733178  0.30504509  0.70792508  1
  In  In8  1  0.32694105  0.14148758  0.50092888  1
  In  In9  1  0.81590855  0.80983723  0.66282099  1
  In  In10  1  0.32826704  0.32682899  0.68788375  1
  In  In11  1  0.19516204  -0.00879050  0.15597678  1
  In  In12  1  0.65508270  0.84556068  0.50332877  1
  In  In13  1  0.00506714  0.00504852  0.66442946  1
  In  In14  1  0.32946803  0.69300908  0.33518706  1
  In  In15  1  0.32387984  0.48136572  0.84145875  1
  In  In16  1  -0.02855798  0.65996909  0.67242238  1
  In  In17  1  -0.00693617  0.50012004  0.50200111  1
  In  In18  1  0.68429749  0.32692166  0.30860669  1
  In  In19  1  0.16017903  0.14338196  0.30848661  1
  In  In20  1  0.46413213  0.69063889  0.49951927  1
  In  In21  1  0.16011114  0.68384375  0.48445662  1
  In  In22  1  0.65795867  -0.01682822  0.67572731  1
  In  In23  1  0.32355775  0.65470357  0.65835400  1
  In  In24  1  0.35506246  0.30647323  0.32133471  1
  In  In25  1  0.66105877  0.14678971  0.85922058  1
  In  In26  1  0.50734518  0.50713798  -0.00267576  1
  In  In27  1  0.82311128  -0.00108289  0.84315215  1
  In  In28  1  0.16458563  0.47137572  0.66985195  1
  In  In29  1  0.18463102  0.83007362  0.01657115  1
  In  In30  1  0.00655708  0.68679597  0.32745409  1
  In  In31  1  0.82936889  0.31788155  0.16722126  1
  In  In32  1  0.15235127  0.82762945  0.66042496  1
  In  In33  1  0.49209616  0.14233050  0.31856897  1
  In  In34  1  0.66559757  0.70255047  0.00061457  1
  In  In35  1  0.17516177  0.66684003  0.16197879  1
  In  In36  1  0.67739827  0.65559537  0.69582085  1
  In  In37  1  -0.01715963  0.01402861  -0.02112994  1
  In  In38  1  0.34505159  0.30890045  -0.02161414  1
  In  In39  1  0.19528871  0.85328497  0.34238047  1
  In  In40  1  0.80606348  0.69333327  0.50423621  1
  In  In41  1  0.31047072  0.67602537  0.02398775  1
  In  In42  1  0.00275068  0.32807606  0.30887405  1
  In  In43  1  0.86293431  0.47024370  0.33615456  1
  In  In44  1  0.18979678  0.16627364  0.00161235  1
  In  In45  1  0.66595002  0.52310427  0.52610225  1
  In  In46  1  0.83648701  0.49430172  -0.00047672  1
  In  In47  1  0.33781107  0.00669537  0.66075673  1
  In  In48  1  0.00323393  0.84880525  0.15765227  1
  In  In49  1  0.50559147  0.84522044  0.67783151  1
  In  In50  1  0.00961268  0.16775354  0.50639927  1
  In  In51  1  0.82770138  0.67380289  0.82448213  1
  In  In52  1  0.16899187  0.31050395  0.82231064  1
  In  In53  1  0.16613587  0.33609480  0.50595476  1
  In  In54  1  0.52058811  0.49421133  0.33800028  1
  In  In55  1  0.51714027  0.67426287  0.84483546  1
  In  In56  1  0.69468343  0.15211624  0.47679624  1
  In  In57  1  0.00102758  0.81726226  0.84195278  1
  In  In58  1  0.80633134  0.84114903  0.00867945  1
  In  In59  1  0.19244793  0.52093704  0.31881573  1
  In  In60  1  0.49303378  0.15658060  0.69055495  1
  In  In61  1  0.50060190  -0.00057001  0.15369769  1
  In  In62  1  0.50452775  0.33781472  0.49011548  1
  In  In63  1  -0.00430924  0.17849239  0.16211256  1
  In  In64  1  -0.00188175  0.32979454  0.00405384  1
  In  In65  1  0.33408453  0.51486498  0.15824185  1
  In  In66  1  0.84758177  0.64938132  0.14988314  1
  In  In67  1  0.49640494  0.01507054  0.48791471  1
  In  In68  1  0.66433824  0.47619244  0.83175006  1
  In  In69  1  0.35451118  0.85722760  0.85962551  1
  In  In70  1  0.84297875  0.33429974  0.50019427  1
  In  In71  1  0.67260630  0.49560915  0.18083168  1
  Te  Te72  1  0.08095211  0.07419028  0.08289935  1
  Te  Te73  1  0.09970041  0.07149643  0.42861562  1
  Te  Te74  1  0.06743365  0.09723532  0.76168856  1
  Te  Te75  1  0.06013329  0.40715853  0.11239519  1
  Te  Te76  1  0.08588931  0.42397771  0.40640795  1
  Te  Te77  1  0.06863872  0.41652546  0.77255260  1
  Te  Te78  1  0.07022244  0.74214613  0.07354605  1
  Te  Te79  1  0.07421237  0.78898547  0.41611430  1
  Te  Te80  1  0.08484336  0.72703983  0.75277581  1
  Te  Te81  1  0.43628158  0.10201173  0.06045652  1
  Te  Te82  1  0.37904250  0.05345794  0.38391617  1
  Te  Te83  1  0.41150967  0.06677718  0.77702120  1
  Te  Te84  1  0.41196974  0.41625575  0.07329738  1
  Te  Te85  1  0.40634916  0.42253770  0.41001039  1
  Te  Te86  1  0.42425448  0.40031575  0.77089977  1
  Te  Te87  1  0.42098941  0.77757846  0.05387875  1
  Te  Te88  1  0.42613891  0.78907265  0.39583642  1
  Te  Te89  1  0.41160914  0.74912017  0.75306888  1
  Te  Te90  1  0.71922765  0.04424971  0.06121053  1
  Te  Te91  1  0.76661627  0.03718259  0.41230406  1
  Te  Te92  1  0.74548336  0.08661370  0.74331162  1
  Te  Te93  1  0.73478839  0.40488428  0.07562402  1
  Te  Te94  1  0.73396241  0.42044413  0.42528950  1
  Te  Te95  1  0.76365204  0.42057113  0.73904756  1
  Te  Te96  1  0.74153930  0.75720886  0.12010169  1
  Te  Te97  1  0.75862030  0.78822661  0.39308217  1
  Te  Te98  1  0.72177005  0.77583858  0.77858521  1
  Te  Te99  1  0.10889430  0.26159779  0.22266276  1
  Te  Te100  1  0.08915548  0.25243611  0.60550460  1
  Te  Te101  1  0.08058652  0.23200385  0.91867172  1
  Te  Te102  1  0.07489106  0.58077935  0.24329146  1
  Te  Te103  1  0.09213182  0.58457114  0.58232609  1
  Te  Te104  1  0.14985381  0.63868259  0.95135670  1
  Te  Te105  1  0.08841365  0.93177630  0.25216713  1
  Te  Te106  1  0.08300543  0.92114005  0.57116058  1
  Te  Te107  1  0.08761721  0.91490892  0.92171791  1
  Te  Te108  1  0.43165046  0.23352446  0.21366246  1
  Te  Te109  1  0.42134429  0.23971305  0.57410316  1
  Te  Te110  1  0.44996941  0.20821369  0.94110282  1
  Te  Te111  1  0.42596612  0.59235132  0.25408605  1
  Te  Te112  1  0.42763367  0.57804334  0.58630703  1
  Te  Te113  1  0.40448228  0.59354979  0.92335872  1
  Te  Te114  1  0.44459696  0.89226108  0.24416881  1
  Te  Te115  1  0.41882601  0.91258526  0.57250027  1
  Te  Te116  1  0.45171278  0.96142520  0.90113745  1
  Te  Te117  1  0.72252970  0.21572902  0.21072010  1
  Te  Te118  1  0.77008040  0.23144843  0.58477650  1
  Te  Te119  1  0.75631463  0.25571777  0.90318169  1
  Te  Te120  1  0.76111134  0.58115913  0.26974729  1
  Te  Te121  1  0.77978420  0.58189270  0.60823021  1
  Te  Te122  1  0.72967553  0.58967273  0.92050142  1
  Te  Te123  1  0.72087508  0.97194083  0.19468490  1
  Te  Te124  1  0.76150179  0.92610231  0.58084655  1
  Te  Te125  1  0.71691800  0.94376432  0.93662183  1
  Te  Te126  1  0.26060447  0.25971703  0.09050284  1
  Te  Te127  1  0.24147154  0.24461742  0.40877286  1
  Te  Te128  1  0.26601276  0.21683664  0.76232615  1
  Te  Te129  1  0.21539826  0.55096391  0.06098644  1
  Te  Te130  1  0.26779423  0.58848346  0.43056808  1
  Te  Te131  1  0.23733754  0.57428531  0.75598931  1
  Te  Te132  1  0.29188733  0.91689061  0.07055869  1
  Te  Te133  1  0.27586238  0.94185183  0.42390340  1
  Te  Te134  1  0.25044737  0.90449207  0.75238259  1
  Te  Te135  1  0.55596887  0.24007064  0.11542069  1
  Te  Te136  1  0.58542490  0.24115608  0.40322481  1
  Te  Te137  1  0.58308422  0.25035806  0.76682444  1
  Te  Te138  1  0.58550742  0.59375959  0.09881574  1
  Te  Te139  1  0.58903672  0.60636563  0.41923543  1
  Te  Te140  1  0.56669141  0.56601022  0.75096475  1
  Te  Te141  1  0.61633214  0.92541915  0.08213785  1
  Te  Te142  1  0.59544815  0.94074958  0.40691410  1
  Te  Te143  1  0.56792733  0.93146997  0.78234515  1
  Te  Te144  1  0.89107902  0.22586022  0.06422965  1
  Te  Te145  1  0.90830784  0.24295019  0.39397831  1
  Te  Te146  1  0.88133864  0.23655017  0.79080505  1
  Te  Te147  1  0.94075121  0.58297610  0.05696856  1
  Te  Te148  1  0.91091786  0.60063537  0.42163236  1
  Te  Te149  1  0.93358320  0.57749023  0.78818570  1
  Te  Te150  1  0.90274089  0.93543529  0.08198063  1
  Te  Te151  1  0.87923745  0.91462097  0.41164981  1
  Te  Te152  1  0.90868784  0.90180248  0.75376018  1
  Te  Te153  1  0.27287852  0.09504640  0.22646986  1
  Te  Te154  1  0.23137837  0.08805341  0.59903024  1
  Te  Te155  1  0.26521333  0.05540517  0.93906919  1
  Te  Te156  1  0.26325028  0.41013043  0.24528332  1
  Te  Te157  1  0.27309553  0.41770591  0.57720307  1
  Te  Te158  1  0.22908572  0.40116400  0.92895346  1
  Te  Te159  1  0.26046765  0.77475485  0.22719841  1
  Te  Te160  1  0.25896387  0.76242790  0.57011481  1
  Te  Te161  1  0.24657098  0.74808075  0.89705509  1
  Te  Te162  1  0.60081768  0.05923431  0.25641173  1
  Te  Te163  1  0.58823324  0.09509042  0.58388791  1
  Te  Te164  1  0.55191382  0.08819533  0.94890817  1
  Te  Te165  1  0.56795582  0.39648131  0.23270186  1
  Te  Te166  1  0.58015146  0.41733518  0.59484074  1
  Te  Te167  1  0.57890868  0.39375894  0.92703106  1
  Te  Te168  1  0.56961328  0.79992425  0.25438357  1
  Te  Te169  1  0.58951879  0.73940784  0.59361822  1
  Te  Te170  1  0.55159905  0.77989307  0.94413101  1
  Te  Te171  1  0.91778494  0.07103423  0.23763559  1
  Te  Te172  1  0.91276717  0.08643781  0.58051792  1
  Te  Te173  1  0.91346043  0.11190520  0.88750990  1
  Te  Te174  1  0.93232178  0.42793654  0.20228294  1
  Te  Te175  1  0.92626573  0.40913812  0.60260939  1
  Te  Te176  1  0.91001174  0.40376538  0.90951614  1
  Te  Te177  1  0.90809321  0.76307007  0.24051759  1
  Te  Te178  1  0.92735715  0.76214307  0.56939402  1
  Te  Te179  1  0.90416402  0.74682712  0.93651020  1
