# generated using pymatgen
data_In2Te3
_symmetry_space_group_name_H-M   'P 1'
_cell_length_a   18.97762820
_cell_length_b   18.97167713
_cell_length_c   19.00749839
_cell_angle_alpha   90.05786038
_cell_angle_beta   90.11305481
_cell_angle_gamma   89.97542786
_symmetry_Int_Tables_number   1
_chemical_formula_structural   In2Te3
_chemical_formula_sum   'In72 Te108'
_cell_volume   6843.39352825
_cell_formula_units_Z   36
loop_
 _symmetry_equiv_pos_site_id
 _symmetry_equiv_pos_as_xyz
  1  'x, y, z'
loop_
 _atom_site_type_symbol
 _atom_site_label
 _atom_site_symmetry_multiplicity
 _atom_site_fract_x
 _atom_site_fract_y
 _atom_site_fract_z
 _atom_site_occupancy
  In  In0  1  0.82939571  0.18556723  0.67335121  1
  In  In1  1  0.36305928  0.16371697  0.48701805  1
  In  In2  1  0.70362858  0.83620092  0.51917039  1
  In  In3  1  0.64870947  -0.00176497  0.33064012  1
  In  In4  1  0.14846777  0.50406632  0.00180835  1
  In  In5  1  0.51669874  0.15992312  0.65404584  1
  In  In6  1  0.32640884  0.82801290  0.48198057  1
  In  In7  1  0.67371950  0.35080097  -0.00188874  1
  In  In8  1  0.00103052  0.18278758  0.50688433  1
  In  In9  1  0.85795390  0.18097947  0.00129600  1
  In  In10  1  0.15207480  0.83599447  0.68447992  1
  In  In11  1  0.49699960  0.69212324  0.16451331  1
  In  In12  1  0.51017480  0.31275698  0.81222631  1
  In  In13  1  0.19216615  0.30703447  0.15614045  1
  In  In14  1  -0.02636025  0.68636760  0.65692612  1
  In  In15  1  -0.02171600  0.50915534  0.16575471  1
  In  In16  1  0.80622803  0.69994108  0.14741482  1
  In  In17  1  0.15032064  0.49086899  0.67954840  1
  In  In18  1  -0.00876657  0.86595028  0.18951457  1
  In  In19  1  0.82366623  0.82717783  -0.01439282  1
  In  In20  1  0.78775593  0.29393411  0.18300222  1
  In  In21  1  0.35538137  0.64123075  0.34282625  1
  In  In22  1  0.48336469  -0.00732964  0.84806222  1
  In  In23  1  0.16127007  0.84019065  0.32209622  1
  In  In24  1  0.32891241  0.50587586  0.16914281  1
  In  In25  1  0.00543230  0.67572439  0.35773728  1
  In  In26  1  0.84685074  -0.02040489  0.50149441  1
  In  In27  1  0.49974866  0.65125617  0.82192386  1
  In  In28  1  0.83371876  0.85351427  0.33231370  1
  In  In29  1  0.80653388  0.49462312  0.64370897  1
  In  In30  1  0.33591792  0.82786516  0.86057637  1
  In  In31  1  0.33702665  0.33879120  0.68893541  1
  In  In32  1  0.70797564  -0.01533488  0.65750222  1
  In  In33  1  0.84694550  0.34530043  0.83021956  1
  In  In34  1  0.48738789  0.82483172  0.33695756  1
  In  In35  1  0.47977084  0.30932904  0.18041269  1
  In  In36  1  0.32960935  0.00742041  0.65637335  1
  In  In37  1  0.34333824  0.47814166  0.83436771  1
  In  In38  1  0.16159030  0.01990874  0.84820050  1
  In  In39  1  0.01035883  0.32544651  -0.00457316  1
  In  In40  1  0.31944480  0.16672936  0.86094901  1
  In  In41  1  0.65538923  0.48287648  0.17130039  1
  In  In42  1  0.17455411  0.85425047  -0.00499119  1
  In  In43  1  -0.01679361  0.00731243  -0.01353035  1
  In  In44  1  0.80012709  0.34552034  0.49201536  1
  In  In45  1  0.19454624  0.16587419  0.33440409  1
  In  In46  1  0.16164285  -0.00540289  0.51081963  1
  In  In47  1  0.16934852  0.70498564  0.16983620  1
  In  In48  1  0.00406587  0.13839238  0.16767882  1
  In  In49  1  0.80129280  0.50407025  0.36961999  1
  In  In50  1  0.49198158  0.16517551  -0.00005172  1
  In  In51  1  0.37695148  0.47570324  0.48578033  1
  In  In52  1  0.81352158  0.03871864  0.17432157  1
  In  In53  1  -0.01106747  0.49701843  0.53300511  1
  In  In54  1  0.15645540  0.33277919  0.84729360  1
  In  In55  1  0.50987554  0.82599145  0.66025397  1
  In  In56  1  0.16123493  0.32744027  0.50942691  1
  In  In57  1  0.18337006  0.50094733  0.32117692  1
  In  In58  1  -0.00734563  0.33359093  0.34543701  1
  In  In59  1  0.32749772  0.64260464  0.64544463  1
  In  In60  1  0.35051931  0.85922223  0.12619214  1
  In  In61  1  0.65825959  0.68462903  -0.03803558  1
  In  In62  1  0.67084506  0.19822445  0.42451487  1
  In  In63  1  0.67823446  0.83442228  0.82909244  1
  In  In64  1  -0.00572537  -0.00383890  0.70601306  1
  In  In65  1  0.00865766  0.66571782  -0.01776904  1
  In  In66  1  0.65110755  0.64895865  0.35555930  1
  In  In67  1  0.52003645  0.00030535  0.14541891  1
  In  In68  1  0.68747638  0.50177790  0.82524484  1
  In  In69  1  0.49399264  0.50552864  0.01623923  1
  In  In70  1  0.49476187  0.02749106  0.47049975  1
  In  In71  1  0.82739653  0.66777028  0.81896298  1
  Te  Te72  1  0.08418251  0.09437705  0.05399475  1
  Te  Te73  1  0.08953920  0.09513749  0.42088567  1
  Te  Te74  1  0.10302782  0.08892476  0.73475116  1
  Te  Te75  1  0.08892541  0.41839281  0.11479406  1
  Te  Te76  1  0.08133927  0.43333741  0.42042268  1
  Te  Te77  1  0.06348806  0.41452634  0.76811731  1
  Te  Te78  1  0.06052555  0.76952713  0.08540782  1
  Te  Te79  1  0.10308899  0.75777979  0.42697611  1
  Te  Te80  1  0.07518602  0.73282400  0.75242565  1
  Te  Te81  1  0.40923040  0.09418019  0.10212360  1
  Te  Te82  1  0.39928771  0.07819268  0.36958542  1
  Te  Te83  1  0.40919245  0.09614912  0.75130876  1
  Te  Te84  1  0.40508461  0.40611282  0.08395132  1
  Te  Te85  1  0.45472010  0.38627997  0.39797721  1
  Te  Te86  1  0.44979377  0.42979482  0.73694596  1
  Te  Te87  1  0.40080956  0.73805843  0.06466100  1
  Te  Te88  1  0.43313947  0.72808370  0.43983901  1
  Te  Te89  1  0.40418473  0.74880343  0.73951161  1
  Te  Te90  1  0.74853762  0.10601946  0.06380323  1
  Te  Te91  1  0.75074444  0.06287052  0.42281996  1
  Te  Te92  1  0.76279930  0.08082980  0.75180692  1
  Te  Te93  1  0.76925735  0.41788142  0.09551284  1
  Te  Te94  1  0.71573499  0.38087630  0.36922073  1
  Te  Te95  1  0.73508272  0.39368298  0.73282808  1
  Te  Te96  1  0.69868847  0.78951110  0.07294703  1
  Te  Te97  1  0.75951162  0.74818802  0.41051479  1
  Te  Te98  1  0.71367666  0.71994122  0.73887102  1
  Te  Te99  1  0.08745861  0.25467356  0.25847417  1
  Te  Te100  1  0.07386679  0.26313043  0.60500780  1
  Te  Te101  1  0.11214158  0.23160577  0.94863425  1
  Te  Te102  1  0.08595391  0.59373707  0.24855447  1
  Te  Te103  1  0.08565707  0.59529579  0.59052913  1
  Te  Te104  1  0.06995871  0.56553176  0.89479796  1
  Te  Te105  1  0.10094296  0.94928640  0.24099397  1
  Te  Te106  1  0.06289579  0.91400219  0.59136776  1
  Te  Te107  1  0.06963629  0.91336366  0.90343754  1
  Te  Te108  1  0.43891661  0.22766621  0.29875832  1
  Te  Te109  1  0.42374690  0.26142783  0.59101752  1
  Te  Te110  1  0.41317984  0.27036393  0.91795463  1
  Te  Te111  1  0.44432940  0.57289165  0.24324777  1
  Te  Te112  1  0.43744208  0.56963787  0.58170663  1
  Te  Te113  1  0.40618677  0.58569436  0.92213789  1
  Te  Te114  1  0.42183961  0.92108688  0.24326514  1
  Te  Te115  1  0.41715919  0.92047579  0.56885358  1
  Te  Te116  1  0.38838407  0.93701320  0.94785672  1
  Te  Te117  1  0.70660043  0.21075167  0.27422170  1
  Te  Te118  1  0.73260819  0.22845349  0.56193075  1
  Te  Te119  1  0.75495721  0.25786173  0.91498616  1
  Te  Te120  1  0.74780963  0.58732798  0.24638954  1
  Te  Te121  1  0.72765424  0.56005568  0.53076182  1
  Te  Te122  1  0.76346668  0.58128847  0.92827778  1
  Te  Te123  1  0.73913909  0.92127245  0.23693038  1
  Te  Te124  1  0.81515065  0.86910560  0.63791164  1
  Te  Te125  1  0.76879915  0.93084016  0.89593267  1
  Te  Te126  1  0.30147419  0.22075029  0.10742801  1
  Te  Te127  1  0.26551650  0.26757705  0.42128880  1
  Te  Te128  1  0.24178301  0.24407506  0.75575195  1
  Te  Te129  1  0.23668061  0.59517355  0.08856306  1
  Te  Te130  1  0.25812752  0.56995341  0.43131593  1
  Te  Te131  1  0.25314838  0.57301533  0.75724537  1
  Te  Te132  1  0.22035741  0.92598333  0.11583092  1
  Te  Te133  1  0.25382517  0.93496936  0.40605464  1
  Te  Te134  1  0.25916841  0.92197535  0.75883235  1
  Te  Te135  1  0.58459667  0.26101132  0.07931153  1
  Te  Te136  1  0.53019011  0.25035351  0.42207406  1
  Te  Te137  1  0.60447661  0.21729853  0.75694667  1
  Te  Te138  1  0.59768037  0.59697479  0.07871862  1
  Te  Te139  1  0.58504240  0.55017866  0.44226929  1
  Te  Te140  1  0.60927547  0.59403410  0.73836909  1
  Te  Te141  1  0.58651524  0.89851316  0.06825025  1
  Te  Te142  1  0.58649632  0.89832680  0.42978082  1
  Te  Te143  1  0.58398730  0.93139227  0.74200049  1
  Te  Te144  1  0.92173406  0.26424869  0.11784141  1
  Te  Te145  1  0.89707106  0.24525192  0.41675760  1
  Te  Te146  1  0.92828222  0.23434652  0.77535006  1
  Te  Te147  1  0.90468870  0.60455865  0.07659868  1
  Te  Te148  1  0.91329782  0.58559398  0.43638427  1
  Te  Te149  1  0.90306580  0.57031031  0.73274712  1
  Te  Te150  1  0.89735080  0.92338971  0.08492552  1
  Te  Te151  1  0.94032418  0.91032502  0.41397476  1
  Te  Te152  1  0.89823770  0.90285703  0.76318529  1
  Te  Te153  1  0.25161769  0.11964129  0.20678512  1
  Te  Te154  1  0.25050459  0.10302118  0.57280549  1
  Te  Te155  1  0.27063898  0.05449346  0.94345105  1
  Te  Te156  1  0.26962919  0.39643552  0.25660754  1
  Te  Te157  1  0.25768843  0.42045798  0.58741575  1
  Te  Te158  1  0.25033344  0.41291519  0.93566950  1
  Te  Te159  1  0.27682892  0.74771092  0.26773709  1
  Te  Te160  1  0.24665943  0.75899503  0.58857134  1
  Te  Te161  1  0.23515346  0.74344082  0.92232934  1
  Te  Te162  1  0.58846516  0.09666514  0.23790733  1
  Te  Te163  1  0.59657894  0.05812257  0.57654219  1
  Te  Te164  1  0.57695467  0.08308739  0.91363474  1
  Te  Te165  1  0.56314588  0.40892828  0.25792781  1
  Te  Te166  1  0.65966152  0.42697803  0.51341059  1
  Te  Te167  1  0.57678318  0.43171424  0.91055324  1
  Te  Te168  1  0.59678386  0.75465420  0.25942454  1
  Te  Te169  1  0.60341080  0.74708031  0.57996185  1
  Te  Te170  1  0.55378867  0.77078780  0.89841536  1
  Te  Te171  1  0.91476977  0.08413343  0.26794924  1
  Te  Te172  1  0.91612738  0.08077940  0.59044532  1
  Te  Te173  1  0.93017769  0.11053747  0.89294486  1
  Te  Te174  1  0.90495121  0.43477757  0.27428819  1
  Te  Te175  1  0.90727556  0.38864877  0.59419235  1
  Te  Te176  1  0.92650142  0.42278139  0.92861385  1
  Te  Te177  1  0.91773115  0.74026709  0.24895945  1
  Te  Te178  1  0.87950011  0.74736261  0.56409862  1
  Te  Te179  1  0.92354640  0.75625823  0.89578510  1
