# generated using pymatgen
data_In2Te3
_symmetry_space_group_name_H-M   'P 1'
_cell_length_a   18.96818690
_cell_length_b   18.95988584
_cell_length_c   18.94657036
_cell_angle_alpha   90.00147042
_cell_angle_beta   89.99297866
_cell_angle_gamma   89.88456921
_symmetry_Int_Tables_number   1
_chemical_formula_structural   In2Te3
_chemical_formula_sum   'In72 Te108'
_cell_volume   6813.82947285
_cell_formula_units_Z   36
loop_
 _symmetry_equiv_pos_site_id
 _symmetry_equiv_pos_as_xyz
  1  'x, y, z'
loop_
 _atom_site_type_symbol
 _atom_site_label
 _atom_site_symmetry_multiplicity
 _atom_site_fract_x
 _atom_site_fract_y
 _atom_site_fract_z
 _atom_site_occupancy
  In  In0  1  0.52426635  0.48424442  0.68383768  1
  In  In1  1  0.15496466  0.66154439  0.15965282  1
  In  In2  1  0.82704737  0.02392823  0.17129968  1
  In  In3  1  0.32847506  0.50733036  0.49938439  1
  In  In4  1  0.48138880  0.82104796  0.03841579  1
  In  In5  1  0.67335393  0.67152719  0.63895413  1
  In  In6  1  0.51117900  0.34740651  0.49081750  1
  In  In7  1  0.81141887  0.83868606  0.66052871  1
  In  In8  1  0.50668004  0.21203363  0.00037480  1
  In  In9  1  0.66210484  0.82889625  0.19123173  1
  In  In10  1  0.50834782  -0.01384657  0.84718889  1
  In  In11  1  0.15313023  0.31501621  0.84792127  1
  In  In12  1  0.16274437  0.16587427  0.33462489  1
  In  In13  1  0.66700110  0.47928605  0.16436190  1
  In  In14  1  0.00148867  0.67918724  0.32591289  1
  In  In15  1  0.70228420  0.01450420  0.00054917  1
  In  In16  1  0.00579842  0.84699937  0.17651930  1
  In  In17  1  0.15858503  0.51536179  0.31714852  1
  In  In18  1  0.48003459  0.64359801  0.85120993  1
  In  In19  1  0.34662549  0.81606253  0.49767468  1
  In  In20  1  0.50434712  0.16774195  0.68045207  1
  In  In21  1  0.16760332  0.50337634  0.00928808  1
  In  In22  1  0.35201310  0.67134726  0.64801702  1
  In  In23  1  0.83307359  0.50247773  0.33303766  1
  In  In24  1  0.50276930  -0.00030845  0.49421747  1
  In  In25  1  -0.00904978  -0.00726257  0.33962977  1
  In  In26  1  0.15607586  -0.01635587  0.50139429  1
  In  In27  1  0.67977143  0.62967732  -0.03229666  1
  In  In28  1  0.85658890  0.01772855  0.52883246  1
  In  In29  1  0.16598002  0.83366658  -0.03644976  1
  In  In30  1  -0.01258138  0.64083206  0.00092652  1
  In  In31  1  0.66969779  0.34316765  0.00195724  1
  In  In32  1  -0.02383920  0.27316692  0.64267334  1
  In  In33  1  0.85070228  0.82275537  0.02585616  1
  In  In34  1  0.84718486  0.64776568  0.15812240  1
  In  In35  1  0.33254868  0.35138332  0.67691928  1
  In  In36  1  0.67645514  0.18791867  0.83573379  1
  In  In37  1  0.69457029  0.18250749  0.52064177  1
  In  In38  1  0.31459377  0.17493053  0.15053719  1
  In  In39  1  -0.00882774  0.66247178  0.65835611  1
  In  In40  1  0.66738614  0.82521860  0.48121381  1
  In  In41  1  0.52797335  0.52178731  0.36143266  1
  In  In42  1  0.00965367  0.49563185  0.48917246  1
  In  In43  1  -0.02290342  0.46994775  0.85227437  1
  In  In44  1  0.50278227  0.47605272  0.00094138  1
  In  In45  1  0.68117024  0.02210243  0.35598859  1
  In  In46  1  0.16390719  0.34692140  0.16394877  1
  In  In47  1  0.83323891  0.00744812  0.83039015  1
  In  In48  1  0.16197773  0.17000886  0.66175023  1
  In  In49  1  0.47679982  0.79969764  0.33263625  1
  In  In50  1  0.16111958  0.02450403  0.82768401  1
  In  In51  1  0.16431786  0.50400834  0.66732963  1
  In  In52  1  -0.01998891  0.32945336  0.33065858  1
  In  In53  1  0.69517496  0.31413566  0.31777252  1
  In  In54  1  0.33729834  -0.00486437  0.69415221  1
  In  In55  1  0.83911162  0.33891583  0.50714600  1
  In  In56  1  0.51416244  0.01073300  0.17846689  1
  In  In57  1  0.01574228  0.10085081  0.01270284  1
  In  In58  1  -0.01546476  0.29157064  0.01674499  1
  In  In59  1  -0.00705424  0.82396385  0.84209048  1
  In  In60  1  0.65170362  0.82304556  0.82853789  1
  In  In61  1  0.30143447  0.19518324  0.49859164  1
  In  In62  1  0.18753730  0.66994157  0.82037343  1
  In  In63  1  0.29937511  0.01378762  0.01356185  1
  In  In64  1  0.31637975  0.79865818  0.17638983  1
  In  In65  1  0.54222148  0.83119916  0.67268533  1
  In  In66  1  0.50218770  0.17457926  0.29920365  1
  In  In67  1  -0.00150745  0.83304792  0.50131865  1
  In  In68  1  0.33287128  0.01990895  0.32058911  1
  In  In69  1  0.33496481  0.35160993  0.00706043  1
  In  In70  1  0.81899525  0.49151625  0.69200390  1
  In  In71  1  0.31570543  0.82431140  0.84232284  1
  Te  Te72  1  0.13461416  0.08394754  0.09498727  1
  Te  Te73  1  0.07412304  0.08833933  0.42946886  1
  Te  Te74  1  0.06785872  0.07945838  0.72725657  1
  Te  Te75  1  0.06354334  0.41341018  0.06908785  1
  Te  Te76  1  0.09195464  0.40642489  0.40078117  1
  Te  Te77  1  0.08036284  0.41173638  0.75522311  1
  Te  Te78  1  0.06851284  0.75467710  0.06175082  1
  Te  Te79  1  0.08945050  0.76780306  0.40431340  1
  Te  Te80  1  0.08297438  0.74990547  0.74432521  1
  Te  Te81  1  0.42279808  0.08457537  0.08171789  1
  Te  Te82  1  0.42417007  0.10073642  0.41137314  1
  Te  Te83  1  0.41801943  0.08907210  0.77952223  1
  Te  Te84  1  0.43470736  0.39664260  0.10616380  1
  Te  Te85  1  0.41370863  0.42400091  0.40530072  1
  Te  Te86  1  0.43268891  0.40527996  0.76858979  1
  Te  Te87  1  0.40696026  0.71239230  0.10089543  1
  Te  Te88  1  0.38981685  0.70261616  0.40650726  1
  Te  Te89  1  0.42688720  0.76368843  0.75783965  1
  Te  Te90  1  0.76879832  0.12370147  0.07507616  1
  Te  Te91  1  0.78576060  0.10868926  0.42178674  1
  Te  Te92  1  0.75080320  0.09524688  0.74324147  1
  Te  Te93  1  0.77254947  0.41300914  0.08488803  1
  Te  Te94  1  0.74319411  0.41621232  0.41909926  1
  Te  Te95  1  0.72501901  0.44273100  0.79701692  1
  Te  Te96  1  0.74016838  0.74068225  0.08690152  1
  Te  Te97  1  0.70619312  0.72206867  0.38690176  1
  Te  Te98  1  0.75152143  0.73649617  0.75515803  1
  Te  Te99  1  0.07705251  0.25021946  0.24171986  1
  Te  Te100  1  0.10174467  0.26355899  0.56651966  1
  Te  Te101  1  0.06309234  0.21088177  0.91010514  1
  Te  Te102  1  0.05039298  0.57516252  0.22710537  1
  Te  Te103  1  0.09385615  0.59544604  0.56880883  1
  Te  Te104  1  0.08547876  0.58306882  0.89807801  1
  Te  Te105  1  0.09543963  0.91495061  0.26931771  1
  Te  Te106  1  0.06027176  0.92767366  0.59572189  1
  Te  Te107  1  0.06601178  0.93525557  0.91437677  1
  Te  Te108  1  0.40356995  0.26042289  0.23178349  1
  Te  Te109  1  0.41649107  0.25356620  0.57891786  1
  Te  Te110  1  0.41795368  0.27848567  0.90708265  1
  Te  Te111  1  0.44262151  0.61707657  0.28466968  1
  Te  Te112  1  0.43912628  0.56693980  0.58345867  1
  Te  Te113  1  0.39828157  0.55776742  0.93402657  1
  Te  Te114  1  0.40728498  0.91642393  0.23438873  1
  Te  Te115  1  0.42973684  0.91675738  0.59967371  1
  Te  Te116  1  0.40663403  0.91166791  0.93307111  1
  Te  Te117  1  0.81617534  0.27455659  0.24124528  1
  Te  Te118  1  0.73590650  0.29440212  0.61307816  1
  Te  Te119  1  0.77013505  0.26086688  0.92390778  1
  Te  Te120  1  0.74071299  0.58623961  0.24622256  1
  Te  Te121  1  0.76016036  0.56924587  0.58078728  1
  Te  Te122  1  0.77227140  0.52910074  0.91397789  1
  Te  Te123  1  0.75462497  0.92468894  0.26246773  1
  Te  Te124  1  0.73437800  0.92988752  0.56664463  1
  Te  Te125  1  0.75524681  0.89625624  0.92037434  1
  Te  Te126  1  0.22749658  0.25684554  0.05878252  1
  Te  Te127  1  0.26750421  0.26147158  0.37403432  1
  Te  Te128  1  0.25331392  0.24696297  0.75446309  1
  Te  Te129  1  0.25666294  0.56287096  0.11248042  1
  Te  Te130  1  0.23862499  0.58995650  0.41640072  1
  Te  Te131  1  0.27584242  0.57624795  0.74093188  1
  Te  Te132  1  0.23831662  0.89539215  0.08126331  1
  Te  Te133  1  0.27034650  0.92264507  0.41905721  1
  Te  Te134  1  0.22948619  0.90677489  0.74936687  1
  Te  Te135  1  0.59959020  0.25744373  0.10096233  1
  Te  Te136  1  0.59235632  0.23885083  0.41546593  1
  Te  Te137  1  0.58377315  0.26578952  0.75286429  1
  Te  Te138  1  0.58967471  0.57717542  0.07648443  1
  Te  Te139  1  0.62457627  0.60522814  0.43660669  1
  Te  Te140  1  0.58460813  0.60710766  0.75043251  1
  Te  Te141  1  0.59627424  0.92185730  0.08144199  1
  Te  Te142  1  0.56745395  0.91963891  0.38323457  1
  Te  Te143  1  0.61246412  0.94443197  0.74587587  1
  Te  Te144  1  0.90165055  0.21227861  0.11445531  1
  Te  Te145  1  0.91174399  0.24001723  0.42603523  1
  Te  Te146  1  0.84896825  0.22958855  0.70563785  1
  Te  Te147  1  0.88430388  0.54724825  0.05366146  1
  Te  Te148  1  0.91719572  0.59387296  0.42006471  1
  Te  Te149  1  0.91870434  0.58228751  0.76407349  1
  Te  Te150  1  0.92482360  0.93884830  0.08415026  1
  Te  Te151  1  0.89394971  0.91295772  0.42467345  1
  Te  Te152  1  0.91422701  0.91193342  0.74376664  1
  Te  Te153  1  0.22568196  0.06867477  0.22284934  1
  Te  Te154  1  0.26727872  0.07076660  0.57984999  1
  Te  Te155  1  0.25804673  0.10133620  0.90531629  1
  Te  Te156  1  0.25585157  0.44343587  0.22900086  1
  Te  Te157  1  0.23829531  0.40948748  0.57349798  1
  Te  Te158  1  0.24170731  0.42329165  0.90468850  1
  Te  Te159  1  0.21043463  0.74843134  0.26573121  1
  Te  Te160  1  0.24963525  0.75717202  0.58906503  1
  Te  Te161  1  0.26546483  0.72035608  0.94053497  1
  Te  Te162  1  0.62068513  0.10030986  0.23907413  1
  Te  Te163  1  0.58891270  0.08814887  0.58138407  1
  Te  Te164  1  0.58685038  0.08663146  0.93109551  1
  Te  Te165  1  0.58557876  0.41017434  0.27133590  1
  Te  Te166  1  0.60603070  0.40649173  0.58693677  1
  Te  Te167  1  0.60166010  0.42839175  0.89779818  1
  Te  Te168  1  0.56548723  0.72555489  0.23962713  1
  Te  Te169  1  0.56232042  0.74199798  0.55305350  1
  Te  Te170  1  0.56979455  0.74870960  0.93348103  1
  Te  Te171  1  0.93879863  0.09052522  0.24093628  1
  Te  Te172  1  0.92031977  0.13213252  0.60146108  1
  Te  Te173  1  0.91363240  0.10679595  0.90427216  1
  Te  Te174  1  0.89965913  0.41130675  0.23423977  1
  Te  Te175  1  0.93246402  0.42475333  0.59948737  1
  Te  Te176  1  0.90896208  0.34725371  0.89739054  1
  Te  Te177  1  0.90167645  0.76197488  0.24619590  1
  Te  Te178  1  0.89583659  0.74588527  0.57470205  1
  Te  Te179  1  0.89832140  0.73095280  0.91503147  1
