# generated using pymatgen
data_In2Te3
_symmetry_space_group_name_H-M   'P 1'
_cell_length_a   18.96418477
_cell_length_b   18.98075952
_cell_length_c   18.98150391
_cell_angle_alpha   90.04537912
_cell_angle_beta   89.89714552
_cell_angle_gamma   89.82470263
_symmetry_Int_Tables_number   1
_chemical_formula_structural   In2Te3
_chemical_formula_sum   'In72 Te108'
_cell_volume   6832.43506976
_cell_formula_units_Z   36
loop_
 _symmetry_equiv_pos_site_id
 _symmetry_equiv_pos_as_xyz
  1  'x, y, z'
loop_
 _atom_site_type_symbol
 _atom_site_label
 _atom_site_symmetry_multiplicity
 _atom_site_fract_x
 _atom_site_fract_y
 _atom_site_fract_z
 _atom_site_occupancy
  In  In0  1  0.48679856  0.80155923  0.35990049  1
  In  In1  1  0.83729301  -0.01185228  0.81463811  1
  In  In2  1  0.50677906  0.50164248  0.36168330  1
  In  In3  1  0.80141503  0.69546160  0.83683199  1
  In  In4  1  0.83749237  0.33983976  0.19277868  1
  In  In5  1  0.16871439  0.48431543  0.02568842  1
  In  In6  1  0.82139841  0.65303607  0.17812023  1
  In  In7  1  0.83832820  0.81936756  0.65799225  1
  In  In8  1  0.34379392  0.35740112  0.66526375  1
  In  In9  1  0.21315505  -0.01589859  0.17209208  1
  In  In10  1  0.01065403  0.66603284  0.33633342  1
  In  In11  1  0.82633323  0.86146820  -0.01948966  1
  In  In12  1  0.51922296  0.16085133  0.68622620  1
  In  In13  1  0.51666186  0.54452054  0.59346841  1
  In  In14  1  0.85005372  0.00455718  0.50358064  1
  In  In15  1  0.46559008  0.00267799  0.15088257  1
  In  In16  1  -0.00749519  0.52489993  0.82198554  1
  In  In17  1  0.29559045  0.18367378  0.45255591  1
  In  In18  1  0.66304286  0.33116020  0.02473893  1
  In  In19  1  0.16009093  0.31913290  0.18832942  1
  In  In20  1  0.16766968  0.70938869  0.20693667  1
  In  In21  1  0.64992524  -0.02402621  0.34154074  1
  In  In22  1  0.82214009  0.80328017  0.36266625  1
  In  In23  1  0.85486884  0.53265827  -0.01372655  1
  In  In24  1  0.15213312  0.66388023  0.81586033  1
  In  In25  1  0.01481370  0.34096602  0.65853950  1
  In  In26  1  0.49134952  0.15922681  0.32493593  1
  In  In27  1  0.15255843  0.33786178  0.85585330  1
  In  In28  1  0.33162269  0.48019385  0.18457724  1
  In  In29  1  0.64589869  0.48079639  0.81214679  1
  In  In30  1  0.01238760  0.85757028  0.50945797  1
  In  In31  1  0.80029870  0.12818793  0.01342777  1
  In  In32  1  0.32352720  0.18519372  0.86006544  1
  In  In33  1  0.30873744  0.83263034  0.50994522  1
  In  In34  1  0.48942350  0.81865023  0.03100307  1
  In  In35  1  0.50824585  0.65921829  0.81665813  1
  In  In36  1  0.00233090  0.00335869  -0.01318129  1
  In  In37  1  0.33260093  0.01281499  0.32774535  1
  In  In38  1  0.34531919  0.68198617  0.00291525  1
  In  In39  1  0.17977222  0.17377062  0.01516894  1
  In  In40  1  0.00457207  0.46195106  0.44649434  1
  In  In41  1  0.50348666  0.32037668  0.50946819  1
  In  In42  1  0.31437098  0.50606746  0.47129357  1
  In  In43  1  0.84308044  0.17018973  0.32847097  1
  In  In44  1  0.01294506  0.30186637  0.01002813  1
  In  In45  1  -0.01918706  0.15084381  0.16989844  1
  In  In46  1  0.80228023  0.47263564  0.37034091  1
  In  In47  1  0.69869027  0.31464335  0.63963202  1
  In  In48  1  0.49562442  0.32883696  0.18543921  1
  In  In49  1  0.51965347  0.82513096  0.64095667  1
  In  In50  1  0.81534696  0.52495955  0.60943747  1
  In  In51  1  0.51806103  -0.00005166  0.87455657  1
  In  In52  1  0.02058730  0.13985161  0.47818867  1
  In  In53  1  0.02208002  0.84718627  0.16449002  1
  In  In54  1  0.67039831  0.14462812  0.83536999  1
  In  In55  1  0.66315101  0.49961702  0.16955177  1
  In  In56  1  0.65323783  0.67600744  0.01116290  1
  In  In57  1  0.15648786  0.68152398  0.49256704  1
  In  In58  1  0.34142232  0.01397125  0.67009901  1
  In  In59  1  0.15636155  0.00770027  0.84205813  1
  In  In60  1  0.33495778  0.49557101  0.83575544  1
  In  In61  1  0.67396865  -0.00049229  0.67639376  1
  In  In62  1  0.68048909  0.18098693  0.51305160  1
  In  In63  1  0.18567309  0.51235695  0.63651766  1
  In  In64  1  0.64060780  0.83260534  0.18668557  1
  In  In65  1  0.00189525  0.66721392  0.65965310  1
  In  In66  1  -0.01305074  0.70040905  0.02306982  1
  In  In67  1  0.47974718  0.32627605  0.84532537  1
  In  In68  1  0.34920693  0.83150811  0.81963642  1
  In  In69  1  0.47449541  0.66875806  0.16922828  1
  In  In70  1  0.15811470  0.15424789  0.67895723  1
  In  In71  1  0.83840930  0.33128355  0.82291783  1
  Te  Te72  1  0.08856892  0.07757604  0.08960843  1
  Te  Te73  1  0.10869277  0.05077757  0.39478668  1
  Te  Te74  1  0.06457374  0.05794727  0.73725102  1
  Te  Te75  1  0.06259914  0.40781354  0.10249876  1
  Te  Te76  1  0.12656863  0.39264050  0.40003959  1
  Te  Te77  1  0.10271019  0.43860009  0.75266950  1
  Te  Te78  1  0.11318679  0.76267812  0.07431516  1
  Te  Te79  1  0.08760043  0.77903720  0.39978624  1
  Te  Te80  1  0.09179317  0.76390592  0.72515233  1
  Te  Te81  1  0.45142062  0.10199983  0.04456050  1
  Te  Te82  1  0.41413660  0.08969819  0.43449032  1
  Te  Te83  1  0.42326353  0.09092108  0.78146024  1
  Te  Te84  1  0.42776603  0.42016145  0.09280496  1
  Te  Te85  1  0.41185284  0.39755174  0.41802779  1
  Te  Te86  1  0.44291256  0.43857758  0.74267318  1
  Te  Te87  1  0.36622935  0.78383168  0.13374327  1
  Te  Te88  1  0.38115508  0.72857590  0.43250973  1
  Te  Te89  1  0.42189364  0.74049282  0.72221900  1
  Te  Te90  1  0.71208538  0.02834404  0.06667298  1
  Te  Te91  1  0.74149028  0.07480602  0.41517844  1
  Te  Te92  1  0.76874123  0.10323005  0.73080825  1
  Te  Te93  1  0.77027109  0.43746092  0.07973947  1
  Te  Te94  1  0.73035149  0.39591383  0.47234580  1
  Te  Te95  1  0.76754089  0.43118574  0.73255450  1
  Te  Te96  1  0.76483878  0.75250503  0.07658452  1
  Te  Te97  1  0.71827190  0.74980824  0.45315777  1
  Te  Te98  1  0.72609087  0.75365019  0.72810043  1
  Te  Te99  1  0.06267929  0.23314202  0.26263693  1
  Te  Te100  1  0.09228793  0.24303081  0.57560018  1
  Te  Te101  1  0.08043485  0.21588378  0.90548877  1
  Te  Te102  1  0.10687392  0.58584300  0.25655772  1
  Te  Te103  1  0.06680832  0.56803419  0.56337686  1
  Te  Te104  1  0.09079746  0.57677805  0.92658706  1
  Te  Te105  1  0.09348225  0.94335199  0.24985189  1
  Te  Te106  1  0.11328621  0.96856597  0.52013887  1
  Te  Te107  1  0.08582375  0.90500565  0.91947835  1
  Te  Te108  1  0.39429174  0.23765610  0.24605984  1
  Te  Te109  1  0.41765721  0.23854388  0.60340673  1
  Te  Te110  1  0.42159205  0.24544172  0.95480923  1
  Te  Te111  1  0.41027431  0.57847928  0.27160490  1
  Te  Te112  1  0.38317952  0.59806624  0.56372313  1
  Te  Te113  1  0.42618560  0.58361000  0.91958334  1
  Te  Te114  1  0.43316388  0.91524147  0.26764591  1
  Te  Te115  1  0.41525834  0.91850218  0.57927863  1
  Te  Te116  1  0.41186007  0.90989446  0.93467607  1
  Te  Te117  1  0.74158858  0.24573956  0.24921455  1
  Te  Te118  1  0.80318418  0.23586692  0.57426742  1
  Te  Te119  1  0.74641478  0.25604999  0.91754375  1
  Te  Te120  1  0.73610833  0.57919918  0.27661010  1
  Te  Te121  1  0.73139927  0.61225691  0.52671653  1
  Te  Te122  1  0.72837398  0.57438309  0.91107269  1
  Te  Te123  1  0.75306523  0.89723907  0.26052863  1
  Te  Te124  1  0.75092541  0.91613267  0.57715732  1
  Te  Te125  1  0.73000748  0.92090697  0.88885821  1
  Te  Te126  1  0.25828835  0.26891036  0.09127178  1
  Te  Te127  1  0.18928918  0.25064657  0.37558501  1
  Te  Te128  1  0.25084175  0.26650439  0.75216948  1
  Te  Te129  1  0.26581679  0.58389160  0.08713832  1
  Te  Te130  1  0.21865773  0.58948971  0.39437484  1
  Te  Te131  1  0.26290771  0.58949423  0.74101648  1
  Te  Te132  1  0.28541370  0.90330254  0.07524441  1
  Te  Te133  1  0.24228469  0.93537909  0.41990140  1
  Te  Te134  1  0.25203243  0.92438882  0.74965700  1
  Te  Te135  1  0.60868731  0.24659345  0.13034772  1
  Te  Te136  1  0.58641000  0.24318327  0.41007902  1
  Te  Te137  1  0.59847454  0.26852807  0.75584528  1
  Te  Te138  1  0.56472718  0.57883266  0.08419816  1
  Te  Te139  1  0.57168608  0.59500526  0.45921179  1
  Te  Te140  1  0.60090036  0.58972431  0.71816482  1
  Te  Te141  1  0.59645119  0.92226919  0.07455403  1
  Te  Te142  1  0.57141741  0.89595752  0.43614845  1
  Te  Te143  1  0.56489515  0.92507516  0.75045695  1
  Te  Te144  1  0.89026254  0.24370298  0.07672228  1
  Te  Te145  1  0.93429668  0.24296168  0.41596437  1
  Te  Te146  1  0.94609580  0.25769896  0.75755471  1
  Te  Te147  1  0.93833862  0.58315611  0.10262596  1
  Te  Te148  1  0.91295075  0.57786441  0.40735641  1
  Te  Te149  1  0.88985173  0.60044453  0.74042027  1
  Te  Te150  1  0.91684945  0.92390792  0.08427664  1
  Te  Te151  1  0.91805659  0.91346959  0.40269859  1
  Te  Te152  1  0.92801505  0.90639172  0.73451841  1
  Te  Te153  1  0.28055520  0.10615390  0.22445025  1
  Te  Te154  1  0.25901254  0.10133871  0.57829477  1
  Te  Te155  1  0.25886565  0.07184747  0.93507904  1
  Te  Te156  1  0.23769603  0.41174097  0.27836272  1
  Te  Te157  1  0.24408288  0.39622177  0.56004147  1
  Te  Te158  1  0.26261397  0.40534831  0.93367084  1
  Te  Te159  1  0.27717993  0.78672552  0.25965251  1
  Te  Te160  1  0.21033797  0.76643972  0.60091875  1
  Te  Te161  1  0.25469704  0.74393300  0.90068418  1
  Te  Te162  1  0.57497700  0.06355121  0.24336137  1
  Te  Te163  1  0.58654487  0.07921206  0.58056882  1
  Te  Te164  1  0.57846267  0.11451624  0.94968730  1
  Te  Te165  1  0.59308754  0.41535959  0.27279057  1
  Te  Te166  1  0.60768505  0.41596801  0.56950241  1
  Te  Te167  1  0.57588650  0.41239500  0.92811204  1
  Te  Te168  1  0.58245878  0.72030066  0.26317565  1
  Te  Te169  1  0.58862066  0.73370226  0.54548089  1
  Te  Te170  1  0.57145810  0.75718101  0.91437736  1
  Te  Te171  1  0.88886044  0.06227715  0.23934384  1
  Te  Te172  1  0.94929171  0.07087940  0.58869588  1
  Te  Te173  1  0.90254688  0.08858607  0.91079239  1
  Te  Te174  1  0.91584563  0.41885248  0.28847234  1
  Te  Te175  1  0.92320716  0.42245135  0.56984465  1
  Te  Te176  1  0.93058822  0.41763309  0.91842957  1
  Te  Te177  1  0.91880521  0.75128153  0.24337428  1
  Te  Te178  1  0.92269173  0.74314754  0.55575940  1
  Te  Te179  1  0.92206370  0.76019772  0.90386224  1
