# generated using pymatgen
data_In2Te3
_symmetry_space_group_name_H-M   'P 1'
_cell_length_a   18.92879190
_cell_length_b   18.96502111
_cell_length_c   18.96319396
_cell_angle_alpha   90.01199130
_cell_angle_beta   89.81845929
_cell_angle_gamma   89.69803246
_symmetry_Int_Tables_number   1
_chemical_formula_structural   In2Te3
_chemical_formula_sum   'In72 Te108'
_cell_volume   6807.37212144
_cell_formula_units_Z   36
loop_
 _symmetry_equiv_pos_site_id
 _symmetry_equiv_pos_as_xyz
  1  'x, y, z'
loop_
 _atom_site_type_symbol
 _atom_site_label
 _atom_site_symmetry_multiplicity
 _atom_site_fract_x
 _atom_site_fract_y
 _atom_site_fract_z
 _atom_site_occupancy
  In  In0  1  0.48992003  0.31750101  0.52464835  1
  In  In1  1  0.14031553  0.63287275  0.13503806  1
  In  In2  1  0.65472551  0.84177597  0.86676250  1
  In  In3  1  -0.00443883  0.83469083  0.16135617  1
  In  In4  1  0.29453554  0.02381711  0.66405985  1
  In  In5  1  0.91804987  0.09032573  0.81780009  1
  In  In6  1  0.50613404  0.01988468  0.17067858  1
  In  In7  1  0.34646208  0.49890001  0.82758355  1
  In  In8  1  -0.01238150  0.33260354  0.65429443  1
  In  In9  1  0.84841268  0.04955452  0.16160134  1
  In  In10  1  0.51076369  0.33896730  0.84424244  1
  In  In11  1  0.81769800  0.85295161  0.00679491  1
  In  In12  1  0.17187780  0.82093451  0.32945016  1
  In  In13  1  0.65544629  0.85469760  0.50964431  1
  In  In14  1  0.86697253  0.03332824  0.50274130  1
  In  In15  1  0.01102653  0.48874399  0.49670862  1
  In  In16  1  0.48409989  0.67868610  0.48817454  1
  In  In17  1  0.01224237  0.20518329  0.17435133  1
  In  In18  1  0.82141717  0.82517864  0.67708900  1
  In  In19  1  0.32348227  0.34547987  0.01588147  1
  In  In20  1  0.47497633  0.83118303  0.00545562  1
  In  In21  1  0.83863432  0.47122901  0.35094525  1
  In  In22  1  0.84317816  0.63622778  0.82257759  1
  In  In23  1  0.69604545  0.64879936  0.34232697  1
  In  In24  1  0.49957722  0.62555743  0.20464574  1
  In  In25  1  0.13858176  0.47504592  0.66961790  1
  In  In26  1  0.82865174  0.67486002  0.52582862  1
  In  In27  1  0.33084539  -0.00176023  0.30005466  1
  In  In28  1  0.29779062  0.17700855  0.84162049  1
  In  In29  1  0.50187423  -0.00208841  0.86354376  1
  In  In30  1  -0.02279224  0.30226982  -0.02366646  1
  In  In31  1  0.50857869  0.50495349  0.29688465  1
  In  In32  1  0.66645871  0.02959037  0.02367267  1
  In  In33  1  -0.00314621  0.85981149  0.82640724  1
  In  In34  1  0.31534445  0.85594403  0.51994180  1
  In  In35  1  0.00451786  0.68934882  0.34301345  1
  In  In36  1  0.14830198  0.48787128  -0.04411455  1
  In  In37  1  0.83345248  0.19877554  0.33599707  1
  In  In38  1  0.16478206  0.33485852  0.46758429  1
  In  In39  1  0.02858318  0.04068177  0.38938082  1
  In  In40  1  0.83530126  0.88094871  0.33704040  1
  In  In41  1  0.67567789  0.01003495  0.69942280  1
  In  In42  1  0.65016538  0.66931374  -0.01159633  1
  In  In43  1  0.66667933  0.82059655  0.18058069  1
  In  In44  1  0.68276057  0.46022714  0.83681124  1
  In  In45  1  0.72594743  0.32645969  0.66984798  1
  In  In46  1  0.47921274  -0.00364077  0.49784305  1
  In  In47  1  0.34934829  0.64516447  -0.02886448  1
  In  In48  1  0.33380723  0.48311444  0.47534429  1
  In  In49  1  0.31685704  0.81481085  0.15871410  1
  In  In50  1  0.32090397  0.71398588  0.71867419  1
  In  In51  1  0.30742016  0.29596260  0.67311790  1
  In  In52  1  0.31054053  0.35311065  0.30028583  1
  In  In53  1  0.67803788  0.15437064  0.50262220  1
  In  In54  1  0.49083269  0.83636611  0.36926821  1
  In  In55  1  0.71136040  0.19033618  0.85775654  1
  In  In56  1  -0.01570543  0.66996533  0.00051823  1
  In  In57  1  0.49834396  0.50310674  0.65266988  1
  In  In58  1  0.33181879  0.61185240  0.32267318  1
  In  In59  1  0.69930263  0.48502418  0.50413208  1
  In  In60  1  0.15003871  0.85509658  0.65611860  1
  In  In61  1  0.13859983  0.01641400  0.83486319  1
  In  In62  1  0.69122496  0.46240098  0.13615072  1
  In  In63  1  -0.00431946  0.46240956  0.15639689  1
  In  In64  1  0.50707337  0.19297353  0.03786053  1
  In  In65  1  0.49754510  0.17376604  0.68816252  1
  In  In66  1  0.51208300  0.16957717  0.30622662  1
  In  In67  1  0.17080658  0.68735790  0.83301403  1
  In  In68  1  0.89910783  0.61977233  0.18079358  1
  In  In69  1  0.15419243  0.01276026  0.18095395  1
  In  In70  1  0.65643718  0.65743423  0.66015297  1
  In  In71  1  0.32536378  0.17003401  0.16946120  1
  Te  Te72  1  0.06906325  0.09618867  0.09097113  1
  Te  Te73  1  0.08311168  0.16190109  0.45257204  1
  Te  Te74  1  0.04822063  0.08223609  0.73178177  1
  Te  Te75  1  0.08100210  0.39306709  0.05193982  1
  Te  Te76  1  0.06948637  0.41205763  0.38272778  1
  Te  Te77  1  0.04577328  0.41425672  0.76859683  1
  Te  Te78  1  0.08814330  0.75877270  0.06740591  1
  Te  Te79  1  0.10103037  0.74712977  0.43485879  1
  Te  Te80  1  0.07106930  0.75802890  0.74255240  1
  Te  Te81  1  0.41209721  0.08062120  0.07231544  1
  Te  Te82  1  0.41647227  0.08383109  0.39153239  1
  Te  Te83  1  0.40597455  0.08238416  0.76602380  1
  Te  Te84  1  0.41800993  0.40498600  0.10807879  1
  Te  Te85  1  0.46005718  0.42272205  0.41849469  1
  Te  Te86  1  0.42068258  0.39233303  0.73092724  1
  Te  Te87  1  0.42497122  0.72199316  0.10118223  1
  Te  Te88  1  0.37579209  0.74176782  0.40007414  1
  Te  Te89  1  0.45297987  0.70757058  0.77220778  1
  Te  Te90  1  0.78109052  0.11590785  0.04957326  1
  Te  Te91  1  0.76177783  0.07689708  0.40261404  1
  Te  Te92  1  0.77751991  0.10981179  0.74753652  1
  Te  Te93  1  0.77781184  0.37175649  0.05339476  1
  Te  Te94  1  0.71675087  0.39676906  0.38735579  1
  Te  Te95  1  0.80632214  0.40746167  0.76548989  1
  Te  Te96  1  0.74966963  0.73932749  0.08077682  1
  Te  Te97  1  0.75119610  0.77475955  0.42010404  1
  Te  Te98  1  0.72782232  0.74365241  0.76722563  1
  Te  Te99  1  0.08838196  0.28739506  0.27357272  1
  Te  Te100  1  0.09520796  0.25742700  0.57515971  1
  Te  Te101  1  0.07569764  0.22750538  0.88689172  1
  Te  Te102  1  0.05305726  0.57888884  0.24727735  1
  Te  Te103  1  0.05871843  0.58002808  0.60192928  1
  Te  Te104  1  0.06387446  0.59657888  0.89276085  1
  Te  Te105  1  0.07025418  0.91551206  0.26579965  1
  Te  Te106  1  0.09001235  0.97641351  0.59039207  1
  Te  Te107  1  0.07223271  0.92520635  0.93065862  1
  Te  Te108  1  0.42150714  0.26924402  0.23401310  1
  Te  Te109  1  0.39525836  0.21205619  0.58103649  1
  Te  Te110  1  0.41581031  0.24938921  0.92110344  1
  Te  Te111  1  0.37549623  0.51494166  0.21030057  1
  Te  Te112  1  0.40023880  0.58496836  0.57294772  1
  Te  Te113  1  0.44238172  0.53968743  0.93006475  1
  Te  Te114  1  0.43532366  0.90222034  0.23675991  1
  Te  Te115  1  0.41164593  0.92277815  0.60958419  1
  Te  Te116  1  0.39581786  0.90799412  0.90962176  1
  Te  Te117  1  0.72564329  0.22351762  0.23509778  1
  Te  Te118  1  0.78624335  0.23579248  0.56675280  1
  Te  Te119  1  0.79533432  0.29704583  0.91703251  1
  Te  Te120  1  0.76277166  0.56812869  0.23468502  1
  Te  Te121  1  0.77401301  0.56368851  0.61793877  1
  Te  Te122  1  0.74852757  0.57163986  0.92118812  1
  Te  Te123  1  0.75695943  0.93588046  0.22028258  1
  Te  Te124  1  0.75430243  0.94146866  0.58479398  1
  Te  Te125  1  0.74552125  0.95047335  0.91541618  1
  Te  Te126  1  0.23464266  0.24373911  0.07732801  1
  Te  Te127  1  0.28632635  0.26962103  0.41719556  1
  Te  Te128  1  0.19727952  0.23469369  0.74928109  1
  Te  Te129  1  0.24165629  0.56341531  0.04884215  1
  Te  Te130  1  0.22716847  0.55948851  0.40997720  1
  Te  Te131  1  0.24478508  0.57753569  0.74658398  1
  Te  Te132  1  0.24695429  0.92834162  0.10105237  1
  Te  Te133  1  0.24613029  0.92856973  0.40818720  1
  Te  Te134  1  0.23845181  0.92098308  0.75776076  1
  Te  Te135  1  0.61938438  0.23430509  0.12097062  1
  Te  Te136  1  0.57750070  0.23832336  0.42635116  1
  Te  Te137  1  0.60998340  0.25467136  0.74965047  1
  Te  Te138  1  0.59316046  0.57515221  0.09285975  1
  Te  Te139  1  0.60212983  0.58912048  0.44447598  1
  Te  Te140  1  0.59136804  0.55836321  0.75611164  1
  Te  Te141  1  0.58738259  0.90491106  0.07632214  1
  Te  Te142  1  0.59146876  0.94364995  0.40362989  1
  Te  Te143  1  0.57501024  0.91372552  0.75761834  1
  Te  Te144  1  0.89560302  0.28280382  0.11426921  1
  Te  Te145  1  0.89346805  0.27072924  0.45043939  1
  Te  Te146  1  0.95067993  0.22747383  0.75805917  1
  Te  Te147  1  0.91422438  0.54596096  0.05137219  1
  Te  Te148  1  0.90402430  0.59424834  0.41949494  1
  Te  Te149  1  0.90853183  0.59379152  0.69954292  1
  Te  Te150  1  0.92023069  0.93693874  0.07947356  1
  Te  Te151  1  0.94172780  0.91798128  0.43517192  1
  Te  Te152  1  0.89219721  0.93421125  0.75297295  1
  Te  Te153  1  0.22958912  0.10839500  0.27138510  1
  Te  Te154  1  0.20970984  0.06329609  0.55208525  1
  Te  Te155  1  0.23705723  0.07656768  0.92616052  1
  Te  Te156  1  0.20056095  0.35745943  0.20163847  1
  Te  Te157  1  0.25455012  0.41372655  0.59106774  1
  Te  Te158  1  0.25038009  0.39872321  0.88764546  1
  Te  Te159  1  0.23343714  0.71171583  0.23270720  1
  Te  Te160  1  0.24317462  0.74595326  0.59188255  1
  Te  Te161  1  0.26337634  0.75422278  0.92461625  1
  Te  Te162  1  0.62001682  0.09618737  0.22937037  1
  Te  Te163  1  0.57676263  0.07791676  0.59521509  1
  Te  Te164  1  0.58721772  0.11282760  0.91510562  1
  Te  Te165  1  0.60929437  0.40612728  0.24749878  1
  Te  Te166  1  0.60493238  0.40016970  0.59421831  1
  Te  Te167  1  0.59690152  0.40266763  0.94264907  1
  Te  Te168  1  0.58247253  0.74090649  0.28122280  1
  Te  Te169  1  0.56717926  0.75967705  0.58766550  1
  Te  Te170  1  0.54492444  0.73602790  0.89714356  1
  Te  Te171  1  0.94249025  0.09824195  0.27615785  1
  Te  Te172  1  0.96967974  0.08453587  0.59475269  1
  Te  Te173  1  0.97442990  0.14038888  0.95312788  1
  Te  Te174  1  0.89728104  0.38765718  0.24201371  1
  Te  Te175  1  0.90291541  0.39632766  0.54463580  1
  Te  Te176  1  0.92500540  0.40445202  0.87752210  1
  Te  Te177  1  0.89428585  0.76178336  0.25066102  1
  Te  Te178  1  0.92163562  0.77013915  0.58488248  1
  Te  Te179  1  0.89404064  0.75641080  0.91296367  1
