# generated using pymatgen
data_In2Te3
_symmetry_space_group_name_H-M   'P 1'
_cell_length_a   18.86299442
_cell_length_b   18.86533916
_cell_length_c   18.87125590
_cell_angle_alpha   90.04626064
_cell_angle_beta   89.98458276
_cell_angle_gamma   90.13808422
_symmetry_Int_Tables_number   1
_chemical_formula_structural   In2Te3
_chemical_formula_sum   'In72 Te108'
_cell_volume   6715.44256745
_cell_formula_units_Z   36
loop_
 _symmetry_equiv_pos_site_id
 _symmetry_equiv_pos_as_xyz
  1  'x, y, z'
loop_
 _atom_site_type_symbol
 _atom_site_label
 _atom_site_symmetry_multiplicity
 _atom_site_fract_x
 _atom_site_fract_y
 _atom_site_fract_z
 _atom_site_occupancy
  In  In0  1  0.48508288  0.00376700  0.18890605  1
  In  In1  1  0.31924154  -0.00138000  0.32751611  1
  In  In2  1  0.47195426  0.15798045  0.69806982  1
  In  In3  1  0.83362922  0.31508472  0.50977336  1
  In  In4  1  0.17523077  0.16511591  0.66528807  1
  In  In5  1  0.65203469  0.00645739  -0.03260367  1
  In  In6  1  0.31671666  0.83742019  0.82883726  1
  In  In7  1  0.14392417  0.83836521  0.34616772  1
  In  In8  1  -0.00113553  0.67988779  0.64992997  1
  In  In9  1  0.83216706  0.67586338  0.17041942  1
  In  In10  1  0.66947506  0.67682122  0.34285019  1
  In  In11  1  0.88267243  0.32199208  0.17832105  1
  In  In12  1  0.15026774  0.13245026  0.35809631  1
  In  In13  1  0.85501003  0.16675223  0.32462743  1
  In  In14  1  0.32184915  0.49356087  0.83294115  1
  In  In15  1  0.64946208  0.16151883  0.14270400  1
  In  In16  1  0.16189532  0.34543099  0.17325307  1
  In  In17  1  0.65217449  0.66371379  0.65173596  1
  In  In18  1  0.68617676  0.15360471  0.52189795  1
  In  In19  1  0.00372197  0.85412214  0.17321411  1
  In  In20  1  0.84844389  -0.00085422  0.49801082  1
  In  In21  1  0.83415662  0.84041831  0.66728028  1
  In  In22  1  0.48026264  0.48290443  0.66285680  1
  In  In23  1  0.13970509  0.85387621  0.64562262  1
  In  In24  1  -0.02598671  0.83757278  0.81631869  1
  In  In25  1  0.66857808  0.82469161  0.50499371  1
  In  In26  1  0.48529486  0.84258209  0.34517381  1
  In  In27  1  0.17776443  0.48136565  0.00545301  1
  In  In28  1  0.18900715  0.83887499  0.00876818  1
  In  In29  1  0.33033986  0.48868955  0.50495213  1
  In  In30  1  0.82646216  0.49577239  0.67307964  1
  In  In31  1  0.32861427  0.66693402  0.31736655  1
  In  In32  1  0.19629225  0.65417926  0.82074343  1
  In  In33  1  0.32399288  0.32949949  0.67130997  1
  In  In34  1  0.51001173  0.00113172  0.50781052  1
  In  In35  1  0.52204417  0.86130903  0.69697070  1
  In  In36  1  0.50083364  0.67089334  0.83195710  1
  In  In37  1  0.84274010  0.50703509  -0.01197321  1
  In  In38  1  0.82256144  0.15699063  0.68367307  1
  In  In39  1  0.32392640  0.34197243  0.32716085  1
  In  In40  1  0.48189673  0.51408371  0.33282679  1
  In  In41  1  0.67062676  0.50460645  0.51846598  1
  In  In42  1  0.66231050  0.16803588  0.82000486  1
  In  In43  1  0.65846979  0.67315078  -0.01532549  1
  In  In44  1  -0.00440338  0.00896387  0.00525772  1
  In  In45  1  0.48703378  0.48748579  0.00143002  1
  In  In46  1  0.03048045  0.16788094  0.14105571  1
  In  In47  1  0.17284500  0.66418820  0.49725100  1
  In  In48  1  0.64554572  0.49633967  0.13224117  1
  In  In49  1  0.52299503  0.17964953  0.32550835  1
  In  In50  1  0.03198670  0.17580180  0.86205376  1
  In  In51  1  0.65635639  0.82745838  0.17017375  1
  In  In52  1  0.48298163  0.34585858  0.15017469  1
  In  In53  1  0.34333584  0.83607741  0.51417584  1
  In  In54  1  0.83171762  0.00624694  0.16863322  1
  In  In55  1  0.32615372  0.01155375  -0.01979787  1
  In  In56  1  0.02800244  0.31748739  0.66234161  1
  In  In57  1  0.46708261  0.82020769  0.02140588  1
  In  In58  1  0.14878149  0.63200416  0.18902012  1
  In  In59  1  0.32373948  0.15334343  0.50889855  1
  In  In60  1  0.01030959  0.46671287  0.81768846  1
  In  In61  1  -0.01170701  0.34278310  0.35221132  1
  In  In62  1  0.82594809  0.34626569  0.82955920  1
  In  In63  1  0.85773421  0.51176061  0.32902864  1
  In  In64  1  0.80909033  0.65914206  0.83203090  1
  In  In65  1  0.32192559  0.16566967  0.12226679  1
  In  In66  1  0.15962493  0.00949146  0.84367763  1
  In  In67  1  0.68485930  0.34618248  -0.00468096  1
  In  In68  1  0.86386393  0.84137061  0.33916158  1
  In  In69  1  0.66573585  0.31788380  0.34080764  1
  In  In70  1  0.00439331  0.68029564  -0.02419721  1
  In  In71  1  0.01937765  0.50431091  0.48571798  1
  Te  Te72  1  0.11421325  0.07768185  0.05882338  1
  Te  Te73  1  0.08066665  0.04157544  0.45155312  1
  Te  Te74  1  0.07124990  0.08369880  0.74540361  1
  Te  Te75  1  0.06926868  0.41863619  0.08355764  1
  Te  Te76  1  0.10390604  0.40883770  0.41360831  1
  Te  Te77  1  0.11980666  0.40720795  0.73883614  1
  Te  Te78  1  0.08485335  0.75176148  0.08381808  1
  Te  Te79  1  0.06858624  0.74891008  0.43634463  1
  Te  Te80  1  0.09059193  0.75152003  0.76050039  1
  Te  Te81  1  0.43571929  0.07844978  0.06895227  1
  Te  Te82  1  0.42670542  0.07914236  0.40403108  1
  Te  Te83  1  0.45205306  0.05139835  0.79944867  1
  Te  Te84  1  0.37692985  0.40856518  0.06662857  1
  Te  Te85  1  0.42879861  0.40166847  0.41928157  1
  Te  Te86  1  0.41964560  0.39438705  0.77313376  1
  Te  Te87  1  0.42501511  0.71427255  0.11160398  1
  Te  Te88  1  0.41421099  0.73500951  0.42528994  1
  Te  Te89  1  0.41502284  0.75926591  0.74292708  1
  Te  Te90  1  0.75056007  0.08092139  0.06413707  1
  Te  Te91  1  0.75542062  0.08461724  0.40559113  1
  Te  Te92  1  0.74198985  0.05250393  0.75963766  1
  Te  Te93  1  0.77890751  0.41790937  0.10303991  1
  Te  Te94  1  0.76432176  0.41284864  0.40983312  1
  Te  Te95  1  0.72770034  0.41957230  0.74914251  1
  Te  Te96  1  0.75009071  0.75853656  0.07200898  1
  Te  Te97  1  0.77377572  0.74987672  0.42516842  1
  Te  Te98  1  0.73059422  0.75429250  0.74536629  1
  Te  Te99  1  0.08036161  0.24648517  0.26716288  1
  Te  Te100  1  0.10697070  0.24647174  0.56118482  1
  Te  Te101  1  0.11534126  0.28022123  0.92364360  1
  Te  Te102  1  0.05615299  0.56615143  0.28114522  1
  Te  Te103  1  0.09464673  0.57602660  0.59891639  1
  Te  Te104  1  0.08805093  0.57653176  0.90193499  1
  Te  Te105  1  0.10386476  0.93543793  0.24219956  1
  Te  Te106  1  0.05053650  0.93411292  0.56178933  1
  Te  Te107  1  0.08103146  0.89820176  0.91654828  1
  Te  Te108  1  0.41490551  0.24174832  0.23940277  1
  Te  Te109  1  0.41666431  0.24589247  0.58227049  1
  Te  Te110  1  0.35282996  0.25154488  0.99999856  1
  Te  Te111  1  0.41219075  0.58552177  0.22238517  1
  Te  Te112  1  0.40566937  0.58597947  0.58780101  1
  Te  Te113  1  0.40775698  0.58769540  0.91838264  1
  Te  Te114  1  0.38974347  0.89558729  0.23931997  1
  Te  Te115  1  0.41800322  0.93185068  0.60650512  1
  Te  Te116  1  0.42272739  0.91623512  0.90683396  1
  Te  Te117  1  0.74908449  0.24240996  0.23656267  1
  Te  Te118  1  0.73724891  0.26428457  0.61451586  1
  Te  Te119  1  0.75902282  0.24021384  0.91626781  1
  Te  Te120  1  0.73825488  0.57942674  0.24558152  1
  Te  Te121  1  0.77180055  0.60181930  0.57886808  1
  Te  Te122  1  0.72370092  0.55869011  0.90887698  1
  Te  Te123  1  0.75446938  0.90799004  0.25636397  1
  Te  Te124  1  0.74104235  0.93065051  0.58391370  1
  Te  Te125  1  0.73847683  0.92704403  0.87850042  1
  Te  Te126  1  0.21019901  0.25120585  0.05506597  1
  Te  Te127  1  0.24612221  0.24087677  0.41258175  1
  Te  Te128  1  0.27261551  0.22234533  0.76482856  1
  Te  Te129  1  0.23868075  0.59296657  0.07965943  1
  Te  Te130  1  0.24833486  0.57087337  0.40405349  1
  Te  Te131  1  0.27947865  0.58272371  0.72171633  1
  Te  Te132  1  0.26666235  0.93183424  0.09054760  1
  Te  Te133  1  0.24640824  0.91946080  0.43344685  1
  Te  Te134  1  0.23796678  0.92964103  0.73876011  1
  Te  Te135  1  0.57270219  0.26132972  0.05987978  1
  Te  Te136  1  0.58494509  0.24536313  0.44666028  1
  Te  Te137  1  0.56057451  0.25792992  0.76255004  1
  Te  Te138  1  0.55924910  0.61053922  0.08126083  1
  Te  Te139  1  0.57994321  0.58673738  0.42737196  1
  Te  Te140  1  0.57860557  0.57287571  0.74684549  1
  Te  Te141  1  0.57619274  0.92359164  0.08424182  1
  Te  Te142  1  0.59692045  0.92146786  0.41101547  1
  Te  Te143  1  0.62547117  0.94079653  0.77140282  1
  Te  Te144  1  0.91810039  0.23092863  0.07035388  1
  Te  Te145  1  0.93553117  0.22660326  0.43938001  1
  Te  Te146  1  0.92410069  0.25393194  0.75414680  1
  Te  Te147  1  0.92567911  0.59678439  0.07811986  1
  Te  Te148  1  0.92473449  0.59957152  0.42512664  1
  Te  Te149  1  0.92376177  0.58775990  0.76000073  1
  Te  Te150  1  0.90201783  0.90905662  0.07420601  1
  Te  Te151  1  0.95092674  0.94783396  0.39870889  1
  Te  Te152  1  0.91647965  0.94383421  0.73528045  1
  Te  Te153  1  0.24844724  0.10230082  0.24522408  1
  Te  Te154  1  0.26058255  0.06005095  0.60204337  1
  Te  Te155  1  0.26452587  0.10869096  0.88356277  1
  Te  Te156  1  0.25893679  0.43680911  0.23664057  1
  Te  Te157  1  0.23537314  0.40008051  0.57647872  1
  Te  Te158  1  0.22105624  0.39363561  0.88874126  1
  Te  Te159  1  0.22611944  0.75240530  0.24716132  1
  Te  Te160  1  0.24503306  0.75490660  0.59720054  1
  Te  Te161  1  0.26808806  0.73502666  0.93053942  1
  Te  Te162  1  0.60409748  0.07093200  0.25684953  1
  Te  Te163  1  0.58170695  0.08681319  0.60869268  1
  Te  Te164  1  0.55253371  0.10241535  0.90571308  1
  Te  Te165  1  0.58168105  0.41189253  0.25343782  1
  Te  Te166  1  0.58216443  0.40929317  0.58376615  1
  Te  Te167  1  0.57871609  0.41059737  0.91589054  1
  Te  Te168  1  0.56408302  0.74412243  0.25699347  1
  Te  Te169  1  0.55714243  0.76002881  0.58360639  1
  Te  Te170  1  0.57417634  0.77558399  0.91440448  1
  Te  Te171  1  0.94363160  0.07967827  0.23912040  1
  Te  Te172  1  0.91305591  0.10528641  0.57926685  1
  Te  Te173  1  0.92289843  0.08707004  0.90522321  1
  Te  Te174  1  0.96163245  0.45040765  0.23467253  1
  Te  Te175  1  0.92249646  0.41466929  0.58532242  1
  Te  Te176  1  0.93113243  0.39892895  0.92844498  1
  Te  Te177  1  0.94058449  0.74060526  0.25499344  1
  Te  Te178  1  0.93583743  0.78607552  0.56974353  1
  Te  Te179  1  0.88835292  0.75887645  0.91596991  1
