# generated using pymatgen
data_In2Te3
_symmetry_space_group_name_H-M   'P 1'
_cell_length_a   18.96242507
_cell_length_b   18.96608847
_cell_length_c   18.96742910
_cell_angle_alpha   90.29037784
_cell_angle_beta   89.95516510
_cell_angle_gamma   89.91620079
_symmetry_Int_Tables_number   1
_chemical_formula_structural   In2Te3
_chemical_formula_sum   'In72 Te108'
_cell_volume   6821.40667211
_cell_formula_units_Z   36
loop_
 _symmetry_equiv_pos_site_id
 _symmetry_equiv_pos_as_xyz
  1  'x, y, z'
loop_
 _atom_site_type_symbol
 _atom_site_label
 _atom_site_symmetry_multiplicity
 _atom_site_fract_x
 _atom_site_fract_y
 _atom_site_fract_z
 _atom_site_occupancy
  In  In0  1  0.50122749  0.02036433  0.16298810  1
  In  In1  1  0.33146186  0.34265107  0.34421686  1
  In  In2  1  0.16557975  0.00427919  0.49164056  1
  In  In3  1  0.47024234  0.64639865  0.49308089  1
  In  In4  1  0.34213008  0.33046030  0.66269576  1
  In  In5  1  0.18003542  0.51459333  0.37124135  1
  In  In6  1  0.14078646  0.13647074  0.01605145  1
  In  In7  1  0.18978754  0.30831267  0.17004270  1
  In  In8  1  0.67902536  0.84975016  0.83653743  1
  In  In9  1  0.65480555  0.18148266  0.15747186  1
  In  In10  1  0.50616940  0.84568057  0.34235508  1
  In  In11  1  0.31263319  0.79953859  0.50944930  1
  In  In12  1  0.51220681  0.51593994  0.66135331  1
  In  In13  1  0.30144330  0.82568231  0.17601769  1
  In  In14  1  0.83285874  0.49402175  0.29797601  1
  In  In15  1  0.84574219  0.33782602  0.83914839  1
  In  In16  1  0.47976443  0.83938613  0.66980791  1
  In  In17  1  0.83195563  0.00612656  0.16516722  1
  In  In18  1  0.19026376  0.17831925  0.65705758  1
  In  In19  1  0.67287975  0.18355450  0.85668402  1
  In  In20  1  0.17009240  0.51149051  -0.01457989  1
  In  In21  1  0.65929106  0.69390909  0.66685489  1
  In  In22  1  0.33806957  0.00054756  0.67948175  1
  In  In23  1  0.15744824  0.33244739  0.47250759  1
  In  In24  1  0.68659738  0.82428651  0.49163909  1
  In  In25  1  0.49219099  0.68073793  0.81169964  1
  In  In26  1  0.51183356  0.01784768  0.50165947  1
  In  In27  1  0.68267476  0.33272833  0.32949386  1
  In  In28  1  0.16431807  0.33362532  0.86179265  1
  In  In29  1  0.48386067  0.32034514  0.49124101  1
  In  In30  1  0.34613797  0.01915038  -0.00052971  1
  In  In31  1  -0.01062167  0.48720875  0.15388197  1
  In  In32  1  0.01343035  0.67273727  0.66630529  1
  In  In33  1  0.85641197  0.83275733  0.70426525  1
  In  In34  1  0.84655916  0.14514599  0.34095830  1
  In  In35  1  0.50459629  0.17491273  0.30906847  1
  In  In36  1  0.31152302  0.01726843  0.31116013  1
  In  In37  1  0.83373320  -0.01282527  0.49267534  1
  In  In38  1  0.49619794  0.03215551  0.84385050  1
  In  In39  1  0.13924974  0.69206440  0.84325082  1
  In  In40  1  0.14563864  0.83565296  0.31973624  1
  In  In41  1  -0.00869498  0.66516237  0.33245092  1
  In  In42  1  0.50135951  0.48848901  0.32841305  1
  In  In43  1  0.00030240  -0.01335409  0.67445236  1
  In  In44  1  0.17517970  0.65384106  0.14649051  1
  In  In45  1  0.85962061  0.51610740  0.66888600  1
  In  In46  1  0.48248225  0.84516924  0.00739357  1
  In  In47  1  -0.01162938  0.85304417  0.49659444  1
  In  In48  1  0.80370016  0.47373556  0.03509779  1
  In  In49  1  0.14767707  0.86154023  -0.00015898  1
  In  In50  1  0.33264661  0.50327321  0.82531033  1
  In  In51  1  0.85999699  0.13838570  -0.01052616  1
  In  In52  1  0.01092791  0.86563288  0.16837206  1
  In  In53  1  0.02800166  0.33082748  0.67497193  1
  In  In54  1  0.68260736  0.65931449  -0.01187125  1
  In  In55  1  0.82305853  0.66780054  0.17561128  1
  In  In56  1  0.85326032  0.31222281  0.50752720  1
  In  In57  1  0.67773977  0.31041652  0.68350414  1
  In  In58  1  0.48922109  0.65094937  0.17516968  1
  In  In59  1  0.84168868  0.14204159  0.67104380  1
  In  In60  1  0.16087459  -0.01692966  0.81839971  1
  In  In61  1  0.51318753  0.45646883  0.02303266  1
  In  In62  1  0.67281039  0.86489427  0.18162882  1
  In  In63  1  0.86299750  0.80304485  -0.02911623  1
  In  In64  1  0.64269329  0.49962322  0.48772095  1
  In  In65  1  0.16029127  0.50278876  0.66482185  1
  In  In66  1  0.82073575  0.65966211  0.48442523  1
  In  In67  1  0.30281476  0.65848411  -0.01784008  1
  In  In68  1  0.66492959  0.02086397  0.64865593  1
  In  In69  1  0.16295350  0.16433402  0.31974171  1
  In  In70  1  0.48582798  0.29735822  0.88379837  1
  In  In71  1  -0.00566876  0.31453743  0.01005194  1
  Te  Te72  1  0.06889432  0.07148859  0.12984139  1
  Te  Te73  1  0.07899020  0.06649841  0.39329059  1
  Te  Te74  1  0.09330439  0.09138113  0.73441083  1
  Te  Te75  1  0.09909188  0.40727139  0.07488657  1
  Te  Te76  1  0.06971144  0.42378420  0.39907492  1
  Te  Te77  1  0.08307731  0.42891296  0.77690784  1
  Te  Te78  1  0.08182210  0.75679730  0.08665997  1
  Te  Te79  1  0.07593893  0.75010557  0.42450185  1
  Te  Te80  1  0.05637179  0.78438983  0.75947066  1
  Te  Te81  1  0.43649371  0.11771016  0.07100530  1
  Te  Te82  1  0.42199444  0.08009309  0.39401226  1
  Te  Te83  1  0.40819413  0.10469459  0.75405453  1
  Te  Te84  1  0.44335661  0.37046340  0.11754043  1
  Te  Te85  1  0.40750133  0.43684049  0.43746247  1
  Te  Te86  1  0.43245334  0.41800471  0.74886911  1
  Te  Te87  1  0.39685123  0.74363954  0.08129023  1
  Te  Te88  1  0.40624361  0.74654698  0.39918672  1
  Te  Te89  1  0.38810123  0.74398225  0.73082349  1
  Te  Te90  1  0.74278096  0.08709115  0.07404831  1
  Te  Te91  1  0.74721942  0.08805101  0.43317722  1
  Te  Te92  1  0.74164778  0.07968723  0.76590141  1
  Te  Te93  1  0.69637524  0.40164915  0.11066965  1
  Te  Te94  1  0.75814621  0.41794219  0.43248937  1
  Te  Te95  1  0.76280264  0.41928958  0.74237286  1
  Te  Te96  1  0.74206015  0.76309291  0.08252328  1
  Te  Te97  1  0.74960216  0.74257191  0.38827330  1
  Te  Te98  1  0.76028008  0.73766173  0.77192468  1
  Te  Te99  1  0.08170528  0.27154824  0.25957063  1
  Te  Te100  1  0.08381701  0.23880173  0.56769027  1
  Te  Te101  1  0.07002541  0.22721434  0.91230078  1
  Te  Te102  1  0.07615547  0.58062177  0.23777311  1
  Te  Te103  1  0.07333426  0.57711360  0.57169106  1
  Te  Te104  1  0.06813960  0.60794278  0.94212419  1
  Te  Te105  1  0.10885221  0.95590089  0.23645244  1
  Te  Te106  1  0.09755652  0.90788679  0.58600283  1
  Te  Te107  1  0.05713822  0.95456381  0.92600312  1
  Te  Te108  1  0.42002002  0.27684246  0.24026499  1
  Te  Te109  1  0.41250396  0.23003023  0.58067245  1
  Te  Te110  1  0.38792010  0.22911067  0.96763683  1
  Te  Te111  1  0.40263905  0.57401330  0.26241402  1
  Te  Te112  1  0.39736614  0.58693267  0.60506919  1
  Te  Te113  1  0.42107598  0.59136896  0.91392680  1
  Te  Te114  1  0.41450931  0.91274145  0.23603812  1
  Te  Te115  1  0.41402414  0.91318100  0.55482826  1
  Te  Te116  1  0.40924966  0.91997462  0.89933854  1
  Te  Te117  1  0.76420668  0.23716720  0.24640625  1
  Te  Te118  1  0.75235983  0.22656780  0.58152017  1
  Te  Te119  1  0.77133669  0.25836001  0.94322479  1
  Te  Te120  1  0.72796668  0.57617967  0.23879953  1
  Te  Te121  1  0.73637580  0.58322947  0.58758694  1
  Te  Te122  1  0.76253977  0.55716442  0.92152041  1
  Te  Te123  1  0.77671602  0.91875999  0.27081665  1
  Te  Te124  1  0.75421152  0.90171153  0.60579738  1
  Te  Te125  1  0.77077772  0.91128780  0.93180203  1
  Te  Te126  1  0.24867601  0.23576209  0.05312494  1
  Te  Te127  1  0.26068036  0.23533943  0.41978897  1
  Te  Te128  1  0.25798237  0.25860368  0.76736294  1
  Te  Te129  1  0.27525777  0.55507377  0.08927820  1
  Te  Te130  1  0.25343791  0.59714623  0.46765550  1
  Te  Te131  1  0.23044365  0.59474438  0.76318653  1
  Te  Te132  1  0.25065276  0.93398042  0.08490811  1
  Te  Te133  1  0.25687474  0.90475828  0.40508194  1
  Te  Te134  1  0.24825253  0.90004307  0.73312375  1
  Te  Te135  1  0.58964269  0.29224548  0.08075540  1
  Te  Te136  1  0.59013363  0.24619421  0.41281286  1
  Te  Te137  1  0.56997369  0.24386960  0.76381033  1
  Te  Te138  1  0.57948033  0.58410965  0.07304196  1
  Te  Te139  1  0.58289212  0.60329072  0.40038245  1
  Te  Te140  1  0.60172144  0.58814723  0.75988303  1
  Te  Te141  1  0.58636187  0.93155056  0.07308573  1
  Te  Te142  1  0.60595433  0.93051086  0.41888298  1
  Te  Te143  1  0.58148269  0.92318295  0.74345972  1
  Te  Te144  1  0.93820042  0.20825442  0.09711100  1
  Te  Te145  1  0.93365889  0.24411349  0.40705278  1
  Te  Te146  1  0.92367373  0.24603094  0.74712977  1
  Te  Te147  1  0.90425255  0.58649978  0.07807692  1
  Te  Te148  1  0.91207045  0.56419446  0.41092944  1
  Te  Te149  1  0.92739992  0.60264916  0.76458792  1
  Te  Te150  1  0.90966951  0.91405373  0.06936251  1
  Te  Te151  1  0.91449243  0.91932482  0.38804344  1
  Te  Te152  1  0.90181054  0.95161624  0.78267201  1
  Te  Te153  1  0.26746490  0.12251464  0.22215024  1
  Te  Te154  1  0.26864014  0.08211876  0.56950004  1
  Te  Te155  1  0.23852403  0.07740345  0.91015048  1
  Te  Te156  1  0.23822609  0.42458330  0.26006188  1
  Te  Te157  1  0.24077080  0.40562259  0.58047668  1
  Te  Te158  1  0.27444303  0.41310946  0.93085494  1
  Te  Te159  1  0.23738881  0.72383954  0.26633898  1
  Te  Te160  1  0.20841453  0.71028153  0.56051892  1
  Te  Te161  1  0.24392052  0.77842146  0.91452083  1
  Te  Te162  1  0.60536068  0.07407819  0.25722213  1
  Te  Te163  1  0.56646489  0.11551203  0.59666448  1
  Te  Te164  1  0.59096217  0.09168747  0.93701611  1
  Te  Te165  1  0.60876183  0.42891019  0.24073183  1
  Te  Te166  1  0.58788314  0.39671608  0.58760693  1
  Te  Te167  1  0.57867317  0.40806820  0.90217367  1
  Te  Te168  1  0.57849114  0.76114471  0.23869083  1
  Te  Te169  1  0.56646126  0.75619214  0.56431423  1
  Te  Te170  1  0.57592718  0.75992309  0.91735803  1
  Te  Te171  1  0.94045545  0.09501520  0.22083740  1
  Te  Te172  1  0.93211059  0.07304843  0.57083376  1
  Te  Te173  1  0.94213764  0.06016971  0.89573596  1
  Te  Te174  1  0.89999617  0.39159262  0.21825513  1
  Te  Te175  1  0.93606880  0.41385789  0.58709539  1
  Te  Te176  1  0.92047708  0.42393550  0.93790095  1
  Te  Te177  1  0.92251179  0.76158987  0.24109985  1
  Te  Te178  1  0.90116768  0.75211836  0.57642334  1
  Te  Te179  1  0.96751146  0.74263496  0.88415192  1
