# generated using pymatgen
data_In2Te3
_symmetry_space_group_name_H-M   'P 1'
_cell_length_a   18.78714890
_cell_length_b   18.77432020
_cell_length_c   18.78931019
_cell_angle_alpha   89.97703143
_cell_angle_beta   90.08865920
_cell_angle_gamma   89.89644978
_symmetry_Int_Tables_number   1
_chemical_formula_structural   In2Te3
_chemical_formula_sum   'In72 Te108'
_cell_volume   6627.27007863
_cell_formula_units_Z   36
loop_
 _symmetry_equiv_pos_site_id
 _symmetry_equiv_pos_as_xyz
  1  'x, y, z'
loop_
 _atom_site_type_symbol
 _atom_site_label
 _atom_site_symmetry_multiplicity
 _atom_site_fract_x
 _atom_site_fract_y
 _atom_site_fract_z
 _atom_site_occupancy
  In  In0  1  -0.00272622  0.66929945  0.31527535  1
  In  In1  1  0.67876126  0.45932881  0.82009923  1
  In  In2  1  0.16274218  0.18055354  0.64917449  1
  In  In3  1  0.62992876  0.32407575  0.36945621  1
  In  In4  1  0.32717768  0.19593435  0.50403740  1
  In  In5  1  0.84283884  0.82518428  0.31982834  1
  In  In6  1  0.03368183  0.19529233  0.50122496  1
  In  In7  1  0.50100979  0.83461626  -0.00011593  1
  In  In8  1  0.84574121  0.49624906  -0.02704516  1
  In  In9  1  -0.02074773  0.16965272  0.81451291  1
  In  In10  1  0.66789657  0.00919849  -0.02830289  1
  In  In11  1  0.32421512  0.01439950  0.34892215  1
  In  In12  1  0.67200917  0.49312683  0.52775164  1
  In  In13  1  0.34051571  0.65904070  0.02406815  1
  In  In14  1  0.82496525  0.19831285  -0.01748309  1
  In  In15  1  0.49049207  0.02381767  0.52865516  1
  In  In16  1  -0.01986794  -0.00236026  0.66604252  1
  In  In17  1  0.81674417  0.01034028  0.50352707  1
  In  In18  1  0.83027509  0.15522803  0.34370604  1
  In  In19  1  0.50253084  0.00012533  0.16236771  1
  In  In20  1  0.33494677  0.65894283  0.67139949  1
  In  In21  1  0.31500587  0.01109110  0.01255077  1
  In  In22  1  0.16078140  0.31132793  0.18989000  1
  In  In23  1  0.49697027  0.66084058  0.81641171  1
  In  In24  1  0.80222571  0.63412038  0.49205981  1
  In  In25  1  0.33486637  0.20623159  0.85596991  1
  In  In26  1  0.83817159  0.66306363  0.82894616  1
  In  In27  1  0.02241055  0.01802610  0.33938493  1
  In  In28  1  0.34796259  0.15815451  0.18021306  1
  In  In29  1  0.00996851  0.83531303  0.50804510  1
  In  In30  1  0.50198871  0.47335137  0.65631512  1
  In  In31  1  0.49746235  0.68475871  0.49955537  1
  In  In32  1  0.32303547  0.49760172  0.17723516  1
  In  In33  1  0.49931064  0.65454219  0.18494220  1
  In  In34  1  0.85032335  0.49107498  0.31891057  1
  In  In35  1  0.67349007  0.03060198  0.34013549  1
  In  In36  1  0.01588043  0.51325657  0.16315796  1
  In  In37  1  0.83824124  0.83493501  0.67131629  1
  In  In38  1  -0.01184911  0.34711504  -0.00880814  1
  In  In39  1  0.49760270  0.82770035  0.33735039  1
  In  In40  1  0.50177666  0.18962728  0.68261076  1
  In  In41  1  0.71211377  0.70155577  0.01392049  1
  In  In42  1  0.17239366  -0.00396319  0.17916943  1
  In  In43  1  0.85361251  0.34000576  0.16611774  1
  In  In44  1  0.65175582  0.66524504  0.33633555  1
  In  In45  1  0.18582160  0.63072807  0.48949539  1
  In  In46  1  0.51649554  0.01660195  0.81731065  1
  In  In47  1  -0.00363220  0.65491948  0.66901516  1
  In  In48  1  0.17913471  0.84940347  0.32688451  1
  In  In49  1  -0.00466783  0.00808611  -0.00460819  1
  In  In50  1  0.14882611  0.35878761  0.81082479  1
  In  In51  1  0.17390656  0.17070181  0.00198236  1
  In  In52  1  0.66767756  0.34485849  -0.03640455  1
  In  In53  1  0.15125491  0.82152421  0.66133337  1
  In  In54  1  0.46879752  0.46483314  0.35694327  1
  In  In55  1  0.85129246  -0.01467943  0.16553654  1
  In  In56  1  0.02316319  0.45824157  0.49579114  1
  In  In57  1  0.48708426  0.33015945  0.16566137  1
  In  In58  1  0.34248071  -0.01953707  0.65968405  1
  In  In59  1  0.00192503  0.65991796  -0.01551503  1
  In  In60  1  0.33471123  0.47267173  0.83699038  1
  In  In61  1  0.66094462  0.85206267  0.52824059  1
  In  In62  1  0.15823280  0.84773099  -0.00585858  1
  In  In63  1  0.53497800  0.47211689  -0.00961210  1
  In  In64  1  0.83412108  0.32712121  0.51958705  1
  In  In65  1  0.80372381  0.16428522  0.67118833  1
  In  In66  1  0.66748780  0.85172382  0.81938814  1
  In  In67  1  0.67442654  0.51886090  0.16874632  1
  In  In68  1  0.17306821  0.66795681  0.18065190  1
  In  In69  1  0.33393818  0.82460887  0.82895122  1
  In  In70  1  0.67444121  0.18052426  0.16488658  1
  In  In71  1  0.15173875  0.64241001  0.82502185  1
  Te  Te72  1  0.08493422  0.08724990  0.09323596  1
  Te  Te73  1  0.11376081  0.09775783  0.42303738  1
  Te  Te74  1  0.08334280  0.08667084  0.74100812  1
  Te  Te75  1  0.09134061  0.40791960  0.08371783  1
  Te  Te76  1  0.12371165  0.39280819  0.40688935  1
  Te  Te77  1  0.06335892  0.41890641  0.70681187  1
  Te  Te78  1  0.08595515  0.74595060  0.08163133  1
  Te  Te79  1  0.08895169  0.74114631  0.41848006  1
  Te  Te80  1  0.06450393  0.75380612  0.76605892  1
  Te  Te81  1  0.43016687  0.09502186  0.06634405  1
  Te  Te82  1  0.42942315  0.10910549  0.41397741  1
  Te  Te83  1  0.39505938  0.09513050  0.75230412  1
  Te  Te84  1  0.41348794  0.42684940  0.07342907  1
  Te  Te85  1  0.40151367  0.38694288  0.46393327  1
  Te  Te86  1  0.38790637  0.39759297  0.71782081  1
  Te  Te87  1  0.41805588  0.76078019  0.10532858  1
  Te  Te88  1  0.39805430  0.74445668  0.40826884  1
  Te  Te89  1  0.43154332  0.76608587  0.72706217  1
  Te  Te90  1  0.76255573  0.08844195  0.08159224  1
  Te  Te91  1  0.72491741  0.12147603  0.45035023  1
  Te  Te92  1  0.74446574  0.05199829  0.74279561  1
  Te  Te93  1  0.75039071  0.41670790  0.08100926  1
  Te  Te94  1  0.75132441  0.41930705  0.41038710  1
  Te  Te95  1  0.79141426  0.38588067  0.75864124  1
  Te  Te96  1  0.79569004  0.77893279  0.10489036  1
  Te  Te97  1  0.74214394  0.76460917  0.42096612  1
  Te  Te98  1  0.74011071  0.74000387  0.74015840  1
  Te  Te99  1  0.04519145  0.26344134  0.26742348  1
  Te  Te100  1  0.07178557  0.30052690  0.60976965  1
  Te  Te101  1  0.07853634  0.24756084  0.90632199  1
  Te  Te102  1  0.10444886  0.56807151  0.27487016  1
  Te  Te103  1  0.09343596  0.56466146  0.59081730  1
  Te  Te104  1  0.07279464  0.55138675  0.91101626  1
  Te  Te105  1  0.06565417  0.90673461  0.24238477  1
  Te  Te106  1  0.09424332  0.93800711  0.57785638  1
  Te  Te107  1  0.08696942  0.93663541  0.90247933  1
  Te  Te108  1  0.40752961  0.26161472  0.26896972  1
  Te  Te109  1  0.41982917  0.27917211  0.58990596  1
  Te  Te110  1  0.43910997  0.27677868  0.92973299  1
  Te  Te111  1  0.40442872  0.58250005  0.27697073  1
  Te  Te112  1  0.41991056  0.57607853  0.57599812  1
  Te  Te113  1  0.42160923  0.57807347  0.92033754  1
  Te  Te114  1  0.40928264  0.92525993  0.25617514  1
  Te  Te115  1  0.41673202  0.90011893  0.56015910  1
  Te  Te116  1  0.41253801  0.92669626  0.91490274  1
  Te  Te117  1  0.75270810  0.26851434  0.26249769  1
  Te  Te118  1  0.71981584  0.26366395  0.59278820  1
  Te  Te119  1  0.72787720  0.23675158  0.87199805  1
  Te  Te120  1  0.76707660  0.60365616  0.25355483  1
  Te  Te121  1  0.76874425  0.56252744  0.61809660  1
  Te  Te122  1  0.72903708  0.57524293  0.91373668  1
  Te  Te123  1  0.74335754  0.92485970  0.25514588  1
  Te  Te124  1  0.73754272  0.95292299  0.62344775  1
  Te  Te125  1  0.76023438  0.90753285  0.91902554  1
  Te  Te126  1  0.26672305  0.25202501  0.08805349  1
  Te  Te127  1  0.21855431  0.26994824  0.43192941  1
  Te  Te128  1  0.25076373  0.26543584  0.74137122  1
  Te  Te129  1  0.23057839  0.56934139  0.07674261  1
  Te  Te130  1  0.27474173  0.53232566  0.42473705  1
  Te  Te131  1  0.24561932  0.55746588  0.73997670  1
  Te  Te132  1  0.25830938  0.89883463  0.09854696  1
  Te  Te133  1  0.24774042  0.92234882  0.43472505  1
  Te  Te134  1  0.23807603  0.91270699  0.75028571  1
  Te  Te135  1  0.58822443  0.26363428  0.07134024  1
  Te  Te136  1  0.54463810  0.21795794  0.41651194  1
  Te  Te137  1  0.60065177  0.25348182  0.77591337  1
  Te  Te138  1  0.58637265  0.59821900  0.07181417  1
  Te  Te139  1  0.57881432  0.56239598  0.42218085  1
  Te  Te140  1  0.58836593  0.56281808  0.74550830  1
  Te  Te141  1  0.60063941  0.91898382  0.07887343  1
  Te  Te142  1  0.58454197  0.93052026  0.41867832  1
  Te  Te143  1  0.56056733  0.90531023  0.73189318  1
  Te  Te144  1  0.93321409  0.23946860  0.08421851  1
  Te  Te145  1  0.92209841  0.25632470  0.41621302  1
  Te  Te146  1  0.90321597  0.26360319  0.72642062  1
  Te  Te147  1  0.90588315  0.58083011  0.08310477  1
  Te  Te148  1  0.93194680  0.57826777  0.42269661  1
  Te  Te149  1  0.94049580  0.56768710  0.77602549  1
  Te  Te150  1  0.91620088  0.89850846  0.06328545  1
  Te  Te151  1  0.91480460  0.92684956  0.41788062  1
  Te  Te152  1  0.91895830  0.91081929  0.76818834  1
  Te  Te153  1  0.23241614  0.10588119  0.26598310  1
  Te  Te154  1  0.25795826  0.08305077  0.57892795  1
  Te  Te155  1  0.24409264  0.08254410  0.89986111  1
  Te  Te156  1  0.25468745  0.39986419  0.26575879  1
  Te  Te157  1  0.24758010  0.41076110  0.51550747  1
  Te  Te158  1  0.23619910  0.40322145  0.92132193  1
  Te  Te159  1  0.26456431  0.74366419  0.26795390  1
  Te  Te160  1  0.24988270  0.74312361  0.57593525  1
  Te  Te161  1  0.25003862  0.73215724  0.91696950  1
  Te  Te162  1  0.57364038  0.10402840  0.25011686  1
  Te  Te163  1  0.59081698  0.09384270  0.61024695  1
  Te  Te164  1  0.57949914  0.11103069  0.91147169  1
  Te  Te165  1  0.58363752  0.42686378  0.24881582  1
  Te  Te166  1  0.60138212  0.37850900  0.59338728  1
  Te  Te167  1  0.53956910  0.37399912  0.86161254  1
  Te  Te168  1  0.59468820  0.76400933  0.23503241  1
  Te  Te169  1  0.60728199  0.72847560  0.58770999  1
  Te  Te170  1  0.58596509  0.74376932  0.91135031  1
  Te  Te171  1  0.92748531  0.09173872  0.24435708  1
  Te  Te172  1  0.92231043  0.10285492  0.56876133  1
  Te  Te173  1  0.89378203  0.08420717  0.90616389  1
  Te  Te174  1  0.96081537  0.39680258  0.26333892  1
  Te  Te175  1  0.90014946  0.44609615  0.58077322  1
  Te  Te176  1  0.89154246  0.38638760  0.88031744  1
  Te  Te177  1  0.91910174  0.74943991  0.21517274  1
  Te  Te178  1  0.90558460  0.74212924  0.56914135  1
  Te  Te179  1  0.90941095  0.75568234  0.91942943  1
