# generated using pymatgen
data_In2Te3
_symmetry_space_group_name_H-M   'P 1'
_cell_length_a   18.80951776
_cell_length_b   18.80605139
_cell_length_c   18.81302435
_cell_angle_alpha   90.09400409
_cell_angle_beta   90.03347983
_cell_angle_gamma   90.02692313
_symmetry_Int_Tables_number   1
_chemical_formula_structural   In2Te3
_chemical_formula_sum   'In72 Te108'
_cell_volume   6654.77215131
_cell_formula_units_Z   36
loop_
 _symmetry_equiv_pos_site_id
 _symmetry_equiv_pos_as_xyz
  1  'x, y, z'
loop_
 _atom_site_type_symbol
 _atom_site_label
 _atom_site_symmetry_multiplicity
 _atom_site_fract_x
 _atom_site_fract_y
 _atom_site_fract_z
 _atom_site_occupancy
  In  In0  1  0.65291713  0.30906184  -0.00174524  1
  In  In1  1  0.81611237  0.32447456  0.81855769  1
  In  In2  1  0.50129297  0.49790959  0.32300342  1
  In  In3  1  0.33272836  0.33176074  0.01818779  1
  In  In4  1  0.01001635  0.85057825  0.82446085  1
  In  In5  1  0.68020475  0.86686708  0.20230273  1
  In  In6  1  0.15312706  -0.00801035  0.15914693  1
  In  In7  1  0.48882016  0.16684699  0.02908056  1
  In  In8  1  0.34096514  0.50745400  0.82108405  1
  In  In9  1  -0.00852092  0.67831290  0.66532563  1
  In  In10  1  0.66732781  0.65015088  0.65902183  1
  In  In11  1  0.32756429  0.00101810  0.01877240  1
  In  In12  1  -0.00023736  0.50116063  0.14662974  1
  In  In13  1  -0.01309446  0.52636453  0.83114387  1
  In  In14  1  0.54710756  0.03532296  0.50562480  1
  In  In15  1  0.48453182  0.66729855  0.50409256  1
  In  In16  1  0.32643128  0.16166567  0.50318189  1
  In  In17  1  0.32704406  0.14248262  0.82212575  1
  In  In18  1  0.50670812  0.83852279  0.68492934  1
  In  In19  1  0.68616153  0.45733638  0.83291265  1
  In  In20  1  0.00182477  0.01753783  0.00136138  1
  In  In21  1  0.17768206  0.30919235  0.82396367  1
  In  In22  1  0.00921500  -0.00781428  0.65202021  1
  In  In23  1  0.33822792  0.68083473  0.01105671  1
  In  In24  1  0.50532245  0.48134748  0.66162467  1
  In  In25  1  0.67566515  0.15866658  0.82378216  1
  In  In26  1  -0.00759586  0.17494084  0.82632257  1
  In  In27  1  0.66878543  0.65866489  0.01978240  1
  In  In28  1  0.33056274  0.68985332  0.34009544  1
  In  In29  1  0.85499749  0.66935474  0.81190118  1
  In  In30  1  0.67318040  0.86372588  0.48365388  1
  In  In31  1  -0.01509137  0.49214727  0.51165507  1
  In  In32  1  0.83049833  0.85079021  0.64875652  1
  In  In33  1  0.68793258  0.02426640  0.02672603  1
  In  In34  1  0.16924693  0.50709249  0.66640888  1
  In  In35  1  0.51598514  0.00282640  0.80941595  1
  In  In36  1  0.81912207  0.30275518  0.18049179  1
  In  In37  1  0.15313821  0.15713049  0.33362025  1
  In  In38  1  -0.00625762  0.33403502  0.02562539  1
  In  In39  1  0.82213259  0.84712288  -0.00248292  1
  In  In40  1  0.47354658  0.66349755  0.83489771  1
  In  In41  1  -0.00785209  0.32332034  0.66923873  1
  In  In42  1  0.84301495  0.50914921  0.00551893  1
  In  In43  1  0.16510196  0.84809924  0.64176729  1
  In  In44  1  0.82710165  0.50887063  0.33768295  1
  In  In45  1  0.33449135  0.82598719  0.84344820  1
  In  In46  1  -0.00285820  0.30742929  0.33509135  1
  In  In47  1  0.66842809  0.31877431  0.35378200  1
  In  In48  1  0.35611171  -0.03903941  0.32625178  1
  In  In49  1  0.31932306  0.50293320  0.49081782  1
  In  In50  1  0.16627272  0.33656211  0.49328950  1
  In  In51  1  0.68372748  0.50037787  0.51418808  1
  In  In52  1  0.34187488  0.48045373  0.16892300  1
  In  In53  1  0.17922692  0.67472355  0.18503112  1
  In  In54  1  0.65625086  0.50568514  0.16271700  1
  In  In55  1  0.00559869  0.64542762  0.00859502  1
  In  In56  1  -0.00554159  0.83317007  0.18295392  1
  In  In57  1  0.51818551  0.33201954  0.84157408  1
  In  In58  1  -0.04079070  0.00559053  0.35132446  1
  In  In59  1  0.66418899  0.86139977  0.84408379  1
  In  In60  1  -0.02755657  0.16808585  0.50419511  1
  In  In61  1  0.01507233  0.71169951  0.35997209  1
  In  In62  1  0.51535273  0.14114959  0.30024457  1
  In  In63  1  0.18628906  0.50533824  0.31058115  1
  In  In64  1  0.49302851  0.33068073  0.49633901  1
  In  In65  1  0.66121594  0.70028750  0.33678962  1
  In  In66  1  0.49569312  0.82277496  0.01967431  1
  In  In67  1  0.13653080  0.48885809  0.00201792  1
  In  In68  1  0.34227567  0.01137919  0.64879422  1
  In  In69  1  0.33112342  0.83278779  0.50131933  1
  In  In70  1  0.15473851  0.00413346  0.84135491  1
  In  In71  1  0.33681362  0.17394394  0.17507923  1
  Te  Te72  1  0.07737734  0.10377469  0.09708899  1
  Te  Te73  1  0.07131248  0.07452922  0.43128459  1
  Te  Te74  1  0.08758001  0.09219422  0.73768624  1
  Te  Te75  1  0.10289179  0.39220002  0.11567700  1
  Te  Te76  1  0.07962386  0.42318631  0.40023108  1
  Te  Te77  1  0.07820526  0.41776108  0.75628875  1
  Te  Te78  1  0.08304977  0.74783137  0.09051079  1
  Te  Te79  1  0.11053797  0.79724005  0.43288882  1
  Te  Te80  1  0.09666899  0.75554950  0.74562462  1
  Te  Te81  1  0.42714143  0.05912240  0.11721275  1
  Te  Te82  1  0.41891566  0.07568178  0.41334044  1
  Te  Te83  1  0.44008058  0.10298837  0.72457918  1
  Te  Te84  1  0.43914154  0.40012896  0.09198981  1
  Te  Te85  1  0.40285905  0.41231533  0.40198646  1
  Te  Te86  1  0.41376303  0.39549836  0.74791414  1
  Te  Te87  1  0.39138516  0.77478816  0.11791200  1
  Te  Te88  1  0.44046856  0.77309832  0.40769531  1
  Te  Te89  1  0.39777325  0.74363360  0.72900081  1
  Te  Te90  1  0.79030579  0.08294186  0.11554375  1
  Te  Te91  1  0.76286426  0.12689764  0.41541116  1
  Te  Te92  1  0.72657999  0.07058284  0.71656197  1
  Te  Te93  1  0.75414983  0.41179445  0.08068315  1
  Te  Te94  1  0.76920101  0.40354899  0.43128703  1
  Te  Te95  1  0.76374268  0.41799109  0.71500641  1
  Te  Te96  1  0.74441590  0.76489255  0.09786962  1
  Te  Te97  1  0.76993384  0.76734964  0.41693097  1
  Te  Te98  1  0.74540091  0.75836781  0.75229411  1
  Te  Te99  1  0.06019093  0.21883294  0.23436179  1
  Te  Te100  1  0.08619818  0.24122433  0.57995149  1
  Te  Te101  1  0.08029961  0.25158199  0.92465046  1
  Te  Te102  1  0.06525386  0.59227344  0.25198451  1
  Te  Te103  1  0.08175857  0.59166850  0.57467568  1
  Te  Te104  1  0.10135856  0.59818777  0.89908452  1
  Te  Te105  1  0.07186347  0.92892398  0.27062183  1
  Te  Te106  1  0.05105229  0.88809647  0.54757333  1
  Te  Te107  1  0.09189386  0.90698788  0.93950846  1
  Te  Te108  1  0.43177046  0.25369329  0.25495907  1
  Te  Te109  1  0.41178305  0.24882125  0.58880738  1
  Te  Te110  1  0.41643143  0.23914245  0.91231103  1
  Te  Te111  1  0.40960451  0.59376242  0.24897112  1
  Te  Te112  1  0.40603522  0.57667435  0.59480054  1
  Te  Te113  1  0.41713934  0.56955505  0.93932574  1
  Te  Te114  1  0.43564957  0.87559438  0.23472939  1
  Te  Te115  1  0.44406830  0.92437935  0.57367679  1
  Te  Te116  1  0.42816970  0.92348125  0.91541640  1
  Te  Te117  1  0.73780465  0.21328137  0.27008153  1
  Te  Te118  1  0.72573283  0.20538434  0.53297592  1
  Te  Te119  1  0.76296495  0.23193487  0.92779287  1
  Te  Te120  1  0.74038651  0.59838934  0.25091050  1
  Te  Te121  1  0.77086932  0.60851137  0.56348696  1
  Te  Te122  1  0.75613468  0.58767088  0.90622207  1
  Te  Te123  1  0.77088309  0.97265827  0.26044257  1
  Te  Te124  1  0.77392713  0.95284399  0.55208902  1
  Te  Te125  1  0.76352753  0.95563803  0.90772381  1
  Te  Te126  1  0.24301434  0.23148282  0.07561345  1
  Te  Te127  1  0.25282127  0.25188327  0.40150755  1
  Te  Te128  1  0.25164141  0.22732105  0.72781237  1
  Te  Te129  1  0.24023064  0.57107422  0.08379312  1
  Te  Te130  1  0.23061624  0.60277533  0.41885185  1
  Te  Te131  1  0.24904077  0.59796798  0.75140946  1
  Te  Te132  1  0.24464535  0.90000236  0.08615064  1
  Te  Te133  1  0.24450562  0.92005007  0.41704274  1
  Te  Te134  1  0.25703615  0.92782319  0.75428691  1
  Te  Te135  1  0.60208574  0.22252842  0.10515525  1
  Te  Te136  1  0.57142290  0.22336079  0.42149178  1
  Te  Te137  1  0.60769150  0.26486713  0.74547860  1
  Te  Te138  1  0.56102177  0.59909881  0.09883984  1
  Te  Te139  1  0.58796783  0.57970418  0.42176688  1
  Te  Te140  1  0.58047778  0.57333299  0.76031452  1
  Te  Te141  1  0.59266863  0.92135122  0.08456390  1
  Te  Te142  1  0.58434479  0.94291826  0.39080761  1
  Te  Te143  1  0.62134714  0.93714422  0.71585894  1
  Te  Te144  1  0.90228885  0.23180231  0.07976579  1
  Te  Te145  1  0.88553094  0.22435222  0.39281385  1
  Te  Te146  1  0.88849871  0.22536884  0.72574913  1
  Te  Te147  1  0.89463085  0.60944000  0.10702186  1
  Te  Te148  1  0.92505588  0.59492170  0.41611678  1
  Te  Te149  1  0.89926958  0.56196603  0.71272386  1
  Te  Te150  1  0.91508847  0.92422444  0.08968887  1
  Te  Te151  1  0.87750210  0.88664039  0.39416687  1
  Te  Te152  1  0.90817181  0.93459018  0.75375428  1
  Te  Te153  1  0.25616092  0.06894840  0.25716770  1
  Te  Te154  1  0.23356445  0.06233752  0.56415369  1
  Te  Te155  1  0.23749935  0.09233670  0.93530782  1
  Te  Te156  1  0.25233615  0.39118173  0.24708924  1
  Te  Te157  1  0.25842129  0.40680277  0.59284149  1
  Te  Te158  1  0.24546181  0.41722291  0.91310722  1
  Te  Te159  1  0.23419766  0.77959629  0.27271182  1
  Te  Te160  1  0.24989590  0.74179039  0.58381159  1
  Te  Te161  1  0.24042915  0.75245588  0.92825115  1
  Te  Te162  1  0.61740745  0.03655792  0.26434274  1
  Te  Te163  1  0.61993948  0.11835015  0.61042833  1
  Te  Te164  1  0.57727887  0.08370884  0.92528668  1
  Te  Te165  1  0.58816782  0.39865708  0.24757072  1
  Te  Te166  1  0.60233647  0.39309799  0.58585794  1
  Te  Te167  1  0.58134897  0.43123352  0.93967519  1
  Te  Te168  1  0.57087062  0.77026447  0.24110902  1
  Te  Te169  1  0.59209798  0.75771818  0.57618618  1
  Te  Te170  1  0.58117896  0.74848270  0.90876241  1
  Te  Te171  1  0.89095082  0.07352148  0.23687011  1
  Te  Te172  1  0.89840597  0.05767316  0.57384406  1
  Te  Te173  1  0.90950629  0.08274242  0.90566858  1
  Te  Te174  1  0.91142307  0.41573167  0.24715392  1
  Te  Te175  1  0.90567097  0.37896558  0.56204280  1
  Te  Te176  1  0.91787339  0.41080764  0.90800991  1
  Te  Te177  1  0.89942564  0.76897835  0.28069052  1
  Te  Te178  1  0.92484874  0.76893429  0.56845039  1
  Te  Te179  1  0.92213417  0.75222761  0.92226876  1
