# generated using pymatgen
data_In2Te3
_symmetry_space_group_name_H-M   'P 1'
_cell_length_a   19.07525826
_cell_length_b   19.12068754
_cell_length_c   19.05537975
_cell_angle_alpha   89.81063621
_cell_angle_beta   90.03572486
_cell_angle_gamma   89.72412171
_symmetry_Int_Tables_number   1
_chemical_formula_structural   In2Te3
_chemical_formula_sum   'In72 Te108'
_cell_volume   6949.98783002
_cell_formula_units_Z   36
loop_
 _symmetry_equiv_pos_site_id
 _symmetry_equiv_pos_as_xyz
  1  'x, y, z'
loop_
 _atom_site_type_symbol
 _atom_site_label
 _atom_site_symmetry_multiplicity
 _atom_site_fract_x
 _atom_site_fract_y
 _atom_site_fract_z
 _atom_site_occupancy
  In  In0  1  -0.00404322  0.81237105  0.14246688  1
  In  In1  1  0.33581044  0.68483563  0.67207591  1
  In  In2  1  0.66278136  0.18485192  0.16938395  1
  In  In3  1  0.84519196  -0.02175135  0.51290026  1
  In  In4  1  0.82232315  0.17920277  -0.00325602  1
  In  In5  1  0.65509668  0.16174630  0.83207169  1
  In  In6  1  0.33781705  -0.00744436  0.68482409  1
  In  In7  1  0.33935407  0.48855923  0.50585488  1
  In  In8  1  0.51511175  0.01943579  0.50806224  1
  In  In9  1  0.43003588  0.77176121  0.51740321  1
  In  In10  1  0.16090687  0.84066303  -0.01122157  1
  In  In11  1  0.33360424  -0.01941782  0.32017483  1
  In  In12  1  0.36155394  0.81526203  0.16045453  1
  In  In13  1  0.16052823  0.49518848  -0.00207490  1
  In  In14  1  0.38112012  0.00312710  0.00054006  1
  In  In15  1  0.83221832  0.31906061  0.80997137  1
  In  In16  1  0.83075233  0.60944531  0.17859302  1
  In  In17  1  0.14966458  0.68286277  0.81125502  1
  In  In18  1  0.82801008  0.82746404  0.32626793  1
  In  In19  1  0.17797471  0.66813260  0.18011844  1
  In  In20  1  0.15433763  0.17665139  0.67425864  1
  In  In21  1  0.85305502  0.18729675  0.35456596  1
  In  In22  1  -0.03097517  0.01976550  0.01354457  1
  In  In23  1  0.51361384  0.50143039  0.34231374  1
  In  In24  1  0.83073910  0.49173002  0.00367971  1
  In  In25  1  0.16244109  0.35493280  0.16472449  1
  In  In26  1  0.02948146  0.47775585  0.79038319  1
  In  In27  1  0.81333236  0.01194907  0.83906048  1
  In  In28  1  0.18438231  0.19836937  0.33563391  1
  In  In29  1  -0.00768343  0.32251031  -0.01932146  1
  In  In30  1  0.51685113  0.63121121  0.19419161  1
  In  In31  1  0.35139368  0.32191382  0.65175154  1
  In  In32  1  0.50795810  0.16120713  0.01779466  1
  In  In33  1  0.51668697  0.85735400  0.67147231  1
  In  In34  1  0.82372638  0.02906441  0.19917880  1
  In  In35  1  0.69464880  0.17846622  0.51714928  1
  In  In36  1  0.84624542  0.64171932  0.51094730  1
  In  In37  1  0.48429660  0.16755539  0.33127811  1
  In  In38  1  0.84449631  0.49696677  0.67906788  1
  In  In39  1  -0.01632604  0.37626713  0.33114683  1
  In  In40  1  0.66582626  0.49520479  0.50773888  1
  In  In41  1  0.67604485  0.34088787  0.34567060  1
  In  In42  1  0.65622112  0.82227520  0.49362721  1
  In  In43  1  0.68511454  0.65867467  0.00376143  1
  In  In44  1  0.51281398  0.49088266  0.66280563  1
  In  In45  1  0.04162080  0.46485540  0.56280289  1
  In  In46  1  0.53791264  0.83095046  0.14378123  1
  In  In47  1  0.47727650  0.50938956  -0.01930009  1
  In  In48  1  0.83511875  0.81177627  -0.00448252  1
  In  In49  1  0.18594088  0.84363233  0.64371686  1
  In  In50  1  0.16472770  0.01542213  0.14243608  1
  In  In51  1  -0.01197469  0.05866915  0.67657749  1
  In  In52  1  0.28407857  0.49438660  0.78927718  1
  In  In53  1  -0.02149003  0.84976737  0.82860446  1
  In  In54  1  0.17615285  0.49729515  0.35080559  1
  In  In55  1  0.16300823  0.02709594  0.50003140  1
  In  In56  1  0.01466186  0.83039981  0.49001769  1
  In  In57  1  0.66251375  0.85039195  0.82742012  1
  In  In58  1  0.16491797  0.17614499  -0.02690855  1
  In  In59  1  0.67393854  0.49080303  0.83020003  1
  In  In60  1  0.32517516  0.34683746  -0.00595305  1
  In  In61  1  0.48549022  0.67427115  0.84999554  1
  In  In62  1  0.31065579  0.67340032  0.00282993  1
  In  In63  1  0.03035976  0.02989820  0.33540419  1
  In  In64  1  0.67980767  0.46347892  0.16855984  1
  In  In65  1  0.00263744  0.63425260  0.35072078  1
  In  In66  1  0.16291439  0.82872951  0.31440539  1
  In  In67  1  0.80354748  0.83411260  0.66125144  1
  In  In68  1  0.33487858  0.13981673  0.83794461  1
  In  In69  1  0.65534965  0.01973246  0.32993907  1
  In  In70  1  0.34606132  0.33337888  0.36554177  1
  In  In71  1  0.51727957  0.32531524  0.83402908  1
  Te  Te72  1  0.06896013  0.11084267  0.07887946  1
  Te  Te73  1  0.08144305  0.13349569  0.43021810  1
  Te  Te74  1  0.09374720  0.08376867  0.77033196  1
  Te  Te75  1  0.05802517  0.42146266  0.07886748  1
  Te  Te76  1  0.09408220  0.40351332  0.43375655  1
  Te  Te77  1  0.10602548  0.39810759  0.69006264  1
  Te  Te78  1  0.09472981  0.72904532  0.06687944  1
  Te  Te79  1  0.09857758  0.73208062  0.41361063  1
  Te  Te80  1  0.07209593  0.78354926  0.73052178  1
  Te  Te81  1  0.40152898  0.10434365  0.10106766  1
  Te  Te82  1  0.40431990  0.07194777  0.41660330  1
  Te  Te83  1  0.43629569  0.06093464  0.76789642  1
  Te  Te84  1  0.40896432  0.42946608  0.07963179  1
  Te  Te85  1  0.45166596  0.40728781  0.44417474  1
  Te  Te86  1  0.41629929  0.42012709  0.76314680  1
  Te  Te87  1  0.43536088  0.71485384  0.07485032  1
  Te  Te88  1  0.48804410  0.71516498  0.39656774  1
  Te  Te89  1  0.42090798  0.77421960  0.75736037  1
  Te  Te90  1  0.74332090  0.08554262  0.08501336  1
  Te  Te91  1  0.76431789  0.07513502  0.41690300  1
  Te  Te92  1  0.74996769  0.09620686  0.73425610  1
  Te  Te93  1  0.77455137  0.38571195  0.08681225  1
  Te  Te94  1  0.75979827  0.39307839  0.45475164  1
  Te  Te95  1  0.73379721  0.39978843  0.72774471  1
  Te  Te96  1  0.76711088  0.73403154  0.10376944  1
  Te  Te97  1  0.75876560  0.73676115  0.42302495  1
  Te  Te98  1  0.74515912  0.74940385  0.76172520  1
  Te  Te99  1  0.07825451  0.27550573  0.26050992  1
  Te  Te100  1  0.04014416  0.26427448  0.63171596  1
  Te  Te101  1  0.08040616  0.25621414  0.88574579  1
  Te  Te102  1  0.08816191  0.56728234  0.24671015  1
  Te  Te103  1  0.04868181  0.60446053  0.60048918  1
  Te  Te104  1  0.08397615  0.57611848  0.89538774  1
  Te  Te105  1  0.07476598  0.91994796  0.23049326  1
  Te  Te106  1  0.07204052  0.93691593  0.57986185  1
  Te  Te107  1  0.05870129  0.93187625  0.92721534  1
  Te  Te108  1  0.39427381  0.25251583  0.25429313  1
  Te  Te109  1  0.39460017  0.24858544  0.53378235  1
  Te  Te110  1  0.41307016  0.25048348  0.91552450  1
  Te  Te111  1  0.40761305  0.57485174  0.27117299  1
  Te  Te112  1  0.41905820  0.58562254  0.59268864  1
  Te  Te113  1  0.36684698  0.58028422  0.89034011  1
  Te  Te114  1  0.44202131  0.91069732  0.24355004  1
  Te  Te115  1  0.41335689  0.91584202  0.56818456  1
  Te  Te116  1  0.42961344  0.88434726  0.93604387  1
  Te  Te117  1  0.76440436  0.25799008  0.25508161  1
  Te  Te118  1  0.79949883  0.19483740  0.62251288  1
  Te  Te119  1  0.73379897  0.26475772  0.91018879  1
  Te  Te120  1  0.73672263  0.55037482  0.27416523  1
  Te  Te121  1  0.74453531  0.58404151  0.60509128  1
  Te  Te122  1  0.76686447  0.58461405  0.90089815  1
  Te  Te123  1  0.73437726  0.91697086  0.24854463  1
  Te  Te124  1  0.72046255  0.93079992  0.58005137  1
  Te  Te125  1  0.74729747  0.91837286  0.93633390  1
  Te  Te126  1  0.23821073  0.25714323  0.07900859  1
  Te  Te127  1  0.26386584  0.24643778  0.45570288  1
  Te  Te128  1  0.26789700  0.24301379  0.75066741  1
  Te  Te129  1  0.25243067  0.56768301  0.09260355  1
  Te  Te130  1  0.27028788  0.58410962  0.41873056  1
  Te  Te131  1  0.21512784  0.59809912  0.70399594  1
  Te  Te132  1  0.24737613  0.89792185  0.09715264  1
  Te  Te133  1  0.23009313  0.92123316  0.41305394  1
  Te  Te134  1  0.24355417  0.91037909  0.75816153  1
  Te  Te135  1  0.57683304  0.26831604  0.08733837  1
  Te  Te136  1  0.59710873  0.23031739  0.41044444  1
  Te  Te137  1  0.57427181  0.23771077  0.73353052  1
  Te  Te138  1  0.59741957  0.56140469  0.07790514  1
  Te  Te139  1  0.58139164  0.59817302  0.43398968  1
  Te  Te140  1  0.57384107  0.58414126  0.76532967  1
  Te  Te141  1  0.52291672  0.93681254  0.03768984  1
  Te  Te142  1  0.57586095  0.92079284  0.41058290  1
  Te  Te143  1  0.58656814  0.95350443  0.75433733  1
  Te  Te144  1  0.90316339  0.26578415  0.08318723  1
  Te  Te145  1  0.90424638  0.29992804  0.43276922  1
  Te  Te146  1  0.92106860  0.23431383  0.72634652  1
  Te  Te147  1  0.92322312  0.57961240  0.07266974  1
  Te  Te148  1  0.90367976  0.54430192  0.41414357  1
  Te  Te149  1  0.95688694  0.59168384  0.71855685  1
  Te  Te150  1  0.89923543  0.92439355  0.10825041  1
  Te  Te151  1  0.93164561  0.92375899  0.39140814  1
  Te  Te152  1  0.89924822  0.93881844  0.73101229  1
  Te  Te153  1  0.24015500  0.08163594  0.25441415  1
  Te  Te154  1  0.25573204  0.08771672  0.59968958  1
  Te  Te155  1  0.25098103  0.05985713  0.93241444  1
  Te  Te156  1  0.26142902  0.41187762  0.26114740  1
  Te  Te157  1  0.24841766  0.41357855  0.59570941  1
  Te  Te158  1  0.22457170  0.40496293  0.89535364  1
  Te  Te159  1  0.27702078  0.74298702  0.26530515  1
  Te  Te160  1  0.27554597  0.76056955  0.55622728  1
  Te  Te161  1  0.24841221  0.76096827  0.89592807  1
  Te  Te162  1  0.56582901  0.08539730  0.23073798  1
  Te  Te163  1  0.57806227  0.12323102  0.58859313  1
  Te  Te164  1  0.58552913  0.07511893  0.92824002  1
  Te  Te165  1  0.57233460  0.39667446  0.25017066  1
  Te  Te166  1  0.57987846  0.39636083  0.57584956  1
  Te  Te167  1  0.58689322  0.41834467  0.92949614  1
  Te  Te168  1  0.59543345  0.74284272  0.24554130  1
  Te  Te169  1  0.57072056  0.74552105  0.58943825  1
  Te  Te170  1  0.59500248  0.74795223  0.92195196  1
  Te  Te171  1  0.93727843  0.11279214  0.24963104  1
  Te  Te172  1  0.92046774  0.09823108  0.55154601  1
  Te  Te173  1  0.91336547  0.10460588  0.90176558  1
  Te  Te174  1  0.88322800  0.46843626  0.27035625  1
  Te  Te175  1  0.91220528  0.40174616  0.59179881  1
  Te  Te176  1  0.91785068  0.42311505  0.88351672  1
  Te  Te177  1  0.93348888  0.73998945  0.26006272  1
  Te  Te178  1  0.90871712  0.76392693  0.57432473  1
  Te  Te179  1  0.92882361  0.74171271  0.91194316  1
