# generated using pymatgen
data_In2Te3
_symmetry_space_group_name_H-M   'P 1'
_cell_length_a   18.76038693
_cell_length_b   18.76917609
_cell_length_c   18.76641944
_cell_angle_alpha   89.97150473
_cell_angle_beta   90.00842077
_cell_angle_gamma   90.01772129
_symmetry_Int_Tables_number   1
_chemical_formula_structural   In2Te3
_chemical_formula_sum   'In72 Te108'
_cell_volume   6607.97421850
_cell_formula_units_Z   36
loop_
 _symmetry_equiv_pos_site_id
 _symmetry_equiv_pos_as_xyz
  1  'x, y, z'
loop_
 _atom_site_type_symbol
 _atom_site_label
 _atom_site_symmetry_multiplicity
 _atom_site_fract_x
 _atom_site_fract_y
 _atom_site_fract_z
 _atom_site_occupancy
  In  In0  1  0.82801474  0.34181172  0.84072134  1
  In  In1  1  0.16962926  0.66919662  0.16707230  1
  In  In2  1  0.68840099  0.30645863  0.01610576  1
  In  In3  1  0.84330723  0.33252525  0.49896965  1
  In  In4  1  -0.00717218  0.83384656  0.82969778  1
  In  In5  1  0.51325055  0.67323762  0.81419634  1
  In  In6  1  0.48825872  0.84962819  0.67379877  1
  In  In7  1  0.18600229  0.49402038  0.34813905  1
  In  In8  1  -0.04652040  0.02484369  0.01206762  1
  In  In9  1  0.52016721  0.17486125  0.66055040  1
  In  In10  1  0.48678555  0.67152150  0.52131020  1
  In  In11  1  -0.03373159  0.31397479  0.30946473  1
  In  In12  1  0.32693418  0.32840358  0.68902565  1
  In  In13  1  0.82763312  0.83856056  0.32931483  1
  In  In14  1  0.52442543  0.02136644  0.16367707  1
  In  In15  1  0.34566498  0.48784156  0.16346491  1
  In  In16  1  0.83155526  0.66619843  0.16510619  1
  In  In17  1  0.15715735  0.33670536  0.49595370  1
  In  In18  1  -0.02063049  0.82440387  0.49769341  1
  In  In19  1  0.17058732  0.81865624  0.67759071  1
  In  In20  1  0.34187170  0.16536830  0.15285827  1
  In  In21  1  0.14299565  0.47906826  -0.00730410  1
  In  In22  1  0.14723449  0.51586047  0.68032642  1
  In  In23  1  0.51167699  0.33396812  0.83981718  1
  In  In24  1  0.68086431  0.66269461  -0.00814156  1
  In  In25  1  0.14761667  0.18024828  0.31010975  1
  In  In26  1  0.70456888  0.03092367  0.32107992  1
  In  In27  1  -0.01489272  0.48551567  0.16126929  1
  In  In28  1  0.51272249  0.17159723  0.00284638  1
  In  In29  1  0.67541092  0.84332005  0.48133667  1
  In  In30  1  0.33978451  0.14592101  0.50403873  1
  In  In31  1  0.50367106  0.65941984  0.20270856  1
  In  In32  1  0.14878011  -0.01024915  0.15903864  1
  In  In33  1  -0.01757514  0.87498224  0.16534011  1
  In  In34  1  -0.01362588  0.49750113  0.51511772  1
  In  In35  1  -0.00975708  0.49365689  0.83420179  1
  In  In36  1  0.49654753  0.84656474  -0.00229923  1
  In  In37  1  0.16882120  0.00143573  0.50306016  1
  In  In38  1  0.49763618  -0.00862769  0.84493095  1
  In  In39  1  -0.02688713  0.01576306  0.29558890  1
  In  In40  1  0.82203946  0.17600642  0.67002605  1
  In  In41  1  0.17512027  0.18219491  0.64391268  1
  In  In42  1  0.67114252  0.67998169  0.33901948  1
  In  In43  1  -0.02384105  -0.00385278  0.68617521  1
  In  In44  1  0.83863015  0.66140403  0.83266588  1
  In  In45  1  -0.00031376  0.65631504  -0.01711906  1
  In  In46  1  0.31704069  0.82927753  0.16640437  1
  In  In47  1  0.69106708  0.30984910  0.31197724  1
  In  In48  1  0.34837883  0.00104806  0.34690910  1
  In  In49  1  0.50263771  0.47601158  0.00528562  1
  In  In50  1  -0.00398380  0.17174906  0.84842464  1
  In  In51  1  0.70522983  0.01489669  0.00038188  1
  In  In52  1  0.52860236  0.33124249  0.48110092  1
  In  In53  1  0.16442320  0.17655839  -0.00410147  1
  In  In54  1  0.16345415  0.82809264  -0.01161345  1
  In  In55  1  0.33655166  0.52486366  0.50871995  1
  In  In56  1  0.68096009  0.49290914  0.52243101  1
  In  In57  1  0.31175385  0.49898250  0.84075323  1
  In  In58  1  0.50953444  0.49930613  0.32245812  1
  In  In59  1  0.33617829  0.33123635  0.30919058  1
  In  In60  1  0.68289735  0.47419320  0.15427305  1
  In  In61  1  0.66533800  0.00278770  0.66428588  1
  In  In62  1  0.51720831  0.83166427  0.33798017  1
  In  In63  1  0.16680952  -0.01725709  0.82456816  1
  In  In64  1  0.33885889  0.16563564  0.82720739  1
  In  In65  1  0.00255620  0.65272276  0.36311697  1
  In  In66  1  0.84146163  0.82747305  0.66806906  1
  In  In67  1  0.67735045  0.34330570  0.67597239  1
  In  In68  1  -0.00553928  0.18349972  0.50157232  1
  In  In69  1  0.67597570  0.65138006  0.67256798  1
  In  In70  1  0.34020385  0.83587227  0.52236454  1
  In  In71  1  0.32322138  0.68029520  -0.01842001  1
  Te  Te72  1  0.06792280  0.09497757  0.08672820  1
  Te  Te73  1  0.07637288  0.08623414  0.41277066  1
  Te  Te74  1  0.08308140  0.09250254  0.74103990  1
  Te  Te75  1  0.05528962  0.38661425  0.07232752  1
  Te  Te76  1  0.06627839  0.40599009  0.39565595  1
  Te  Te77  1  0.09157215  0.40951544  0.76501569  1
  Te  Te78  1  0.07009081  0.75745773  0.08787817  1
  Te  Te79  1  0.08632862  0.75908374  0.42028836  1
  Te  Te80  1  0.06267955  0.73633930  0.74318688  1
  Te  Te81  1  0.41745248  0.06696970  0.06368749  1
  Te  Te82  1  0.43756596  0.10698625  0.39951640  1
  Te  Te83  1  0.42805394  0.08015015  0.73929100  1
  Te  Te84  1  0.42805785  0.38622577  0.09566728  1
  Te  Te85  1  0.40965049  0.41591054  0.41611375  1
  Te  Te86  1  0.42250989  0.42479718  0.75710281  1
  Te  Te87  1  0.42227253  0.73792001  0.09149854  1
  Te  Te88  1  0.41512184  0.74825909  0.41104215  1
  Te  Te89  1  0.40702871  0.75096309  0.74768877  1
  Te  Te90  1  0.75623297  0.11410312  0.10565886  1
  Te  Te91  1  0.79018711  0.08903881  0.42546366  1
  Te  Te92  1  0.74306303  0.08797292  0.75841310  1
  Te  Te93  1  0.78740641  0.40206250  0.07740729  1
  Te  Te94  1  0.74896823  0.41488763  0.41057929  1
  Te  Te95  1  0.76446012  0.43928849  0.74683987  1
  Te  Te96  1  0.74956259  0.75734785  0.08274317  1
  Te  Te97  1  0.77568475  0.73739810  0.43337894  1
  Te  Te98  1  0.74246365  0.75797821  0.76020219  1
  Te  Te99  1  0.06152641  0.25047145  0.21417643  1
  Te  Te100  1  0.06255497  0.27804603  0.60048313  1
  Te  Te101  1  0.06039557  0.27034266  0.93988248  1
  Te  Te102  1  0.08198231  0.57029399  0.24705019  1
  Te  Te103  1  0.09750214  0.58647441  0.55813456  1
  Te  Te104  1  0.10312137  0.59039266  0.89771586  1
  Te  Te105  1  0.08678652  0.90953028  0.27175981  1
  Te  Te106  1  0.07297179  0.91979496  0.59299363  1
  Te  Te107  1  0.06142134  0.93719262  0.93089552  1
  Te  Te108  1  0.42557841  0.22368825  0.26260455  1
  Te  Te109  1  0.41259488  0.26092808  0.57907364  1
  Te  Te110  1  0.41107374  0.25775128  0.92523853  1
  Te  Te111  1  0.39066838  0.58454928  0.27352286  1
  Te  Te112  1  0.41658847  0.58490104  0.61768037  1
  Te  Te113  1  0.42922067  0.58274647  0.92323988  1
  Te  Te114  1  0.42542301  0.91645862  0.23772304  1
  Te  Te115  1  0.43920529  0.93654874  0.56498031  1
  Te  Te116  1  0.39567632  0.90302215  0.90650675  1
  Te  Te117  1  0.77795162  0.23335264  0.21321521  1
  Te  Te118  1  0.73368491  0.25062868  0.56875034  1
  Te  Te119  1  0.76216951  0.22537917  0.91238578  1
  Te  Te120  1  0.74405540  0.57667594  0.25394062  1
  Te  Te121  1  0.77562631  0.58767189  0.58297867  1
  Te  Te122  1  0.75392630  0.56584337  0.90889369  1
  Te  Te123  1  0.74972864  0.91983238  0.23450527  1
  Te  Te124  1  0.76482957  0.92250997  0.57631851  1
  Te  Te125  1  0.78378465  0.92310355  0.91475422  1
  Te  Te126  1  0.24998419  0.25887033  0.08583415  1
  Te  Te127  1  0.24743384  0.24129411  0.41699454  1
  Te  Te128  1  0.22396159  0.25289861  0.77178721  1
  Te  Te129  1  0.24988280  0.57772659  0.07314487  1
  Te  Te130  1  0.22921655  0.60332007  0.43930351  1
  Te  Te131  1  0.25908515  0.59331818  0.74034617  1
  Te  Te132  1  0.25231215  0.92541846  0.06706801  1
  Te  Te133  1  0.25002795  0.90721527  0.41574585  1
  Te  Te134  1  0.26691322  0.91124921  0.74423605  1
  Te  Te135  1  0.58773620  0.24467660  0.10694572  1
  Te  Te136  1  0.60780812  0.23163546  0.40786893  1
  Te  Te137  1  0.60745516  0.24099831  0.76664938  1
  Te  Te138  1  0.58101524  0.58102519  0.09619734  1
  Te  Te139  1  0.58393396  0.58474041  0.42608346  1
  Te  Te140  1  0.59554713  0.56342942  0.75985968  1
  Te  Te141  1  0.60203535  0.92427606  0.07553044  1
  Te  Te142  1  0.59102152  0.94302735  0.40623657  1
  Te  Te143  1  0.59681037  0.90758018  0.76391458  1
  Te  Te144  1  0.87985300  0.21354488  0.09541383  1
  Te  Te145  1  0.88279737  0.21109534  0.39642183  1
  Te  Te146  1  0.92238592  0.26066222  0.74772126  1
  Te  Te147  1  0.90274605  0.57389406  0.06592885  1
  Te  Te148  1  0.89859757  0.56325908  0.41467175  1
  Te  Te149  1  0.93956396  0.60018290  0.74123425  1
  Te  Te150  1  0.86934639  0.91827697  0.07713244  1
  Te  Te151  1  0.91208787  0.93559839  0.41202954  1
  Te  Te152  1  0.87659262  0.93562868  0.78624836  1
  Te  Te153  1  0.24560845  0.07439129  0.25065472  1
  Te  Te154  1  0.26347886  0.06223078  0.60688949  1
  Te  Te155  1  0.24929600  0.07705151  0.91415726  1
  Te  Te156  1  0.22938948  0.40577488  0.23087160  1
  Te  Te157  1  0.25054445  0.41626336  0.58586644  1
  Te  Te158  1  0.25806259  0.40290797  0.93886622  1
  Te  Te159  1  0.24631843  0.74713376  0.26552263  1
  Te  Te160  1  0.25204289  0.73565208  0.58551937  1
  Te  Te161  1  0.23716867  0.75227291  0.88577470  1
  Te  Te162  1  0.60180592  0.11394155  0.24865166  1
  Te  Te163  1  0.58935551  0.08565821  0.56650153  1
  Te  Te164  1  0.59770620  0.08512897  0.91180296  1
  Te  Te165  1  0.58129086  0.39599636  0.23942027  1
  Te  Te166  1  0.56820849  0.42155904  0.59658934  1
  Te  Te167  1  0.61259047  0.41097392  0.92348654  1
  Te  Te168  1  0.60766471  0.76851029  0.23207830  1
  Te  Te169  1  0.59437632  0.76017650  0.58404733  1
  Te  Te170  1  0.59140884  0.76056953  0.91365063  1
  Te  Te171  1  0.88555311  0.09947643  0.20445075  1
  Te  Te172  1  0.90749826  0.08253589  0.58062066  1
  Te  Te173  1  0.87484021  0.11232728  0.91732064  1
  Te  Te174  1  0.88031694  0.41498073  0.24111748  1
  Te  Te175  1  0.90245815  0.41585721  0.60604712  1
  Te  Te176  1  0.92010054  0.41036208  0.93683268  1
  Te  Te177  1  0.93068750  0.74810082  0.25114450  1
  Te  Te178  1  0.92922810  0.72897257  0.60046307  1
  Te  Te179  1  0.90330933  0.76194043  0.93144235  1
