# generated using pymatgen
data_In2Te3
_symmetry_space_group_name_H-M   'P 1'
_cell_length_a   18.95040854
_cell_length_b   18.94116636
_cell_length_c   18.96712056
_cell_angle_alpha   90.10469193
_cell_angle_beta   89.91393585
_cell_angle_gamma   90.06797884
_symmetry_Int_Tables_number   1
_chemical_formula_structural   In2Te3
_chemical_formula_sum   'In72 Te108'
_cell_volume   6808.08832316
_cell_formula_units_Z   36
loop_
 _symmetry_equiv_pos_site_id
 _symmetry_equiv_pos_as_xyz
  1  'x, y, z'
loop_
 _atom_site_type_symbol
 _atom_site_label
 _atom_site_symmetry_multiplicity
 _atom_site_fract_x
 _atom_site_fract_y
 _atom_site_fract_z
 _atom_site_occupancy
  In  In0  1  0.51220769  0.16383136  0.65051179  1
  In  In1  1  0.16160827  0.12884735  0.14379964  1
  In  In2  1  0.65950309  0.48786523  0.47492826  1
  In  In3  1  0.65608042  0.85385652  0.84346359  1
  In  In4  1  0.67908796  0.66304911  0.35333991  1
  In  In5  1  0.65286103  0.16877562  0.81540916  1
  In  In6  1  0.84162918  0.14418895  0.02055450  1
  In  In7  1  0.51116023  0.65835467  0.84985328  1
  In  In8  1  0.15337666  0.84562720  0.02123477  1
  In  In9  1  0.34315004  0.14248673  0.88447754  1
  In  In10  1  0.85071691  0.86315926  0.32546111  1
  In  In11  1  0.15624314  0.69867144  0.84587151  1
  In  In12  1  0.86172941  0.67607652  0.84729698  1
  In  In13  1  0.65214736  0.30988972  0.31894872  1
  In  In14  1  0.81665099  0.35560564  0.81998693  1
  In  In15  1  0.17705054  0.82614809  0.66233359  1
  In  In16  1  0.87808852  0.61009202  0.49299042  1
  In  In17  1  0.01429957  0.81565697  0.48211675  1
  In  In18  1  0.14027680  -0.04848993  0.86923403  1
  In  In19  1  0.85460938  0.67842792  0.16558524  1
  In  In20  1  0.63652539  0.84661105  0.15134716  1
  In  In21  1  0.69469942  0.48873243  0.81801737  1
  In  In22  1  0.50005830  -0.00181057  0.85451232  1
  In  In23  1  0.65148613  0.48056735  0.18131699  1
  In  In24  1  0.36758504  0.46128787  0.46485955  1
  In  In25  1  0.13215902  0.17248113  0.66661713  1
  In  In26  1  0.51493599  0.49291474  -0.00215677  1
  In  In27  1  0.49071536  0.67020283  0.49312403  1
  In  In28  1  0.01191670  0.86830396  0.17368271  1
  In  In29  1  0.32254816  0.01940417  0.03643482  1
  In  In30  1  0.83864017  -0.01363956  0.51666134  1
  In  In31  1  0.31439180  0.83897008  0.84820754  1
  In  In32  1  0.16579092  0.00276120  0.47874164  1
  In  In33  1  0.00221864  0.64632313  0.67335882  1
  In  In34  1  0.34206146  0.32154164  0.67616397  1
  In  In35  1  0.34300484  0.74153330  0.63720697  1
  In  In36  1  0.47642415  0.84785189  0.28290453  1
  In  In37  1  0.82476616  0.32459249  0.15117080  1
  In  In38  1  0.00199841  0.17108681  0.46825145  1
  In  In39  1  0.33738986  0.65375233  0.33069147  1
  In  In40  1  0.01350383  0.33554263  0.31563364  1
  In  In41  1  -0.01857150  -0.01218433  0.68445550  1
  In  In42  1  0.66092373  0.68776552  0.02210145  1
  In  In43  1  0.00092727  0.19096710  0.84661177  1
  In  In44  1  0.47035884  0.15395205  0.33373395  1
  In  In45  1  0.49585536  0.49586233  0.63408008  1
  In  In46  1  0.81487372  0.82723635  0.66140818  1
  In  In47  1  0.18891507  0.34195340  0.17131803  1
  In  In48  1  0.81006760  0.01058797  0.84837978  1
  In  In49  1  0.00835838  0.51095547  0.84255648  1
  In  In50  1  0.32340952  0.17454633  0.48083983  1
  In  In51  1  0.33818149  0.52580243  0.83624555  1
  In  In52  1  0.67518431  0.14470391  0.50890051  1
  In  In53  1  0.85013350  0.52505772  0.00126801  1
  In  In54  1  0.65746912  0.15922603  0.15752800  1
  In  In55  1  0.66465041  0.67322719  0.65022427  1
  In  In56  1  0.17035137  0.50781087  0.65514461  1
  In  In57  1  0.48520639  0.17260251  0.00610930  1
  In  In58  1  0.18994118  0.33490472  0.45785000  1
  In  In59  1  0.66370280  0.30790355  -0.01076959  1
  In  In60  1  0.20485026  0.84579901  0.32368634  1
  In  In61  1  0.67021560  -0.00699148  0.35516269  1
  In  In62  1  0.31909681  0.34257929  -0.00301283  1
  In  In63  1  0.35224814  -0.00079491  0.64660072  1
  In  In64  1  0.33200059  0.50116503  0.18085673  1
  In  In65  1  0.16511934  0.65097390  0.20823479  1
  In  In66  1  0.01695830  0.33022883  0.03066009  1
  In  In67  1  0.85778614  0.50114346  0.32811769  1
  In  In68  1  0.64860586  0.82125372  0.47782796  1
  In  In69  1  0.17107049  0.34560974  0.83338485  1
  In  In70  1  0.81106437  0.16999656  0.67284145  1
  In  In71  1  -0.03136283  0.35806423  0.62181362  1
  Te  Te72  1  0.05891390  0.03967651  0.07968781  1
  Te  Te73  1  0.10552696  0.10327722  0.39070039  1
  Te  Te74  1  0.07738936  0.07278215  0.76783088  1
  Te  Te75  1  0.10897691  0.43178644  0.08351342  1
  Te  Te76  1  0.08093498  0.42606343  0.41445421  1
  Te  Te77  1  0.07659147  0.41556039  0.73689962  1
  Te  Te78  1  0.08822284  0.74693031  0.11663928  1
  Te  Te79  1  0.12507293  0.75054936  0.41028797  1
  Te  Te80  1  0.06455378  0.76439861  0.74479027  1
  Te  Te81  1  0.44253015  0.07356327  0.11193607  1
  Te  Te82  1  0.39516893  0.05892349  0.42198756  1
  Te  Te83  1  0.41286674  0.09154008  0.75885381  1
  Te  Te84  1  0.41882080  0.41396889  0.08483948  1
  Te  Te85  1  0.41849040  0.37433392  0.35865436  1
  Te  Te86  1  0.41827268  0.42938480  0.75120886  1
  Te  Te87  1  0.48450345  0.82053628  0.12653689  1
  Te  Te88  1  0.41586700  0.76229582  0.40180698  1
  Te  Te89  1  0.40978105  0.74715324  0.77472785  1
  Te  Te90  1  0.73819558  0.06223499  0.08189398  1
  Te  Te91  1  0.77927545  0.08071963  0.41426326  1
  Te  Te92  1  0.72496948  0.06249472  0.73410379  1
  Te  Te93  1  0.74252109  0.42179662  0.06583469  1
  Te  Te94  1  0.75199104  0.40858046  0.38561244  1
  Te  Te95  1  0.74178705  0.40697397  0.70558930  1
  Te  Te96  1  0.76607809  0.77112013  0.08854687  1
  Te  Te97  1  0.77413507  0.76272182  0.41684498  1
  Te  Te98  1  0.74192937  0.73629841  0.76435480  1
  Te  Te99  1  0.09613082  0.23688039  0.23398202  1
  Te  Te100  1  0.08869114  0.27222564  0.56269226  1
  Te  Te101  1  0.10642733  0.25121083  0.93521498  1
  Te  Te102  1  0.10285280  0.53753068  0.28531157  1
  Te  Te103  1  0.08336961  0.58606584  0.56727152  1
  Te  Te104  1  0.06494022  0.61473631  0.93029292  1
  Te  Te105  1  0.09602561  0.93856138  0.27726369  1
  Te  Te106  1  0.07847431  0.92336697  0.58619494  1
  Te  Te107  1  0.03275265  0.86558992  0.92875191  1
  Te  Te108  1  0.38616478  0.25501557  0.26388576  1
  Te  Te109  1  0.42039992  0.25363526  0.56638671  1
  Te  Te110  1  0.41908963  0.27082264  0.90635142  1
  Te  Te111  1  0.43393190  0.58868519  0.23996296  1
  Te  Te112  1  0.39507228  0.59737880  0.58678571  1
  Te  Te113  1  0.41332416  0.59608449  0.94817047  1
  Te  Te114  1  0.38489557  0.95495570  0.22655375  1
  Te  Te115  1  0.39031925  0.87236882  0.58703635  1
  Te  Te116  1  0.39843750  0.92506371  0.93902444  1
  Te  Te117  1  0.76013284  0.22848253  0.24777168  1
  Te  Te118  1  0.75582848  0.25375854  0.56823788  1
  Te  Te119  1  0.77149303  0.23760742  0.90749691  1
  Te  Te120  1  0.75037713  0.58350017  0.24148723  1
  Te  Te121  1  0.74323373  0.58153664  0.56307334  1
  Te  Te122  1  0.73636705  0.59443233  0.92623671  1
  Te  Te123  1  0.74249587  0.92225513  0.24219302  1
  Te  Te124  1  0.72293839  0.91306435  0.57927359  1
  Te  Te125  1  0.75053702  0.91159574  0.93806393  1
  Te  Te126  1  0.26242839  0.23610463  0.08690872  1
  Te  Te127  1  0.25860438  0.24116203  0.36360217  1
  Te  Te128  1  0.24229085  0.23686139  0.75453511  1
  Te  Te129  1  0.22709277  0.56784172  0.10066598  1
  Te  Te130  1  0.26615382  0.55456110  0.41574822  1
  Te  Te131  1  0.23534863  0.60227607  0.75512708  1
  Te  Te132  1  0.24853851  0.91665498  0.11680256  1
  Te  Te133  1  0.28114738  0.93205648  0.42095266  1
  Te  Te134  1  0.24851404  0.93583296  0.75038744  1
  Te  Te135  1  0.56787886  0.26630880  0.09752335  1
  Te  Te136  1  0.57928216  0.22308136  0.41752023  1
  Te  Te137  1  0.58274004  0.26358330  0.73169668  1
  Te  Te138  1  0.57751221  0.58799718  0.09970368  1
  Te  Te139  1  0.56253622  0.57572441  0.39910763  1
  Te  Te140  1  0.58128624  0.57987818  0.73976815  1
  Te  Te141  1  0.54967536  0.95104341  0.08706537  1
  Te  Te142  1  0.55362151  0.91191317  0.40603935  1
  Te  Te143  1  0.56094918  0.91399675  0.75172662  1
  Te  Te144  1  0.93461039  0.22667154  0.10647701  1
  Te  Te145  1  0.91601760  0.26886772  0.40482855  1
  Te  Te146  1  0.92435123  0.26158486  0.73798457  1
  Te  Te147  1  0.94096388  0.57673685  0.10235871  1
  Te  Te148  1  0.95520508  0.60589415  0.36855121  1
  Te  Te149  1  0.89903602  0.56537852  0.75136204  1
  Te  Te150  1  0.92731959  0.94907613  0.07852847  1
  Te  Te151  1  0.94486387  0.93585989  0.42045084  1
  Te  Te152  1  0.89138805  0.90227622  0.76826580  1
  Te  Te153  1  0.26050545  0.04712316  0.22134256  1
  Te  Te154  1  0.23849877  0.09391486  0.59074305  1
  Te  Te155  1  0.22161196  0.06814102  0.93181843  1
  Te  Te156  1  0.22438418  0.44585162  0.27957420  1
  Te  Te157  1  0.26235516  0.40955984  0.58055783  1
  Te  Te158  1  0.23889836  0.44776567  0.92138279  1
  Te  Te159  1  0.27769259  0.75122882  0.22879054  1
  Te  Te160  1  0.22222205  0.73930331  0.55149490  1
  Te  Te161  1  0.25251625  0.74834638  0.95243663  1
  Te  Te162  1  0.58436155  0.07878973  0.26392543  1
  Te  Te163  1  0.57062855  0.05945415  0.56807754  1
  Te  Te164  1  0.59183044  0.09244940  0.93000851  1
  Te  Te165  1  0.55326382  0.40830186  0.26606992  1
  Te  Te166  1  0.56507173  0.40198892  0.54707701  1
  Te  Te167  1  0.59285357  0.40720990  0.89916324  1
  Te  Te168  1  0.59508131  0.74805490  0.26350218  1
  Te  Te169  1  0.56268328  0.76400121  0.59112798  1
  Te  Te170  1  0.56752276  0.76976261  0.93550006  1
  Te  Te171  1  0.96694174  0.01778010  0.20882915  1
  Te  Te172  1  0.92656230  0.09443195  0.59104847  1
  Te  Te173  1  0.93082422  0.07708495  0.91613434  1
  Te  Te174  1  0.92298268  0.41737226  0.21988573  1
  Te  Te175  1  0.91800915  0.46956955  0.54552978  1
  Te  Te176  1  0.92356300  0.40623516  0.92547002  1
  Te  Te177  1  0.93951904  0.75938103  0.26186586  1
  Te  Te178  1  0.91399991  0.74637645  0.58018936  1
  Te  Te179  1  0.94530181  0.73618161  0.94909373  1
