# generated using pymatgen
data_In2Te3
_symmetry_space_group_name_H-M   'P 1'
_cell_length_a   18.93387064
_cell_length_b   18.98021906
_cell_length_c   18.96333033
_cell_angle_alpha   90.35206445
_cell_angle_beta   89.90723570
_cell_angle_gamma   90.24642747
_symmetry_Int_Tables_number   1
_chemical_formula_structural   In2Te3
_chemical_formula_sum   'In72 Te108'
_cell_volume   6814.63296654
_cell_formula_units_Z   36
loop_
 _symmetry_equiv_pos_site_id
 _symmetry_equiv_pos_as_xyz
  1  'x, y, z'
loop_
 _atom_site_type_symbol
 _atom_site_label
 _atom_site_symmetry_multiplicity
 _atom_site_fract_x
 _atom_site_fract_y
 _atom_site_fract_z
 _atom_site_occupancy
  In  In0  1  0.87669795  0.16917520  0.67458182  1
  In  In1  1  0.85078982  -0.00658911  0.83287414  1
  In  In2  1  0.46218846  0.81606024  0.70678546  1
  In  In3  1  0.65265580  0.69363730  -0.00667902  1
  In  In4  1  0.31213569  0.19234029  0.49271737  1
  In  In5  1  0.83283041  0.16954901  -0.00363831  1
  In  In6  1  0.18334938  0.64614985  0.82963654  1
  In  In7  1  0.82058644  0.00089334  0.50278813  1
  In  In8  1  0.47534018  0.84013423  -0.06162228  1
  In  In9  1  0.83167469  0.67143220  0.81064450  1
  In  In10  1  0.64356734  0.84532494  0.15540614  1
  In  In11  1  0.00129192  0.16586779  0.14534617  1
  In  In12  1  -0.00797564  0.84414839  0.15866280  1
  In  In13  1  0.65620582  0.48150304  0.19118584  1
  In  In14  1  0.15800943  0.32102749  0.14371127  1
  In  In15  1  0.48691263  0.18215749  0.31248753  1
  In  In16  1  0.65555936  0.65592015  0.36008592  1
  In  In17  1  0.16218113  0.48839773  0.34014537  1
  In  In18  1  0.01458999  0.02361380  0.34936541  1
  In  In19  1  0.30787216  0.66904551  0.31098829  1
  In  In20  1  0.17893778  0.66034294  0.52230311  1
  In  In21  1  0.46733509  0.62052702  0.54232122  1
  In  In22  1  0.00393595  0.65050572  0.65226535  1
  In  In23  1  0.81569835  0.49518183  0.03703731  1
  In  In24  1  0.63916962  -0.03286008  0.65515060  1
  In  In25  1  0.18672972  0.16125769  0.68485287  1
  In  In26  1  0.15976285  0.66705622  0.14918163  1
  In  In27  1  0.67204625  0.15873270  0.81336231  1
  In  In28  1  0.04921129  0.46778870  0.83556030  1
  In  In29  1  0.49377982  0.00511410  0.50412361  1
  In  In30  1  0.49962699  0.15027629  0.68266046  1
  In  In31  1  0.49250195  0.84406139  0.34817280  1
  In  In32  1  0.32895438  0.48406460  0.84590440  1
  In  In33  1  0.81109397  0.81473573  0.32756313  1
  In  In34  1  0.18069210  0.03597544  0.13737931  1
  In  In35  1  -0.00808460  0.83028212  0.50537119  1
  In  In36  1  -0.01041857  0.34894355  0.32088398  1
  In  In37  1  0.64781148  0.65260962  0.66366224  1
  In  In38  1  0.03576066  0.18812426  0.53574708  1
  In  In39  1  0.82520059  0.19493102  0.31392933  1
  In  In40  1  0.83446694  -0.01843383  0.14999094  1
  In  In41  1  0.17913927  0.49696317  0.00043583  1
  In  In42  1  0.18797589  0.85270660  -0.01514259  1
  In  In43  1  0.33757194  0.33785747  0.68916829  1
  In  In44  1  0.68022946  -0.01055602  -0.01287555  1
  In  In45  1  0.49272616  0.51622325  -0.00589921  1
  In  In46  1  0.33283184  0.83778295  0.50124347  1
  In  In47  1  0.32535101  0.50673615  0.14914800  1
  In  In48  1  0.01580476  0.33148733  -0.00659778  1
  In  In49  1  0.63645667  0.02700263  0.34333893  1
  In  In50  1  0.02387773  0.83345813  0.83487311  1
  In  In51  1  -0.01091194  0.51620293  0.47977934  1
  In  In52  1  0.03640971  -0.00538625  0.68665780  1
  In  In53  1  0.65848374  0.48086584  0.49470922  1
  In  In54  1  0.82953526  0.50976348  0.66769536  1
  In  In55  1  0.22143773  0.84228494  0.71292531  1
  In  In56  1  0.37569255  0.14975377  0.87816464  1
  In  In57  1  0.52612225  0.17800779  0.03420873  1
  In  In58  1  0.65462705  0.31840099  0.65310311  1
  In  In59  1  0.48747868  0.34296259  0.48483365  1
  In  In60  1  0.85517098  0.85111643  -0.01078427  1
  In  In61  1  0.48793997  0.68583949  0.14145148  1
  In  In62  1  0.65151907  0.51618345  0.84412712  1
  In  In63  1  0.16633668  0.00700022  0.51289097  1
  In  In64  1  0.84643804  0.33536589  0.83196857  1
  In  In65  1  0.64160782  0.33070004  0.32327052  1
  In  In66  1  0.81338542  0.66181584  0.18432851  1
  In  In67  1  0.32984746  0.00322239  0.29960295  1
  In  In68  1  0.33845535  0.19227323  0.13876999  1
  In  In69  1  -0.03606076  0.50758365  0.22681954  1
  In  In70  1  0.14319630  0.82253831  0.32566838  1
  In  In71  1  0.85234319  0.32842072  0.50691702  1
  Te  Te72  1  0.10145230  0.12153388  0.04306794  1
  Te  Te73  1  0.11235452  0.11427294  0.42213028  1
  Te  Te74  1  0.07578988  0.10930255  0.76997229  1
  Te  Te75  1  0.07493396  0.43650536  0.09305348  1
  Te  Te76  1  0.08021260  0.40055225  0.43128348  1
  Te  Te77  1  0.09242688  0.35411494  0.75567929  1
  Te  Te78  1  0.08389578  0.76731764  0.06605361  1
  Te  Te79  1  0.08152359  0.73070197  0.42682234  1
  Te  Te80  1  0.09595653  0.73946679  0.73593109  1
  Te  Te81  1  0.42636003  0.08446072  0.09107596  1
  Te  Te82  1  0.40101634  0.08332064  0.41417040  1
  Te  Te83  1  0.43536918  0.05525336  0.77531165  1
  Te  Te84  1  0.41954649  0.42097329  0.07739748  1
  Te  Te85  1  0.36876559  0.41032475  0.42682626  1
  Te  Te86  1  0.43429897  0.40818251  0.77465773  1
  Te  Te87  1  0.41176172  0.76859204  0.05099230  1
  Te  Te88  1  0.40544928  0.73789258  0.41244882  1
  Te  Te89  1  0.38856795  0.72413135  0.79873843  1
  Te  Te90  1  0.74384643  0.08416665  0.08729947  1
  Te  Te91  1  0.75215541  0.09876070  0.41135965  1
  Te  Te92  1  0.76972744  0.07515280  0.73276687  1
  Te  Te93  1  0.71481894  0.39467492  0.08270236  1
  Te  Te94  1  0.75180241  0.39201908  0.41555637  1
  Te  Te95  1  0.74222699  0.41233395  0.74447638  1
  Te  Te96  1  0.76152660  0.77258648  0.08627705  1
  Te  Te97  1  0.74290494  0.74655390  0.43613995  1
  Te  Te98  1  0.74110666  0.74762532  0.72838823  1
  Te  Te99  1  0.07703398  0.24707589  0.24917791  1
  Te  Te100  1  0.13004492  0.27670203  0.60775608  1
  Te  Te101  1  0.06682339  0.21397606  0.92183518  1
  Te  Te102  1  0.08945482  0.59464183  0.25932561  1
  Te  Te103  1  0.09656050  0.55041314  0.58694152  1
  Te  Te104  1  0.08225351  0.58664486  0.92487898  1
  Te  Te105  1  0.08515419  0.94071750  0.24119170  1
  Te  Te106  1  0.10593319  0.89188316  0.58912056  1
  Te  Te107  1  0.10139530  0.94030258  0.90115490  1
  Te  Te108  1  0.41417431  0.27948457  0.23320699  1
  Te  Te109  1  0.42239982  0.24216368  0.58798927  1
  Te  Te110  1  0.44017088  0.26086047  0.94919551  1
  Te  Te111  1  0.41656705  0.59280445  0.23822879  1
  Te  Te112  1  0.36572271  0.55588736  0.62711552  1
  Te  Te113  1  0.41331239  0.59876901  0.89967027  1
  Te  Te114  1  0.42447379  0.91008632  0.23832863  1
  Te  Te115  1  0.41393555  0.91958374  0.59950676  1
  Te  Te116  1  0.37165619  0.93690337  0.87645792  1
  Te  Te117  1  0.70593258  0.22849471  0.23069833  1
  Te  Te118  1  0.76648159  0.23646465  0.59118437  1
  Te  Te119  1  0.74336529  0.25498289  0.90911574  1
  Te  Te120  1  0.74869873  0.56511672  0.28197750  1
  Te  Te121  1  0.74813801  0.58095436  0.56474236  1
  Te  Te122  1  0.75972535  0.59542324  0.92909639  1
  Te  Te123  1  0.73610304  0.92623965  0.25447945  1
  Te  Te124  1  0.75352994  0.90389922  0.58761582  1
  Te  Te125  1  0.74949319  0.89525597  0.89118629  1
  Te  Te126  1  0.25452688  0.27064739  0.04262254  1
  Te  Te127  1  0.26585791  0.30024302  0.40797386  1
  Te  Te128  1  0.28486518  0.22741099  0.77899284  1
  Te  Te129  1  0.26485179  0.61019491  0.05682534  1
  Te  Te130  1  0.25683943  0.57759199  0.42021481  1
  Te  Te131  1  0.24135066  0.54426367  0.73916217  1
  Te  Te132  1  0.26970895  0.93720826  0.07673335  1
  Te  Te133  1  0.24171516  0.91504733  0.40557785  1
  Te  Te134  1  0.24006371  0.96657675  0.79602091  1
  Te  Te135  1  0.60737199  0.27115361  0.11772563  1
  Te  Te136  1  0.57817962  0.23819666  0.42502284  1
  Te  Te137  1  0.56950947  0.25922867  0.76368756  1
  Te  Te138  1  0.60517572  0.59593533  0.09759896  1
  Te  Te139  1  0.55252865  0.56644122  0.42732324  1
  Te  Te140  1  0.55990299  0.56608830  0.74325612  1
  Te  Te141  1  0.56517419  0.91187613  0.04878986  1
  Te  Te142  1  0.59519790  0.91324243  0.43470071  1
  Te  Te143  1  0.56787187  0.90393878  0.76589183  1
  Te  Te144  1  0.90659609  0.26714485  0.08698049  1
  Te  Te145  1  0.93056789  0.22980446  0.42160174  1
  Te  Te146  1  0.95324143  0.28017917  0.74127398  1
  Te  Te147  1  0.91513332  0.59085904  0.10001816  1
  Te  Te148  1  0.91034680  0.55243688  0.36273188  1
  Te  Te149  1  0.93609052  0.56317081  0.76400863  1
  Te  Te150  1  0.94897225  0.94945563  0.05619920  1
  Te  Te151  1  0.91857681  0.91694162  0.40211439  1
  Te  Te152  1  0.92749437  0.90152390  0.73823179  1
  Te  Te153  1  0.24833767  0.11583465  0.24638037  1
  Te  Te154  1  0.27257976  0.07629919  0.59170252  1
  Te  Te155  1  0.27263349  0.05024014  0.92691552  1
  Te  Te156  1  0.24089404  0.41358015  0.23466182  1
  Te  Te157  1  0.30337060  0.42499612  0.57237038  1
  Te  Te158  1  0.24336898  0.38829268  0.92471986  1
  Te  Te159  1  0.24405559  0.77338754  0.22364791  1
  Te  Te160  1  0.27503845  0.74398616  0.60539908  1
  Te  Te161  1  0.26250148  0.76198975  0.88506534  1
  Te  Te162  1  0.54658538  0.06902797  0.23643064  1
  Te  Te163  1  0.59538197  0.08994285  0.58059945  1
  Te  Te164  1  0.59113130  0.08784813  0.91775410  1
  Te  Te165  1  0.54417371  0.42338794  0.26644086  1
  Te  Te166  1  0.56129664  0.42096281  0.59421346  1
  Te  Te167  1  0.59310036  0.42279674  0.93875665  1
  Te  Te168  1  0.58737639  0.74652399  0.25569527  1
  Te  Te169  1  0.54132188  0.74016693  0.59445689  1
  Te  Te170  1  0.57664988  0.74628667  0.88194714  1
  Te  Te171  1  0.91018755  0.08091190  0.24524336  1
  Te  Te172  1  0.94540315  0.06557977  0.57563696  1
  Te  Te173  1  0.92453283  0.10337151  0.90047534  1
  Te  Te174  1  0.88085246  0.38423915  0.22942667  1
  Te  Te175  1  0.93015046  0.42530249  0.59056722  1
  Te  Te176  1  0.91321876  0.42980209  0.93088478  1
  Te  Te177  1  0.92448592  0.74758612  0.25325927  1
  Te  Te178  1  0.91128960  0.72645957  0.57014359  1
  Te  Te179  1  0.92567699  0.74430703  0.90980396  1
