# generated using pymatgen
data_In2Te3
_symmetry_space_group_name_H-M   'P 1'
_cell_length_a   18.98879465
_cell_length_b   18.97845414
_cell_length_c   18.96615193
_cell_angle_alpha   90.05756245
_cell_angle_beta   89.81162421
_cell_angle_gamma   89.92128160
_symmetry_Int_Tables_number   1
_chemical_formula_structural   In2Te3
_chemical_formula_sum   'In72 Te108'
_cell_volume   6834.93642708
_cell_formula_units_Z   36
loop_
 _symmetry_equiv_pos_site_id
 _symmetry_equiv_pos_as_xyz
  1  'x, y, z'
loop_
 _atom_site_type_symbol
 _atom_site_label
 _atom_site_symmetry_multiplicity
 _atom_site_fract_x
 _atom_site_fract_y
 _atom_site_fract_z
 _atom_site_occupancy
  In  In0  1  0.51453995  0.82314100  0.00200443  1
  In  In1  1  0.31377598  0.00341446  -0.00752170  1
  In  In2  1  0.66013736  0.81029570  0.52612125  1
  In  In3  1  0.66567748  0.17557038  0.50616361  1
  In  In4  1  0.48962760  0.83745058  0.35321433  1
  In  In5  1  0.51008693  0.14881414  0.00411898  1
  In  In6  1  0.70566845  0.02395024  -0.03174131  1
  In  In7  1  0.32906316  -0.00194090  0.35427974  1
  In  In8  1  0.01287689  0.18443513  0.49216873  1
  In  In9  1  0.84692423  0.00629892  0.81176722  1
  In  In10  1  0.68377940  0.49256174  0.16359133  1
  In  In11  1  0.52133938  0.32965121  0.50446957  1
  In  In12  1  0.48164583  -0.02582895  0.78875099  1
  In  In13  1  0.13992502  0.83742276  -0.00246824  1
  In  In14  1  0.34653685  0.32281308  -0.00024941  1
  In  In15  1  0.00103095  0.66714350  0.65905283  1
  In  In16  1  0.87031778  0.30846441  0.78963977  1
  In  In17  1  0.34208488  0.68559975  0.34961386  1
  In  In18  1  0.31325701  0.83847144  0.80796462  1
  In  In19  1  0.81048963  0.68212097  0.72709441  1
  In  In20  1  0.63959488  0.49491966  0.80833265  1
  In  In21  1  0.47289185  -0.03561526  0.54021600  1
  In  In22  1  0.17027698  0.19002905  -0.02334845  1
  In  In23  1  0.83649521  0.82597930  0.35532274  1
  In  In24  1  0.47808580  0.67220077  0.17785954  1
  In  In25  1  0.17096103  0.66821844  0.80819373  1
  In  In26  1  0.35883309  0.35029361  0.34595085  1
  In  In27  1  0.00797781  0.53792254  0.17631067  1
  In  In28  1  0.67432680  0.51532106  0.51428680  1
  In  In29  1  -0.04533936  -0.00625896  0.00726174  1
  In  In30  1  0.83430540  0.85617298  -0.00503635  1
  In  In31  1  0.15932171  0.00256721  0.17109291  1
  In  In32  1  0.85236862  0.16292572  0.33848771  1
  In  In33  1  0.30995764  0.50957579  0.16040141  1
  In  In34  1  -0.00633890  0.00146262  0.35829913  1
  In  In35  1  0.67027721  -0.03315420  0.67169241  1
  In  In36  1  0.03551039  0.13848569  0.18620581  1
  In  In37  1  0.14819414  -0.00474924  0.80180660  1
  In  In38  1  0.52824744  0.51054642  0.35942047  1
  In  In39  1  0.49523426  -0.02205365  0.16813992  1
  In  In40  1  0.82102532  0.17334300  0.00789527  1
  In  In41  1  -0.01440604  0.48075045  0.52826724  1
  In  In42  1  0.16284234  0.17567002  0.65035766  1
  In  In43  1  0.14021610  0.36174251  0.78323823  1
  In  In44  1  0.65935774  0.15877080  0.16957575  1
  In  In45  1  0.48503365  0.53182644  0.64118592  1
  In  In46  1  0.15191398  -0.02751844  0.53510129  1
  In  In47  1  0.65102042  0.83244318  0.17667483  1
  In  In48  1  0.00056082  0.32743940  -0.01053955  1
  In  In49  1  0.49954257  0.52773312  -0.02774139  1
  In  In50  1  0.68410642  0.15859098  0.83586520  1
  In  In51  1  0.84188661  0.66435983  0.51055193  1
  In  In52  1  0.14086607  0.50122972  0.35521422  1
  In  In53  1  0.83765822  0.50430869  0.35019877  1
  In  In54  1  0.15872711  0.31849297  0.16435713  1
  In  In55  1  0.83856899  0.68046289  0.18694543  1
  In  In56  1  0.68067057  0.01083037  0.34252805  1
  In  In57  1  0.49023368  0.34223997  0.85840182  1
  In  In58  1  -0.01675486  0.80731178  0.81568860  1
  In  In59  1  0.17619138  0.51397329  -0.00708297  1
  In  In60  1  0.17102568  0.83023344  0.34948794  1
  In  In61  1  0.84944774  0.32161987  0.19125594  1
  In  In62  1  0.81991196  0.48659731  -0.02049459  1
  In  In63  1  0.18200360  0.67688349  0.49671478  1
  In  In64  1  0.33751135  0.50958922  0.83165201  1
  In  In65  1  0.31739222  0.35370522  0.64429181  1
  In  In66  1  0.65855742  0.66904573  -0.02028169  1
  In  In67  1  0.69715099  0.31086613  0.66291000  1
  In  In68  1  0.18742165  0.18669882  0.34300572  1
  In  In69  1  0.50194311  0.34397940  0.17742734  1
  In  In70  1  0.49399529  0.16552433  0.67571161  1
  In  In71  1  0.01468067  0.65767054  -0.00790204  1
  Te  Te72  1  0.08823703  0.08216680  0.05432295  1
  Te  Te73  1  0.11204238  0.07420547  0.41779044  1
  Te  Te74  1  0.05996145  0.09484502  0.72866469  1
  Te  Te75  1  0.08259090  0.42187059  0.08158238  1
  Te  Te76  1  0.07723084  0.39929682  0.44093067  1
  Te  Te77  1  0.04001593  0.41091602  0.68607981  1
  Te  Te78  1  0.06367983  0.75260124  0.09053403  1
  Te  Te79  1  0.07710322  0.76046415  0.43799598  1
  Te  Te80  1  0.10668448  0.77855911  0.72372095  1
  Te  Te81  1  0.40906152  0.07554063  0.08944503  1
  Te  Te82  1  0.41922148  0.06494387  0.44839744  1
  Te  Te83  1  0.39124043  0.07383565  0.73039410  1
  Te  Te84  1  0.42037519  0.43213607  0.07364420  1
  Te  Te85  1  0.42910705  0.43740004  0.44846007  1
  Te  Te86  1  0.42587857  0.41823078  0.74381499  1
  Te  Te87  1  0.41189527  0.76413510  0.08680779  1
  Te  Te88  1  0.44850941  0.72692827  0.44345740  1
  Te  Te89  1  0.38053328  0.73984813  0.71611089  1
  Te  Te90  1  0.76226071  0.06935179  0.10090785  1
  Te  Te91  1  0.77125262  0.08252526  0.43780524  1
  Te  Te92  1  0.75577689  0.08829715  0.72339195  1
  Te  Te93  1  0.76474277  0.39028562  0.08588121  1
  Te  Te94  1  0.74444502  0.42223114  0.42703620  1
  Te  Te95  1  0.75717431  0.41178992  0.75687585  1
  Te  Te96  1  0.73897677  0.74840689  0.08230506  1
  Te  Te97  1  0.73774371  0.73113019  0.42242390  1
  Te  Te98  1  0.75336717  0.81274959  0.75285171  1
  Te  Te99  1  0.07075818  0.25681264  0.27116317  1
  Te  Te100  1  0.10874048  0.27890991  0.55664803  1
  Te  Te101  1  0.07805078  0.25780515  0.87840896  1
  Te  Te102  1  0.11555339  0.60093693  0.25023115  1
  Te  Te103  1  0.09423616  0.58055188  0.57812552  1
  Te  Te104  1  0.08302519  0.57026520  0.88821797  1
  Te  Te105  1  0.07820777  0.91590477  0.26275184  1
  Te  Te106  1  0.06508519  0.89287673  0.62453613  1
  Te  Te107  1  0.05295458  0.91909201  0.90330773  1
  Te  Te108  1  0.41380410  0.25427114  0.24943639  1
  Te  Te109  1  0.41498665  0.25239506  0.58165354  1
  Te  Te110  1  0.41388712  0.22060960  0.90981844  1
  Te  Te111  1  0.41933351  0.55832982  0.25932307  1
  Te  Te112  1  0.36498523  0.61495733  0.61567579  1
  Te  Te113  1  0.40709333  0.61603750  0.90382893  1
  Te  Te114  1  0.39669241  0.90271913  0.25406095  1
  Te  Te115  1  0.39103718  0.85323070  0.59328824  1
  Te  Te116  1  0.40818471  0.91404980  0.91233401  1
  Te  Te117  1  0.74334643  0.24252981  0.26396721  1
  Te  Te118  1  0.77779497  0.26049747  0.55175204  1
  Te  Te119  1  0.76702868  0.26431043  0.90216058  1
  Te  Te120  1  0.74509495  0.58853494  0.26330983  1
  Te  Te121  1  0.75943059  0.59331233  0.61654389  1
  Te  Te122  1  0.74180967  0.58067529  0.88956223  1
  Te  Te123  1  0.75295685  0.91041587  0.25489690  1
  Te  Te124  1  0.75722164  0.91296968  0.56709813  1
  Te  Te125  1  0.73840097  0.89893580  0.88303731  1
  Te  Te126  1  0.26052769  0.23474833  0.08952078  1
  Te  Te127  1  0.26996087  0.26884989  0.43042604  1
  Te  Te128  1  0.24985553  0.26463793  0.74732357  1
  Te  Te129  1  0.25592134  0.60876726  0.06880168  1
  Te  Te130  1  0.26077517  0.57542181  0.41401615  1
  Te  Te131  1  0.23774015  0.55626965  0.72709748  1
  Te  Te132  1  0.24230204  0.90840922  0.08586600  1
  Te  Te133  1  0.26058864  0.90163188  0.44720561  1
  Te  Te134  1  0.26603949  0.95143568  0.72236065  1
  Te  Te135  1  0.58622358  0.25487051  0.07807956  1
  Te  Te136  1  0.58002237  0.23857236  0.40672688  1
  Te  Te137  1  0.58324112  0.25501137  0.76460889  1
  Te  Te138  1  0.58472245  0.58572706  0.09334044  1
  Te  Te139  1  0.56639302  0.60566345  0.46697392  1
  Te  Te140  1  0.57317049  0.60733579  0.73506136  1
  Te  Te141  1  0.60246610  0.93149352  0.06913850  1
  Te  Te142  1  0.58659214  0.92500231  0.42919833  1
  Te  Te143  1  0.56709616  0.86932013  0.72523184  1
  Te  Te144  1  0.93612056  0.23613048  0.09249804  1
  Te  Te145  1  0.91742053  0.26823964  0.41690668  1
  Te  Te146  1  0.94231122  0.21186188  0.70278293  1
  Te  Te147  1  0.89536915  0.57604184  0.07827951  1
  Te  Te148  1  0.93882282  0.58574038  0.42484571  1
  Te  Te149  1  0.92564871  0.60133953  0.76626535  1
  Te  Te150  1  0.92547702  0.88965170  0.10485238  1
  Te  Te151  1  0.90537358  0.92252774  0.44371478  1
  Te  Te152  1  0.93204256  0.91796101  0.72790777  1
  Te  Te153  1  0.25665433  0.08551708  0.25167294  1
  Te  Te154  1  0.24518541  0.07885630  0.57540340  1
  Te  Te155  1  0.23830064  0.08561558  0.89107021  1
  Te  Te156  1  0.23909715  0.41161369  0.25200019  1
  Te  Te157  1  0.22705742  0.46271743  0.60619609  1
  Te  Te158  1  0.25256780  0.40608805  0.91451837  1
  Te  Te159  1  0.24816292  0.74516373  0.25639508  1
  Te  Te160  1  0.27363990  0.74983776  0.59258619  1
  Te  Te161  1  0.23677223  0.75616043  0.91283505  1
  Te  Te162  1  0.56990051  0.07433625  0.25816769  1
  Te  Te163  1  0.58231609  0.07439569  0.59177647  1
  Te  Te164  1  0.57539670  0.06426185  0.88854615  1
  Te  Te165  1  0.60217646  0.41416523  0.26586702  1
  Te  Te166  1  0.59128876  0.41365767  0.60979153  1
  Te  Te167  1  0.59737395  0.41853091  0.93327820  1
  Te  Te168  1  0.57755614  0.74037817  0.26943444  1
  Te  Te169  1  0.60015391  0.74094545  0.64139039  1
  Te  Te170  1  0.56799774  0.74259160  0.89228140  1
  Te  Te171  1  0.91716054  0.06568732  0.24135800  1
  Te  Te172  1  0.95837947  0.09780426  0.59821277  1
  Te  Te173  1  0.91409781  0.10056135  0.90851752  1
  Te  Te174  1  0.93234607  0.43167452  0.25453679  1
  Te  Te175  1  0.90236366  0.41039483  0.62734241  1
  Te  Te176  1  0.92320643  0.41448976  0.89486195  1
  Te  Te177  1  0.93091412  0.73972030  0.28116134  1
  Te  Te178  1  0.92397276  0.76448725  0.58038898  1
  Te  Te179  1  0.90465813  0.74000344  0.92521431  1
