# generated using pymatgen
data_In2Te3
_symmetry_space_group_name_H-M   'P 1'
_cell_length_a   19.05421923
_cell_length_b   19.03773687
_cell_length_c   19.03711266
_cell_angle_alpha   90.21231608
_cell_angle_beta   90.18168235
_cell_angle_gamma   90.08921191
_symmetry_Int_Tables_number   1
_chemical_formula_structural   In2Te3
_chemical_formula_sum   'In72 Te108'
_cell_volume   6905.60698377
_cell_formula_units_Z   36
loop_
 _symmetry_equiv_pos_site_id
 _symmetry_equiv_pos_as_xyz
  1  'x, y, z'
loop_
 _atom_site_type_symbol
 _atom_site_label
 _atom_site_symmetry_multiplicity
 _atom_site_fract_x
 _atom_site_fract_y
 _atom_site_fract_z
 _atom_site_occupancy
  In  In0  1  0.64192593  0.80938065  0.83317184  1
  In  In1  1  0.70042737  0.33193253  0.65751464  1
  In  In2  1  0.47744907  0.81747935  0.64953248  1
  In  In3  1  -0.00323711  0.32759891  0.33599890  1
  In  In4  1  0.01486728  0.84239677  0.84773604  1
  In  In5  1  0.71713912  0.18971708  0.83377345  1
  In  In6  1  0.20152167  0.02333859  0.19522885  1
  In  In7  1  0.18300667  -0.02510462  0.47966923  1
  In  In8  1  0.82018034  0.14218107  0.32618090  1
  In  In9  1  0.48027915  0.18300961  0.31334654  1
  In  In10  1  0.50252998  0.34446653  0.82050349  1
  In  In11  1  0.48947966  -0.01690033  0.18986897  1
  In  In12  1  0.66164617  0.49047317  0.48955206  1
  In  In13  1  0.00561120  0.01180920  0.00266074  1
  In  In14  1  0.03335835  0.50189066  0.15460489  1
  In  In15  1  0.81820421  0.84753429  0.69786972  1
  In  In16  1  0.46635172  0.51699007  0.00428421  1
  In  In17  1  0.51767220  0.16100982  0.02331760  1
  In  In18  1  0.34595882  0.16410418  0.48400194  1
  In  In19  1  -0.00022885  0.48767171  0.84149986  1
  In  In20  1  0.32954048  -0.01154488  0.01113546  1
  In  In21  1  0.18986027  0.83587266  0.66963448  1
  In  In22  1  0.84544315  0.33159936  0.83579801  1
  In  In23  1  0.19837098  0.19626037  0.64188693  1
  In  In24  1  0.84699276  0.49703721  0.67549099  1
  In  In25  1  0.83340670  0.65419513  0.86249358  1
  In  In26  1  0.48540773  0.50624040  0.32376653  1
  In  In27  1  0.17128196  0.32251084  0.17824997  1
  In  In28  1  0.17762738  0.65840638  0.15694083  1
  In  In29  1  0.81479834  0.66818552  0.50627865  1
  In  In30  1  0.19015401  0.68330563  0.85547939  1
  In  In31  1  0.32897647  0.18265501  0.82494221  1
  In  In32  1  0.84753220  0.19479373  -0.00016345  1
  In  In33  1  0.03389392  0.01152882  0.66161162  1
  In  In34  1  0.19553865  0.34349231  0.47492654  1
  In  In35  1  0.31959126  0.64362709  0.36654152  1
  In  In36  1  0.62720371  0.53273948  0.82227393  1
  In  In37  1  0.84318771  0.16404472  0.66782830  1
  In  In38  1  0.33280623  0.33600707  0.00812057  1
  In  In39  1  0.14744328  0.32096254  0.86117707  1
  In  In40  1  0.64967317  0.67783880  0.00176447  1
  In  In41  1  0.64103695  0.65163015  0.31995487  1
  In  In42  1  0.33991490  0.64815724  0.65678456  1
  In  In43  1  0.64903813  0.01287701  0.64614966  1
  In  In44  1  0.68378677  0.48515199  0.15030822  1
  In  In45  1  -0.02144761  0.48611074  0.51520523  1
  In  In46  1  0.65703473  -0.02592412  0.34530603  1
  In  In47  1  0.32451481  0.85390053  0.85038383  1
  In  In48  1  0.83778100  0.00699440  0.87312269  1
  In  In49  1  0.47795522  0.36432606  0.47978412  1
  In  In50  1  0.45880486  0.69108287  0.13886680  1
  In  In51  1  0.68104551  0.31917795  0.32711550  1
  In  In52  1  0.01135897  0.66552389  0.63369999  1
  In  In53  1  0.63671849  0.82501874  0.51063166  1
  In  In54  1  -0.01852705  0.83988343  0.15887253  1
  In  In55  1  0.50820781  0.03357642  0.81661379  1
  In  In56  1  0.00054060  0.66801664  0.00807873  1
  In  In57  1  0.01207731  0.16663472  0.50244866  1
  In  In58  1  0.17035581  0.82740209  0.34654143  1
  In  In59  1  0.34985555  0.51160290  0.82877280  1
  In  In60  1  0.67436821  0.17848856  0.16119728  1
  In  In61  1  0.65971288  0.81437807  0.17524196  1
  In  In62  1  0.66163546  -0.00942241  0.01612567  1
  In  In63  1  0.14832730  0.03189508  0.84489637  1
  In  In64  1  0.30067592  0.48666634  0.15428033  1
  In  In65  1  0.82901195  0.83701874  0.31778688  1
  In  In66  1  -0.00354513  0.80784592  0.46264149  1
  In  In67  1  0.84281356  0.49461464  0.33303262  1
  In  In68  1  0.32405224  0.81406700  0.49790141  1
  In  In69  1  -0.00823644  -0.00046897  0.32908430  1
  In  In70  1  0.00439780  0.16591344  0.15090174  1
  In  In71  1  0.51073690  0.18378816  0.63671140  1
  Te  Te72  1  0.11165419  0.08147521  0.08699403  1
  Te  Te73  1  0.09242609  0.07544421  0.41223986  1
  Te  Te74  1  0.09913356  0.12403660  0.73597204  1
  Te  Te75  1  0.10720686  0.40389040  0.07483747  1
  Te  Te76  1  0.07805000  0.42323449  0.41801791  1
  Te  Te77  1  0.08162384  0.40219877  0.75816692  1
  Te  Te78  1  0.08840989  0.76176053  0.08714098  1
  Te  Te79  1  0.10580205  0.72127097  0.42503889  1
  Te  Te80  1  0.08871732  0.75246432  0.75045230  1
  Te  Te81  1  0.41587944  0.07943117  0.09720938  1
  Te  Te82  1  0.44390982  0.08005944  0.41254531  1
  Te  Te83  1  0.41211819  0.10434741  0.72665657  1
  Te  Te84  1  0.42244936  0.41177211  0.10390415  1
  Te  Te85  1  0.38766840  0.40247908  0.36788107  1
  Te  Te86  1  0.42050207  0.42572656  0.72930315  1
  Te  Te87  1  0.37952177  0.79137133  0.06867904  1
  Te  Te88  1  0.42072988  0.72954873  0.42887482  1
  Te  Te89  1  0.38994730  0.75579642  0.75416743  1
  Te  Te90  1  0.75968502  0.09188359  0.07104042  1
  Te  Te91  1  0.73213479  0.07535474  0.41981704  1
  Te  Te92  1  0.75473218  0.06267906  0.75315453  1
  Te  Te93  1  0.74672407  0.37747447  0.07827300  1
  Te  Te94  1  0.76462941  0.40242744  0.42297717  1
  Te  Te95  1  0.73819918  0.42960122  0.76759165  1
  Te  Te96  1  0.74896033  0.74217318  0.08688981  1
  Te  Te97  1  0.73428553  0.74577659  0.40444380  1
  Te  Te98  1  0.74724603  0.73075422  0.75874273  1
  Te  Te99  1  0.08361852  0.22926782  0.26219509  1
  Te  Te100  1  0.09404011  0.27442585  0.56833081  1
  Te  Te101  1  0.05735070  0.23314937  0.93614330  1
  Te  Te102  1  0.11668207  0.56862024  0.25707076  1
  Te  Te103  1  0.08572682  0.54952920  0.59381358  1
  Te  Te104  1  0.08931956  0.58890362  0.91578317  1
  Te  Te105  1  0.09445605  0.92106648  0.25038494  1
  Te  Te106  1  0.08307129  0.89819192  0.57182401  1
  Te  Te107  1  0.10892976  0.91823664  0.93688244  1
  Te  Te108  1  0.36903831  0.22633170  0.22510416  1
  Te  Te109  1  0.40505670  0.27149132  0.57465069  1
  Te  Te110  1  0.43205790  0.24738413  0.91956762  1
  Te  Te111  1  0.39454924  0.59005799  0.23695046  1
  Te  Te112  1  0.44410859  0.54876321  0.62271809  1
  Te  Te113  1  0.42776959  0.61511791  0.90183084  1
  Te  Te114  1  0.37318709  0.91729004  0.25055070  1
  Te  Te115  1  0.39007530  0.91256660  0.58412205  1
  Te  Te116  1  0.43448191  0.94150331  0.91082579  1
  Te  Te117  1  0.78205830  0.25717624  0.23382319  1
  Te  Te118  1  0.73765964  0.21495912  0.58027652  1
  Te  Te119  1  0.73025875  0.28453365  0.95381727  1
  Te  Te120  1  0.75290208  0.58155493  0.24725209  1
  Te  Te121  1  0.74169823  0.56998438  0.59255787  1
  Te  Te122  1  0.73148337  0.57060627  0.93150947  1
  Te  Te123  1  0.74513912  0.92662730  0.23185824  1
  Te  Te124  1  0.74139348  0.91041615  0.58335724  1
  Te  Te125  1  0.73459665  0.90592136  0.91330994  1
  Te  Te126  1  0.26452072  0.23891287  0.09514015  1
  Te  Te127  1  0.24675956  0.22929465  0.39429425  1
  Te  Te128  1  0.25427437  0.28634753  0.74959735  1
  Te  Te129  1  0.26078098  0.58857227  0.05884414  1
  Te  Te130  1  0.31183793  0.52098053  0.45918190  1
  Te  Te131  1  0.23924200  0.58382498  0.75340706  1
  Te  Te132  1  0.27260294  0.90682297  0.12625704  1
  Te  Te133  1  0.28897188  0.92447082  0.38505800  1
  Te  Te134  1  0.24258780  0.94389567  0.75992559  1
  Te  Te135  1  0.57020597  0.26667724  0.10851992  1
  Te  Te136  1  0.56896239  0.26175688  0.40958634  1
  Te  Te137  1  0.59593380  0.24424536  0.75347293  1
  Te  Te138  1  0.56926954  0.58608400  0.09922054  1
  Te  Te139  1  0.56070701  0.58550382  0.42979318  1
  Te  Te140  1  0.54953008  0.60395338  0.72050325  1
  Te  Te141  1  0.56743688  0.90021751  0.08767554  1
  Te  Te142  1  0.55703648  0.88789659  0.40702074  1
  Te  Te143  1  0.57709533  0.91567033  0.74248046  1
  Te  Te144  1  0.96490039  0.27353951  0.05345181  1
  Te  Te145  1  0.90941697  0.23299081  0.41440143  1
  Te  Te146  1  0.92568662  0.26766537  0.73184205  1
  Te  Te147  1  0.92453360  0.57339967  0.08692480  1
  Te  Te148  1  0.91519900  0.59207214  0.42380066  1
  Te  Te149  1  0.92485132  0.60509346  0.75005083  1
  Te  Te150  1  0.90788072  0.92648557  0.06794179  1
  Te  Te151  1  0.90469051  0.91906574  0.42187605  1
  Te  Te152  1  0.93354803  0.93462099  0.75904479  1
  Te  Te153  1  0.28039293  0.11527800  0.28100076  1
  Te  Te154  1  0.25332919  0.07524572  0.57021688  1
  Te  Te155  1  0.25930169  0.09597775  0.92552342  1
  Te  Te156  1  0.22535056  0.43034981  0.26621653  1
  Te  Te157  1  0.27539823  0.42745346  0.56564245  1
  Te  Te158  1  0.25836699  0.41945563  0.91024218  1
  Te  Te159  1  0.25624025  0.73540101  0.26415954  1
  Te  Te160  1  0.23386570  0.72401488  0.57894431  1
  Te  Te161  1  0.27094317  0.76090098  0.95464358  1
  Te  Te162  1  0.58981602  0.08635335  0.24701484  1
  Te  Te163  1  0.54976682  0.06858176  0.55314495  1
  Te  Te164  1  0.60694737  0.09454784  0.91438540  1
  Te  Te165  1  0.59779049  0.42531312  0.25993731  1
  Te  Te166  1  0.58835959  0.40018711  0.58504491  1
  Te  Te167  1  0.56642888  0.43604786  0.92202540  1
  Te  Te168  1  0.54791496  0.74822870  0.25124547  1
  Te  Te169  1  0.58539820  0.72617404  0.60754009  1
  Te  Te170  1  0.54469967  0.73725654  0.91611899  1
  Te  Te171  1  0.91163251  0.07266590  0.22582301  1
  Te  Te172  1  0.92332613  0.06994851  0.57755296  1
  Te  Te173  1  0.93986828  0.11507237  0.90289844  1
  Te  Te174  1  0.92827971  0.41756267  0.23796049  1
  Te  Te175  1  0.90400301  0.38819127  0.59658166  1
  Te  Te176  1  0.90610903  0.42368266  0.93120997  1
  Te  Te177  1  0.92713807  0.74856626  0.25780836  1
  Te  Te178  1  0.90113987  0.76367036  0.59161537  1
  Te  Te179  1  0.91313075  0.76570390  0.92706517  1
