# generated using pymatgen
data_In2Te3
_symmetry_space_group_name_H-M   'P 1'
_cell_length_a   18.78130983
_cell_length_b   18.77285446
_cell_length_c   18.76708654
_cell_angle_alpha   89.98014862
_cell_angle_beta   90.02145606
_cell_angle_gamma   90.08650110
_symmetry_Int_Tables_number   1
_chemical_formula_structural   In2Te3
_chemical_formula_sum   'In72 Te108'
_cell_volume   6616.86837728
_cell_formula_units_Z   36
loop_
 _symmetry_equiv_pos_site_id
 _symmetry_equiv_pos_as_xyz
  1  'x, y, z'
loop_
 _atom_site_type_symbol
 _atom_site_label
 _atom_site_symmetry_multiplicity
 _atom_site_fract_x
 _atom_site_fract_y
 _atom_site_fract_z
 _atom_site_occupancy
  In  In0  1  0.48244725  0.15809991  0.65879903  1
  In  In1  1  0.36044861  0.48854601  0.50091933  1
  In  In2  1  0.82650210  0.47957875  0.65762186  1
  In  In3  1  0.00362893  0.67474105  0.66517020  1
  In  In4  1  0.33544929  0.15043082  0.18384638  1
  In  In5  1  0.03232633  0.00733223  0.33036717  1
  In  In6  1  0.84687120  -0.00661395  0.14926818  1
  In  In7  1  0.67718615  0.82852265  0.48732317  1
  In  In8  1  0.15229975  0.49322512  0.32088697  1
  In  In9  1  0.18108049  0.85865577  0.32850833  1
  In  In10  1  0.48348528  -0.00728317  0.83613978  1
  In  In11  1  0.85283377  0.83973283  0.66520208  1
  In  In12  1  -0.00430623  0.34740932  -0.00244086  1
  In  In13  1  0.50359896  0.65830077  0.15585408  1
  In  In14  1  0.31970787  0.87274304  0.15529706  1
  In  In15  1  0.01958463  0.15560839  0.15664989  1
  In  In16  1  0.83887562  0.85426524  0.32576363  1
  In  In17  1  0.52673424  0.44333018  0.31823904  1
  In  In18  1  0.30653529  0.69254991  -0.01912828  1
  In  In19  1  0.33646709  0.32231733  0.67712170  1
  In  In20  1  0.47214546  0.01784616  0.47625966  1
  In  In21  1  0.00320522  0.16562967  0.49650225  1
  In  In22  1  0.50407091  0.31971396  0.50714518  1
  In  In23  1  0.48034233  0.16637163  0.01781211  1
  In  In24  1  0.65593144  0.84135639  0.86250093  1
  In  In25  1  0.66947279  0.01390588  0.31384158  1
  In  In26  1  -0.00385222  0.16222818  0.82573099  1
  In  In27  1  0.17812454  0.51857231  0.66009158  1
  In  In28  1  0.64800247  0.64898605  0.33048373  1
  In  In29  1  0.15827325  0.67027407  0.51426188  1
  In  In30  1  0.50380167  0.84293703  -0.00160849  1
  In  In31  1  0.18182361  0.87065649  0.68598640  1
  In  In32  1  0.49436518  0.49320713  0.01852715  1
  In  In33  1  -0.01846494  0.32410807  0.66497559  1
  In  In34  1  0.19289685  0.29161061  0.46422708  1
  In  In35  1  0.19230748  0.12918716  -0.01582043  1
  In  In36  1  0.50113262  0.65037780  0.49129818  1
  In  In37  1  0.33897697  0.49125806  0.83734865  1
  In  In38  1  0.33837894  0.67074177  0.34124183  1
  In  In39  1  0.83917940  0.16102933  -0.03686280  1
  In  In40  1  0.18778956  0.13052355  0.65313695  1
  In  In41  1  0.67812429  0.17642823  0.83914422  1
  In  In42  1  0.83418409  0.83188420  0.00011535  1
  In  In43  1  0.65519399  0.03151117  0.67732318  1
  In  In44  1  0.83849746  0.49943115  0.00935216  1
  In  In45  1  0.01407727  -0.00069141  0.65333490  1
  In  In46  1  0.47088744  0.82709998  0.65474684  1
  In  In47  1  0.82148310  0.67397273  0.83961546  1
  In  In48  1  0.84131761  0.65755409  0.52110188  1
  In  In49  1  0.48222693  0.83429897  0.31028660  1
  In  In50  1  0.32938727  0.67554539  0.70569828  1
  In  In51  1  0.30120090  0.87637673  0.49484141  1
  In  In52  1  0.83020941  0.66486618  0.15147006  1
  In  In53  1  0.66466008  -0.01202104  0.01077340  1
  In  In54  1  0.64933804  0.17127421  0.17463642  1
  In  In55  1  0.81993015  0.33237791  0.17606164  1
  In  In56  1  0.34600268  0.48431545  0.16845324  1
  In  In57  1  0.67059101  0.63521413  0.67796938  1
  In  In58  1  0.00418048  0.51157208  0.85831349  1
  In  In59  1  0.17244327  0.34256964  0.84042902  1
  In  In60  1  0.65969076  0.50587588  0.82577162  1
  In  In61  1  0.84537896  0.01904952  0.49159571  1
  In  In62  1  -0.01169540  0.66939025  0.33350144  1
  In  In63  1  0.66645023  0.33105992  0.63896450  1
  In  In64  1  0.48745633  0.32340236  0.85383654  1
  In  In65  1  0.81548226  0.18619649  0.32068656  1
  In  In66  1  0.01842843  0.84505766  0.84571956  1
  In  In67  1  0.16508844  0.49379224  -0.00600706  1
  In  In68  1  0.80289763  0.46812506  0.35455705  1
  In  In69  1  0.15131986  0.69690140  0.12866240  1
  In  In70  1  -0.00481596  0.33970079  0.31969420  1
  In  In71  1  0.16254502  0.31297518  0.16744633  1
  Te  Te72  1  0.11354292  0.05679871  0.09437918  1
  Te  Te73  1  0.10498030  0.07531053  0.44022055  1
  Te  Te74  1  0.09862026  0.06788073  0.76151677  1
  Te  Te75  1  0.07895730  0.42298421  0.10039919  1
  Te  Te76  1  0.08925548  0.40123939  0.42457173  1
  Te  Te77  1  0.08099848  0.42477889  0.74954231  1
  Te  Te78  1  0.07122477  0.80281981  0.06617591  1
  Te  Te79  1  0.09299945  0.75483972  0.40692115  1
  Te  Te80  1  0.09928769  0.75465990  0.74950374  1
  Te  Te81  1  0.41050678  0.05911640  0.09176528  1
  Te  Te82  1  0.43624020  0.13674042  0.38937711  1
  Te  Te83  1  0.39907654  0.09562377  0.76678573  1
  Te  Te84  1  0.42254146  0.38432582  0.09197281  1
  Te  Te85  1  0.40778192  0.38839102  0.39937178  1
  Te  Te86  1  0.43410401  0.41894501  0.74306791  1
  Te  Te87  1  0.40091469  0.75203174  0.09284009  1
  Te  Te88  1  0.41461939  0.76707941  0.43566898  1
  Te  Te89  1  0.42587614  0.76082489  0.77786672  1
  Te  Te90  1  0.75358172  0.10002182  0.08632727  1
  Te  Te91  1  0.73655672  0.09902872  0.42164194  1
  Te  Te92  1  0.76531748  0.09465958  0.75038821  1
  Te  Te93  1  0.73816280  0.41713747  0.08573959  1
  Te  Te94  1  0.71940915  0.37642503  0.44781571  1
  Te  Te95  1  0.74320172  0.39909265  0.75563278  1
  Te  Te96  1  0.73673779  0.75350065  0.07802271  1
  Te  Te97  1  0.76398571  0.73531587  0.40255196  1
  Te  Te98  1  0.74393838  0.76311566  0.74115144  1
  Te  Te99  1  0.08791144  0.22861779  0.27191663  1
  Te  Te100  1  0.09728478  0.24780388  0.59355175  1
  Te  Te101  1  0.09046097  0.24710220  0.93139801  1
  Te  Te102  1  0.08671339  0.60057199  0.23749845  1
  Te  Te103  1  0.06182375  0.56682890  0.57256502  1
  Te  Te104  1  0.09025018  0.60582655  0.93140268  1
  Te  Te105  1  0.08067894  0.90924421  0.23122183  1
  Te  Te106  1  0.10375674  0.91709686  0.56907310  1
  Te  Te107  1  0.12694159  0.89611540  0.93863640  1
  Te  Te108  1  0.42644191  0.23359099  0.26841031  1
  Te  Te109  1  0.38869622  0.23396497  0.56536873  1
  Te  Te110  1  0.39421161  0.22485951  0.91078387  1
  Te  Te111  1  0.43110433  0.57338921  0.26890820  1
  Te  Te112  1  0.41160944  0.59098363  0.60037751  1
  Te  Te113  1  0.40954742  0.58986216  0.93038206  1
  Te  Te114  1  0.40413356  0.94629072  0.25519008  1
  Te  Te115  1  0.39574274  0.95073310  0.59935059  1
  Te  Te116  1  0.39165187  0.91531106  0.92853496  1
  Te  Te117  1  0.70331351  0.28224477  0.27444961  1
  Te  Te118  1  0.76430035  0.26907609  0.54867612  1
  Te  Te119  1  0.73738991  0.26397027  0.94277783  1
  Te  Te120  1  0.75054420  0.57102363  0.25202131  1
  Te  Te121  1  0.73318361  0.55847844  0.56339781  1
  Te  Te122  1  0.73816200  0.58800677  0.92984680  1
  Te  Te123  1  0.74026840  0.91192734  0.22473410  1
  Te  Te124  1  0.75343589  0.92466464  0.57967278  1
  Te  Te125  1  0.76477785  0.93666337  0.90757467  1
  Te  Te126  1  0.25553043  0.23430264  0.07815117  1
  Te  Te127  1  0.27169273  0.20157436  0.37196232  1
  Te  Te128  1  0.24177719  0.23548406  0.75830055  1
  Te  Te129  1  0.25607124  0.58086902  0.09094308  1
  Te  Te130  1  0.24929174  0.57523340  0.42213560  1
  Te  Te131  1  0.23161323  0.58738702  0.78466966  1
  Te  Te132  1  0.21915066  0.94021158  0.07079206  1
  Te  Te133  1  0.26880467  0.97209788  0.38174984  1
  Te  Te134  1  0.27255901  0.92617809  0.78848807  1
  Te  Te135  1  0.56724050  0.26641388  0.09088752  1
  Te  Te136  1  0.60819925  0.27212665  0.41132947  1
  Te  Te137  1  0.57560925  0.24620226  0.74608200  1
  Te  Te138  1  0.59982354  0.56580369  0.09545010  1
  Te  Te139  1  0.58544069  0.54451336  0.42169155  1
  Te  Te140  1  0.55961939  0.59760930  0.76539819  1
  Te  Te141  1  0.56480816  0.93008521  0.10158996  1
  Te  Te142  1  0.57930574  0.91848176  0.41245829  1
  Te  Te143  1  0.58172379  0.91311840  0.74012080  1
  Te  Te144  1  0.91830153  0.24972295  0.09016608  1
  Te  Te145  1  0.91000280  0.25873516  0.41805819  1
  Te  Te146  1  0.89665188  0.24970242  0.76031305  1
  Te  Te147  1  0.93400067  0.58988454  0.07629720  1
  Te  Te148  1  0.90902451  0.56833806  0.41603553  1
  Te  Te149  1  0.90790397  0.58547182  0.74629088  1
  Te  Te150  1  0.94251062  0.91145079  0.07034240  1
  Te  Te151  1  0.93594150  0.92040007  0.42146624  1
  Te  Te152  1  0.92411018  0.93160830  0.76140629  1
  Te  Te153  1  0.23321546  0.08338058  0.27285909  1
  Te  Te154  1  0.27689049  0.05146461  0.56644523  1
  Te  Te155  1  0.27560051  0.04576062  0.89211716  1
  Te  Te156  1  0.25381322  0.39942044  0.25687022  1
  Te  Te157  1  0.24878380  0.40861241  0.58070054  1
  Te  Te158  1  0.27285578  0.39968466  0.94034981  1
  Te  Te159  1  0.25294633  0.74849341  0.24253736  1
  Te  Te160  1  0.26053060  0.75437707  0.58988288  1
  Te  Te161  1  0.24248916  0.79838348  0.89709818  1
  Te  Te162  1  0.55422087  0.09292742  0.26049086  1
  Te  Te163  1  0.58177808  0.09403980  0.56150342  1
  Te  Te164  1  0.58293367  0.08080152  0.91753974  1
  Te  Te165  1  0.60032655  0.39754655  0.19849908  1
  Te  Te166  1  0.56100557  0.42513448  0.59547794  1
  Te  Te167  1  0.58713277  0.41239748  0.92468390  1
  Te  Te168  1  0.59125944  0.75672936  0.23849568  1
  Te  Te169  1  0.59022248  0.74433479  0.58085269  1
  Te  Te170  1  0.58180291  0.73594058  0.93185313  1
  Te  Te171  1  0.91056752  0.08391532  0.25860593  1
  Te  Te172  1  0.91170329  0.10141792  0.60136206  1
  Te  Te173  1  0.95098717  0.07167064  0.93504593  1
  Te  Te174  1  0.91001388  0.43719172  0.24253596  1
  Te  Te175  1  0.91878509  0.41232674  0.56451320  1
  Te  Te176  1  0.89937170  0.40905680  0.89788147  1
  Te  Te177  1  0.91961046  0.76289699  0.23455034  1
  Te  Te178  1  0.93939967  0.76821348  0.56230940  1
  Te  Te179  1  0.92979998  0.74015148  0.92017177  1
