# generated using pymatgen
data_In2Te3
_symmetry_space_group_name_H-M   'P 1'
_cell_length_a   19.04328694
_cell_length_b   19.04210119
_cell_length_c   19.02982560
_cell_angle_alpha   90.11256959
_cell_angle_beta   89.91652201
_cell_angle_gamma   90.10809578
_symmetry_Int_Tables_number   1
_chemical_formula_structural   In2Te3
_chemical_formula_sum   'In72 Te108'
_cell_volume   6900.64233904
_cell_formula_units_Z   36
loop_
 _symmetry_equiv_pos_site_id
 _symmetry_equiv_pos_as_xyz
  1  'x, y, z'
loop_
 _atom_site_type_symbol
 _atom_site_label
 _atom_site_symmetry_multiplicity
 _atom_site_fract_x
 _atom_site_fract_y
 _atom_site_fract_z
 _atom_site_occupancy
  In  In0  1  0.48591575  0.32319078  0.17475071  1
  In  In1  1  -0.00152508  0.34885798  -0.01844077  1
  In  In2  1  0.17989259  0.48691789  0.00943844  1
  In  In3  1  0.00775305  0.84434617  0.47253156  1
  In  In4  1  0.51814081  0.68078161  0.47765294  1
  In  In5  1  0.30569213  0.85045738  0.16680576  1
  In  In6  1  0.32504028  0.51608335  0.84771188  1
  In  In7  1  0.00832936  0.36042719  0.68365411  1
  In  In8  1  0.66840876  0.65811859  -0.02329001  1
  In  In9  1  -0.02957262  0.63053305  0.69888838  1
  In  In10  1  0.02816219  0.20096215  0.15609572  1
  In  In11  1  0.49304395  0.50326955  0.66881784  1
  In  In12  1  0.33524006  0.01024860  0.01701097  1
  In  In13  1  0.02350681  0.01820990  0.00113643  1
  In  In14  1  0.49401737  0.48999180  0.00392592  1
  In  In15  1  0.78801852  0.33739436  0.87409638  1
  In  In16  1  0.23330068  0.19441826  0.01199992  1
  In  In17  1  0.18044787  0.34516457  0.82922443  1
  In  In18  1  0.15741941  0.16103153  0.67571122  1
  In  In19  1  0.30188505  0.84283499  0.50642835  1
  In  In20  1  0.35292503  0.47459972  0.49602699  1
  In  In21  1  0.84038222  0.83900794  0.67609173  1
  In  In22  1  0.19481751  0.68267766  -0.03815182  1
  In  In23  1  0.67491333  0.84592262  0.82899560  1
  In  In24  1  0.16008644  0.82571578  0.32838090  1
  In  In25  1  0.50255948  0.66931539  0.16377276  1
  In  In26  1  0.02168445  0.82776770  0.14774050  1
  In  In27  1  0.02199636  0.16619583  0.50981218  1
  In  In28  1  0.65688046  0.33039809  0.33650073  1
  In  In29  1  0.49610477  0.81130877  0.67114082  1
  In  In30  1  0.49601833  0.66602442  0.83887208  1
  In  In31  1  0.49435248  0.86823188  0.02011183  1
  In  In32  1  0.00631941  0.51711674  0.15333945  1
  In  In33  1  0.79863672  0.18215473  0.70991707  1
  In  In34  1  -0.00418317  0.16224450  0.84260657  1
  In  In35  1  0.00219660  0.84189900  0.85047790  1
  In  In36  1  0.50998388  0.01883876  0.84528982  1
  In  In37  1  0.48226612  0.33463181  0.49516306  1
  In  In38  1  0.21147169  0.16908565  0.33263964  1
  In  In39  1  0.48064807  0.03083527  0.15252539  1
  In  In40  1  0.16252112  0.82058147  0.66653179  1
  In  In41  1  0.83433557  0.65864660  0.51494561  1
  In  In42  1  0.81426918  0.00636922  0.15503670  1
  In  In43  1  0.67623157  -0.00718692  0.33000568  1
  In  In44  1  0.45848576  0.17807500  0.34244856  1
  In  In45  1  0.49933697  0.47593246  0.33992215  1
  In  In46  1  0.00403937  0.48781479  0.51244490  1
  In  In47  1  0.85376499  0.66171126  0.15801228  1
  In  In48  1  0.35407095  0.33939416  0.68586727  1
  In  In49  1  0.50282135  0.85016489  0.29977911  1
  In  In50  1  0.85381160  0.00560339  0.51430752  1
  In  In51  1  0.65865814  0.48773337  0.86287620  1
  In  In52  1  0.80952759  0.85580782  -0.01146448  1
  In  In53  1  0.33081005  0.65689640  0.34148380  1
  In  In54  1  0.85477382  0.30556555  0.53080002  1
  In  In55  1  -0.00213615  0.64531449  -0.03499622  1
  In  In56  1  0.00521096  0.36329629  0.33241035  1
  In  In57  1  0.81631453  0.48538440  0.31186298  1
  In  In58  1  0.48538952  0.28133402  0.85808904  1
  In  In59  1  0.02046997  0.01571283  0.32781549  1
  In  In60  1  0.50963427  0.16247228  0.68247371  1
  In  In61  1  -0.00020781  0.66318328  0.34254788  1
  In  In62  1  0.69484890  0.83558944  0.49956282  1
  In  In63  1  0.30621587  -0.01847151  0.68342726  1
  In  In64  1  0.00992422  -0.02129650  0.68554185  1
  In  In65  1  0.68470737  0.51082349  0.50598305  1
  In  In66  1  0.79260296  0.32697086  0.09630601  1
  In  In67  1  0.83319975  0.15349945  0.32586356  1
  In  In68  1  0.64302582  0.83943414  0.15877559  1
  In  In69  1  0.19507077  0.47217473  0.31324426  1
  In  In70  1  0.49534979  0.02336942  0.50832068  1
  In  In71  1  0.65780978  0.16804340  0.16987748  1
  Te  Te72  1  0.11434104  0.10522469  0.08311638  1
  Te  Te73  1  0.11259153  0.08444732  0.42313028  1
  Te  Te74  1  0.09324498  0.06672460  0.77502022  1
  Te  Te75  1  0.08493925  0.40365785  0.09330060  1
  Te  Te76  1  0.10679192  0.41428997  0.42909512  1
  Te  Te77  1  0.09714052  0.44591798  0.76306868  1
  Te  Te78  1  0.08466425  0.72171707  0.06673557  1
  Te  Te79  1  0.10006232  0.73181301  0.43157575  1
  Te  Te80  1  0.05767479  0.74475897  0.74944949  1
  Te  Te81  1  0.43858261  0.12091770  0.04144663  1
  Te  Te82  1  0.39032948  0.07973535  0.42503472  1
  Te  Te83  1  0.40625377  0.07670478  0.75223612  1
  Te  Te84  1  0.40359293  0.42276476  0.10097955  1
  Te  Te85  1  0.38624979  0.37240334  0.37894379  1
  Te  Te86  1  0.43963745  0.41779000  0.78346189  1
  Te  Te87  1  0.41138666  0.76582771  0.09293054  1
  Te  Te88  1  0.41733925  0.76655630  0.40028874  1
  Te  Te89  1  0.39789006  0.73242739  0.75005693  1
  Te  Te90  1  0.75256528  0.10895665  0.07283088  1
  Te  Te91  1  0.75025001  0.08173003  0.42730458  1
  Te  Te92  1  0.71818596  0.09673191  0.79863854  1
  Te  Te93  1  0.73360259  0.41773198  -0.00407983  1
  Te  Te94  1  0.76015659  0.39449031  0.42691460  1
  Te  Te95  1  0.70593615  0.38986329  0.76206511  1
  Te  Te96  1  0.74210793  0.75023125  0.08072721  1
  Te  Te97  1  0.76550000  0.74032648  0.41617790  1
  Te  Te98  1  0.75839547  0.74991083  0.75740935  1
  Te  Te99  1  0.09715713  0.25890460  0.27524196  1
  Te  Te100  1  0.09261285  0.27078564  0.59214108  1
  Te  Te101  1  0.09638639  0.25117764  0.91962457  1
  Te  Te102  1  0.09241562  0.57610218  0.26113951  1
  Te  Te103  1  0.06670700  0.58748964  0.59762464  1
  Te  Te104  1  0.10840172  0.56776256  0.89992055  1
  Te  Te105  1  0.09803688  0.92787992  0.23206746  1
  Te  Te106  1  0.09109674  0.91930094  0.57363726  1
  Te  Te107  1  0.09924996  0.90821459  0.93869327  1
  Te  Te108  1  0.38149823  0.21290572  0.21608657  1
  Te  Te109  1  0.41406414  0.24059729  0.58913351  1
  Te  Te110  1  0.37119957  0.22409859  0.93974546  1
  Te  Te111  1  0.42310067  0.57571715  0.25364360  1
  Te  Te112  1  0.43018161  0.58960553  0.56030709  1
  Te  Te113  1  0.40977458  0.59873527  0.94210951  1
  Te  Te114  1  0.39869914  0.94308285  0.24467138  1
  Te  Te115  1  0.41712068  0.91080643  0.58807816  1
  Te  Te116  1  0.41086361  0.92244747  0.91078211  1
  Te  Te117  1  0.76265204  0.25959886  0.24535143  1
  Te  Te118  1  0.74213348  0.23235659  0.58486225  1
  Te  Te119  1  0.73120097  0.20483051  0.91569219  1
  Te  Te120  1  0.75139145  0.58477253  0.22879351  1
  Te  Te121  1  0.75681722  0.58123293  0.61053678  1
  Te  Te122  1  0.76042313  0.59848551  0.87707907  1
  Te  Te123  1  0.75613487  0.89950237  0.24409197  1
  Te  Te124  1  0.75081850  0.93504397  0.59982234  1
  Te  Te125  1  0.72808370  0.95199242  0.91623383  1
  Te  Te126  1  0.25448051  0.27006265  0.13992422  1
  Te  Te127  1  0.28357565  0.26275023  0.41654138  1
  Te  Te128  1  0.25971492  0.24256081  0.75419575  1
  Te  Te129  1  0.24786704  0.60043236  0.07076527  1
  Te  Te130  1  0.25051239  0.56222604  0.42515614  1
  Te  Te131  1  0.27728329  0.53472904  0.71275524  1
  Te  Te132  1  0.23531871  0.90491297  0.05091127  1
  Te  Te133  1  0.24777061  0.91964860  0.39718726  1
  Te  Te134  1  0.24224029  0.88374963  0.77738270  1
  Te  Te135  1  0.56590273  0.24008761  0.08112657  1
  Te  Te136  1  0.57529621  0.23813141  0.42103428  1
  Te  Te137  1  0.58789937  0.27158318  0.74866532  1
  Te  Te138  1  0.59077984  0.57925229  0.07997264  1
  Te  Te139  1  0.59675921  0.57563772  0.40194684  1
  Te  Te140  1  0.58712647  0.58183715  0.75680002  1
  Te  Te141  1  0.59602716  0.96039689  0.08219190  1
  Te  Te142  1  0.58146199  0.91244114  0.41777564  1
  Te  Te143  1  0.57212199  0.91836497  0.74622700  1
  Te  Te144  1  0.91923581  0.24765086  0.06207193  1
  Te  Te145  1  0.93141516  0.23992671  0.40910855  1
  Te  Te146  1  0.91744189  0.26064959  0.75876717  1
  Te  Te147  1  0.90372437  0.56448882  0.05333471  1
  Te  Te148  1  0.91249080  0.55678999  0.40718702  1
  Te  Te149  1  0.89849536  0.54838067  0.79445837  1
  Te  Te150  1  0.91768449  0.91566989  0.08238550  1
  Te  Te151  1  0.91280030  0.93227401  0.39495390  1
  Te  Te152  1  0.90179646  0.93184169  0.77899213  1
  Te  Te153  1  0.26637681  0.11267956  0.20793617  1
  Te  Te154  1  0.24458311  0.07794396  0.59378684  1
  Te  Te155  1  0.25907015  0.08673019  0.91629867  1
  Te  Te156  1  0.27275430  0.41173141  0.20467494  1
  Te  Te157  1  0.26096757  0.42487108  0.60481690  1
  Te  Te158  1  0.27751678  0.40032332  0.93216567  1
  Te  Te159  1  0.24507360  0.73376589  0.24386514  1
  Te  Te160  1  0.25632770  0.73654232  0.59225431  1
  Te  Te161  1  0.26083070  0.74306287  0.84621754  1
  Te  Te162  1  0.57448571  0.08726956  0.26934190  1
  Te  Te163  1  0.59522096  0.08225094  0.59438243  1
  Te  Te164  1  0.59206721  0.14174697  0.88404514  1
  Te  Te165  1  0.59250099  0.41694104  0.23277848  1
  Te  Te166  1  0.57816017  0.42248176  0.57194148  1
  Te  Te167  1  0.57024718  0.37667469  0.94286244  1
  Te  Te168  1  0.59663086  0.73858199  0.26116412  1
  Te  Te169  1  0.60207756  0.74617388  0.58462746  1
  Te  Te170  1  0.57554356  0.77008035  0.93031957  1
  Te  Te171  1  0.93082614  0.09049105  0.22720354  1
  Te  Te172  1  0.93506148  0.09134500  0.60854848  1
  Te  Te173  1  0.91376725  0.07924930  0.92930618  1
  Te  Te174  1  0.91461173  0.41205287  0.22298843  1
  Te  Te175  1  0.89780207  0.42821794  0.60416676  1
  Te  Te176  1  0.91261717  0.42599621  0.89002899  1
  Te  Te177  1  0.93040227  0.75683541  0.24767338  1
  Te  Te178  1  0.92366191  0.76697830  0.57269099  1
  Te  Te179  1  0.90122523  0.75493475  0.92161859  1
