# generated using pymatgen
data_In2Te3
_symmetry_space_group_name_H-M   'P 1'
_cell_length_a   18.97283266
_cell_length_b   18.97308656
_cell_length_c   19.01479565
_cell_angle_alpha   89.79868118
_cell_angle_beta   90.10971727
_cell_angle_gamma   90.12324655
_symmetry_Int_Tables_number   1
_chemical_formula_structural   In2Te3
_chemical_formula_sum   'In72 Te108'
_cell_volume   6844.74622802
_cell_formula_units_Z   36
loop_
 _symmetry_equiv_pos_site_id
 _symmetry_equiv_pos_as_xyz
  1  'x, y, z'
loop_
 _atom_site_type_symbol
 _atom_site_label
 _atom_site_symmetry_multiplicity
 _atom_site_fract_x
 _atom_site_fract_y
 _atom_site_fract_z
 _atom_site_occupancy
  In  In0  1  0.17784559  0.83104542  0.66206781  1
  In  In1  1  0.14086059  0.51698877  0.65036701  1
  In  In2  1  -0.03668852  0.18409070  0.46584970  1
  In  In3  1  0.85122446  0.68873054  0.47723752  1
  In  In4  1  0.82260208  0.81266175  0.00970345  1
  In  In5  1  0.30936874  0.66924759  0.34853338  1
  In  In6  1  0.80476937  0.16152747  -0.00106825  1
  In  In7  1  0.49930169  0.68396165  0.53234829  1
  In  In8  1  0.34670834  0.34747174  -0.00098870  1
  In  In9  1  0.32242308  0.67390508  0.66766861  1
  In  In10  1  0.65503175  0.65562653  0.01629844  1
  In  In11  1  0.34509550  0.18569043  0.82781220  1
  In  In12  1  0.06235385  0.37109835  0.49843761  1
  In  In13  1  0.33243360  0.00851653  0.66832656  1
  In  In14  1  0.19311454  0.81078231  -0.00764384  1
  In  In15  1  0.17782617  0.64254352  0.84616488  1
  In  In16  1  0.68602814  0.67810948  0.64863005  1
  In  In17  1  0.32812809  0.35723503  0.64762160  1
  In  In18  1  0.50477309  0.51159786  0.68752863  1
  In  In19  1  0.51579977  0.49324487  0.32527290  1
  In  In20  1  0.14232601  -0.01084783  0.47008801  1
  In  In21  1  0.01267490  0.29210288  0.66698409  1
  In  In22  1  0.85010151  0.53082403  0.32685937  1
  In  In23  1  0.17503235  -0.00308127  0.81091943  1
  In  In24  1  0.67105592  0.50490118  0.85326220  1
  In  In25  1  0.02656831  0.82826367  0.82729500  1
  In  In26  1  0.16681773  0.15380567  -0.01805703  1
  In  In27  1  -0.00531371  0.69358111  0.31616655  1
  In  In28  1  0.82146829  -0.01533958  0.83170133  1
  In  In29  1  0.68961306  0.33647249  0.66152316  1
  In  In30  1  0.19253286  0.52103579  0.02153787  1
  In  In31  1  0.68306725  0.14192790  0.47463099  1
  In  In32  1  0.01821596  0.49568485  0.86407221  1
  In  In33  1  0.86818612  -0.00425744  0.20065165  1
  In  In34  1  0.65280581  0.82628244  0.84481866  1
  In  In35  1  0.16247375  0.68577401  0.16563668  1
  In  In36  1  0.68969508  0.50121607  0.47471046  1
  In  In37  1  0.52868781  0.33783714  0.84379625  1
  In  In38  1  0.12877995  0.36103084  0.23796856  1
  In  In39  1  0.31869485  0.14477583  0.14255871  1
  In  In40  1  0.33642395  0.81529211  0.17031545  1
  In  In41  1  0.68003466  -0.02711399  0.35262568  1
  In  In42  1  0.49910721  0.67693599  0.18770398  1
  In  In43  1  0.50272814  0.34858075  0.15172341  1
  In  In44  1  0.34605484  0.34282297  0.31321013  1
  In  In45  1  0.85341814  0.33769213  0.18422094  1
  In  In46  1  0.69453332  0.15553297  0.18995164  1
  In  In47  1  0.86417317  0.34477113  0.82105567  1
  In  In48  1  0.65356349  0.70702105  0.33795738  1
  In  In49  1  0.35481617  -0.01445815  0.03106435  1
  In  In50  1  0.14082120  0.18072319  0.34241806  1
  In  In51  1  0.01591549  0.02327119  0.66216404  1
  In  In52  1  0.67336598  0.32083726  0.02931921  1
  In  In53  1  0.01737340  0.32452277  0.02371856  1
  In  In54  1  0.17769876  0.32475359  0.83878252  1
  In  In55  1  0.91014002  0.52249388  0.64269908  1
  In  In56  1  0.81279886  0.66930843  0.83572893  1
  In  In57  1  0.80971740  0.67708624  0.16949348  1
  In  In58  1  0.32230738  0.16343377  0.49379194  1
  In  In59  1  0.51428685  0.16582694  0.33058617  1
  In  In60  1  0.84931358  0.85177388  0.61991385  1
  In  In61  1  0.68921627  0.16771053  0.80575795  1
  In  In62  1  -0.03089322  -0.00201062  -0.00471833  1
  In  In63  1  0.43271938  0.66304318  0.87129065  1
  In  In64  1  0.52101300  0.31233571  0.50598113  1
  In  In65  1  0.51027934  -0.00334325  0.84455737  1
  In  In66  1  0.12200264  -0.01138297  0.18805786  1
  In  In67  1  0.51932138  0.08799772  0.03500372  1
  In  In68  1  0.49606074  0.01493633  0.49333692  1
  In  In69  1  0.81428821  0.13001404  0.63820435  1
  In  In70  1  0.31080782  0.84575920  0.49489048  1
  In  In71  1  0.30738897  0.50369539  0.47467216  1
  Te  Te72  1  0.07160000  0.07908767  0.07288675  1
  Te  Te73  1  0.03890318  0.06996972  0.38737903  1
  Te  Te74  1  0.09783053  0.10515751  0.75154573  1
  Te  Te75  1  0.10250210  0.42389249  0.09665153  1
  Te  Te76  1  0.04625232  0.40593648  0.35668055  1
  Te  Te77  1  0.07889742  0.41131812  0.75010483  1
  Te  Te78  1  0.08015459  0.76541110  0.07136282  1
  Te  Te79  1  0.07229581  0.78491746  0.40537333  1
  Te  Te80  1  0.10101589  0.72762053  0.74517067  1
  Te  Te81  1  0.40742102  0.02303926  0.17101460  1
  Te  Te82  1  0.40271161  0.08442476  0.39383276  1
  Te  Te83  1  0.43058835  0.08952172  0.74916076  1
  Te  Te84  1  0.41323904  0.44596205  0.08714138  1
  Te  Te85  1  0.42754723  0.40748808  0.42985533  1
  Te  Te86  1  0.42095229  0.40715246  0.75811408  1
  Te  Te87  1  0.40871071  0.72592587  0.07895398  1
  Te  Te88  1  0.41070935  0.75041332  0.42889385  1
  Te  Te89  1  0.43377259  0.73148011  0.74221230  1
  Te  Te90  1  0.76392550  0.05685941  0.09943878  1
  Te  Te91  1  0.78267890  0.06930111  0.39676873  1
  Te  Te92  1  0.72590395  0.04067111  0.72669592  1
  Te  Te93  1  0.74620730  0.41282784  0.11402761  1
  Te  Te94  1  0.78739282  0.41786702  0.40439892  1
  Te  Te95  1  0.76204025  0.43425403  0.75182766  1
  Te  Te96  1  0.70890202  0.77124765  0.09853707  1
  Te  Te97  1  0.72984208  0.76791317  0.44938605  1
  Te  Te98  1  0.76497458  0.77760244  0.73892853  1
  Te  Te99  1  0.05186593  0.23076981  0.23275938  1
  Te  Te100  1  0.08223799  0.22756084  0.55053011  1
  Te  Te101  1  0.06896288  0.24390651  0.90630380  1
  Te  Te102  1  0.05610202  0.60009312  0.22244322  1
  Te  Te103  1  0.03231147  0.58259274  0.57639485  1
  Te  Te104  1  0.08003110  0.59991340  0.95401016  1
  Te  Te105  1  0.05533875  0.88912610  0.27921503  1
  Te  Te106  1  0.07643556  0.90871563  0.58213721  1
  Te  Te107  1  0.09067612  0.93119713  0.91882611  1
  Te  Te108  1  0.41370387  0.23758418  0.22760698  1
  Te  Te109  1  0.41107399  0.24517339  0.58615243  1
  Te  Te110  1  0.43853773  0.24914147  0.92943510  1
  Te  Te111  1  0.40942431  0.58227408  0.27063670  1
  Te  Te112  1  0.40357498  0.56742277  0.58000888  1
  Te  Te113  1  0.45026570  0.53510281  0.93765613  1
  Te  Te114  1  0.43470336  0.89156059  0.24957341  1
  Te  Te115  1  0.41269804  0.91601439  0.58252051  1
  Te  Te116  1  0.42467293  0.90581733  0.92864187  1
  Te  Te117  1  0.79005702  0.23232384  0.27470188  1
  Te  Te118  1  0.75779975  0.24935873  0.56228012  1
  Te  Te119  1  0.74487505  0.27791226  0.90302974  1
  Te  Te120  1  0.72559547  0.59540011  0.26610658  1
  Te  Te121  1  0.77366849  0.57487329  0.57950628  1
  Te  Te122  1  0.77502866  0.57222778  0.95050532  1
  Te  Te123  1  0.77244250  0.89774882  0.26095344  1
  Te  Te124  1  0.76954421  0.96596611  0.58164593  1
  Te  Te125  1  0.73630960  0.91603352  0.93480709  1
  Te  Te126  1  0.24479952  0.25297602  0.06664095  1
  Te  Te127  1  0.25168843  0.26369252  0.40509112  1
  Te  Te128  1  0.25025835  0.25169564  0.72847074  1
  Te  Te129  1  0.27550707  0.62011888  0.09272495  1
  Te  Te130  1  0.20579466  0.58087769  0.40643353  1
  Te  Te131  1  0.25274190  0.56069916  0.74211044  1
  Te  Te132  1  0.23184189  0.91825733  0.09816475  1
  Te  Te133  1  0.25463182  0.93604741  0.39380887  1
  Te  Te134  1  0.27435429  0.89764064  0.75734508  1
  Te  Te135  1  0.58386971  0.21765686  0.09504830  1
  Te  Te136  1  0.60997507  0.26059133  0.39800825  1
  Te  Te137  1  0.58576934  0.25149427  0.73257911  1
  Te  Te138  1  0.59360939  0.58216273  0.12665967  1
  Te  Te139  1  0.57751100  0.59505109  0.42947604  1
  Te  Te140  1  0.60577105  0.60127562  0.75480969  1
  Te  Te141  1  0.52207912  0.94356836  0.05692124  1
  Te  Te142  1  0.57799813  0.90755603  0.43665915  1
  Te  Te143  1  0.57442001  0.90537093  0.74992604  1
  Te  Te144  1  0.90581389  0.23584292  0.08042295  1
  Te  Te145  1  0.89250453  0.28214838  0.38146715  1
  Te  Te146  1  0.89537040  0.22525470  0.73362143  1
  Te  Te147  1  0.87872761  0.62102759  0.05501612  1
  Te  Te148  1  0.95057353  0.58522455  0.42567317  1
  Te  Te149  1  0.92865343  0.58496767  0.77876890  1
  Te  Te150  1  0.91977054  0.89541619  0.09297954  1
  Te  Te151  1  0.94828554  0.86620119  0.38810642  1
  Te  Te152  1  0.93388371  0.92287791  0.74939378  1
  Te  Te153  1  0.21898262  0.09213374  0.24546221  1
  Te  Te154  1  0.23402504  0.06777722  0.57076804  1
  Te  Te155  1  0.27734512  0.07730124  0.91346903  1
  Te  Te156  1  0.25600771  0.43415141  0.24456772  1
  Te  Te157  1  0.21246836  0.41252030  0.56199086  1
  Te  Te158  1  0.25319791  0.43041397  0.91193426  1
  Te  Te159  1  0.23208086  0.77229047  0.27011746  1
  Te  Te160  1  0.23091185  0.73115492  0.56218907  1
  Te  Te161  1  0.28165830  0.73318536  0.90264348  1
  Te  Te162  1  0.59621592  0.06297128  0.25819162  1
  Te  Te163  1  0.57986309  0.10564858  0.57149395  1
  Te  Te164  1  0.61098714  0.09401213  0.91057133  1
  Te  Te165  1  0.59673456  0.39535896  0.25348543  1
  Te  Te166  1  0.59042882  0.43110569  0.58443645  1
  Te  Te167  1  0.57353218  0.43905865  0.94931469  1
  Te  Te168  1  0.56379284  0.79474290  0.25616479  1
  Te  Te169  1  0.60270967  0.77885825  0.57936432  1
  Te  Te170  1  0.56472373  0.73294427  0.92413800  1
  Te  Te171  1  0.96345435  0.09873835  0.24958352  1
  Te  Te172  1  0.91860778  0.06280477  0.55261469  1
  Te  Te173  1  0.89993001  0.09496046  0.90064809  1
  Te  Te174  1  0.93318980  0.45671477  0.22798369  1
  Te  Te175  1  0.93270527  0.38838862  0.57857722  1
  Te  Te176  1  0.92018804  0.41310695  0.94488861  1
  Te  Te177  1  0.87068310  0.76951027  0.27367747  1
  Te  Te178  1  0.93253738  0.73609194  0.59228925  1
  Te  Te179  1  0.91864540  0.75602560  0.90560472  1
