# generated using pymatgen
data_In2Te3
_symmetry_space_group_name_H-M   'P 1'
_cell_length_a   19.00667955
_cell_length_b   19.00049694
_cell_length_c   19.00192761
_cell_angle_alpha   89.87893107
_cell_angle_beta   89.96010844
_cell_angle_gamma   90.00111991
_symmetry_Int_Tables_number   1
_chemical_formula_structural   In2Te3
_chemical_formula_sum   'In72 Te108'
_cell_volume   6862.26991942
_cell_formula_units_Z   36
loop_
 _symmetry_equiv_pos_site_id
 _symmetry_equiv_pos_as_xyz
  1  'x, y, z'
loop_
 _atom_site_type_symbol
 _atom_site_label
 _atom_site_symmetry_multiplicity
 _atom_site_fract_x
 _atom_site_fract_y
 _atom_site_fract_z
 _atom_site_occupancy
  In  In0  1  0.48870168  -0.03260171  0.50938415  1
  In  In1  1  0.85282049  0.01566468  0.11613318  1
  In  In2  1  0.19586794  0.64139783  0.14528928  1
  In  In3  1  0.50121948  0.18831479  0.31787033  1
  In  In4  1  0.00414224  0.50992878  0.83045732  1
  In  In5  1  0.64758727  0.51765126  0.50674159  1
  In  In6  1  0.83597776  0.52717160  0.34471791  1
  In  In7  1  0.31310251  0.15025463  0.49332352  1
  In  In8  1  0.16977723  -0.00970964  0.49718698  1
  In  In9  1  0.48887429  -0.03619576  0.16240998  1
  In  In10  1  0.01979854  0.66972579  0.35035326  1
  In  In11  1  0.34944364  0.55418589  0.52534151  1
  In  In12  1  0.68702354  0.35326579  0.65020773  1
  In  In13  1  0.80689149  0.81799822  0.01100333  1
  In  In14  1  0.00433892  0.48713469  0.14127577  1
  In  In15  1  0.16461387  0.35000443  0.83806692  1
  In  In16  1  0.82989098  0.33970933  0.49240664  1
  In  In17  1  0.49819123  0.14521826  0.65279978  1
  In  In18  1  0.52179964  0.51086009  0.02831761  1
  In  In19  1  0.18158423  0.67071373  0.84948099  1
  In  In20  1  0.02910205  0.81995677  0.18214344  1
  In  In21  1  0.80943047  0.65892222  0.81938072  1
  In  In22  1  0.34766735  -0.03325926  -0.02459940  1
  In  In23  1  0.00727468  0.34577947  -0.00311473  1
  In  In24  1  0.01354198  0.65168402  -0.00872490  1
  In  In25  1  0.00384690  0.83955464  0.85592296  1
  In  In26  1  0.86165236  0.02378807  0.84847352  1
  In  In27  1  0.33746832  0.19370663  0.16829649  1
  In  In28  1  0.47866693  0.74027098  -0.03088062  1
  In  In29  1  0.66333639  0.66559640  0.32678360  1
  In  In30  1  0.65932873  0.83245959  0.49097389  1
  In  In31  1  0.15228821  0.18729165  0.34202434  1
  In  In32  1  0.84835083  0.48915895  0.69112936  1
  In  In33  1  -0.00801824  0.01149929  0.29983135  1
  In  In34  1  0.33023868  -0.02502659  0.65957317  1
  In  In35  1  0.80934417  0.52805814  -0.00529496  1
  In  In36  1  0.67509117  0.17426236  0.17595888  1
  In  In37  1  0.18085196  0.49588668  0.32996710  1
  In  In38  1  0.82428066  0.00115703  0.49022581  1
  In  In39  1  0.15730738  0.35930737  0.50202146  1
  In  In40  1  0.33155557  0.15263366  0.82435387  1
  In  In41  1  0.00521947  0.33086408  0.68841252  1
  In  In42  1  -0.01242576  0.19164975  0.50399323  1
  In  In43  1  0.85945187  0.17360728  0.67329061  1
  In  In44  1  0.32637473  0.65059121  0.31669707  1
  In  In45  1  0.35488258  0.52436624  0.82510355  1
  In  In46  1  0.03388906  0.00311959  0.68572648  1
  In  In47  1  0.31453185  0.33567721  0.66113092  1
  In  In48  1  0.35007041  0.79540443  0.82179661  1
  In  In49  1  0.68660327  0.17040607  0.82097702  1
  In  In50  1  0.01198330  0.18074412  0.16290218  1
  In  In51  1  0.62574436  -0.06317759  0.68071151  1
  In  In52  1  0.83348471  0.68487418  0.51038686  1
  In  In53  1  0.13267076  0.66101810  0.54312359  1
  In  In54  1  0.49365363  0.34186890  0.47593838  1
  In  In55  1  0.34506859  -0.01266915  0.31981982  1
  In  In56  1  0.46694987  0.37770478  0.16306521  1
  In  In57  1  0.67236090  0.00018351  0.33723018  1
  In  In58  1  0.82458966  0.34820894  0.16477999  1
  In  In59  1  0.52224842  0.14017620  0.01598697  1
  In  In60  1  0.34934740  0.33119305  0.01833887  1
  In  In61  1  0.31778991  0.78283371  0.51513505  1
  In  In62  1  0.66238065  0.84591074  0.17529707  1
  In  In63  1  0.67977588  0.00211670  -0.01888365  1
  In  In64  1  0.15547460  -0.00546806  0.84577525  1
  In  In65  1  0.65951751  0.67889101  0.66744483  1
  In  In66  1  0.48205420  0.32186687  0.81700371  1
  In  In67  1  0.65559472  0.31450436  -0.00735728  1
  In  In68  1  0.46783885  0.51771042  0.30124540  1
  In  In69  1  -0.00619085  0.85881987  0.50381216  1
  In  In70  1  0.80693411  0.69306084  0.17214668  1
  In  In71  1  0.17311473  0.02097506  0.14830497  1
  Te  Te72  1  0.05702089  0.07100971  0.07101188  1
  Te  Te73  1  0.07588562  0.07870017  0.41704147  1
  Te  Te74  1  0.06713449  0.09926623  0.78953339  1
  Te  Te75  1  0.11114616  0.41359566  0.07609144  1
  Te  Te76  1  0.07523080  0.42353299  0.40173402  1
  Te  Te77  1  0.10542085  0.44637784  0.72990471  1
  Te  Te78  1  0.10037557  0.74298614  0.07277012  1
  Te  Te79  1  0.09357292  0.76953635  0.43308175  1
  Te  Te80  1  0.07710916  0.74229622  0.77536568  1
  Te  Te81  1  0.40701704  0.07849416  0.09405834  1
  Te  Te82  1  0.42544779  0.08093111  0.41945584  1
  Te  Te83  1  0.42198227  0.05775326  0.74880915  1
  Te  Te84  1  0.34423421  0.46365367  0.10596546  1
  Te  Te85  1  0.40261303  0.45135539  0.42729149  1
  Te  Te86  1  0.41865739  0.42389649  0.72609377  1
  Te  Te87  1  0.44476224  0.74840279  0.11251292  1
  Te  Te88  1  0.40617446  0.72808951  0.41311437  1
  Te  Te89  1  0.45213745  0.71430348  0.74402581  1
  Te  Te90  1  0.74551235  0.11241398  0.05890749  1
  Te  Te91  1  0.74925927  0.09794170  0.41206000  1
  Te  Te92  1  0.76586369  0.07206895  0.73851879  1
  Te  Te93  1  0.73137782  0.42151659  0.07030169  1
  Te  Te94  1  0.73860830  0.43497298  0.41660474  1
  Te  Te95  1  0.73835616  0.42532254  0.76438658  1
  Te  Te96  1  0.69901426  0.71071721  0.05509609  1
  Te  Te97  1  0.75718874  0.75841150  0.40185269  1
  Te  Te98  1  0.75274215  0.76552080  0.73736157  1
  Te  Te99  1  0.08707123  0.27471194  0.24621542  1
  Te  Te100  1  0.09321238  0.25233609  0.59086096  1
  Te  Te101  1  0.07925363  0.25396023  0.90663039  1
  Te  Te102  1  0.07922068  0.58294556  0.23985013  1
  Te  Te103  1  0.07016884  0.55831413  0.62495752  1
  Te  Te104  1  0.10972024  0.55620809  0.92780966  1
  Te  Te105  1  0.10836253  0.92733949  0.25365466  1
  Te  Te106  1  0.10661462  0.90126940  0.60148430  1
  Te  Te107  1  0.09414182  0.90705295  0.94687047  1
  Te  Te108  1  0.39747529  0.28622336  0.27080511  1
  Te  Te109  1  0.40802796  0.24351462  0.57962183  1
  Te  Te110  1  0.42713021  0.22460108  0.92261781  1
  Te  Te111  1  0.42403556  0.62462087  0.20163593  1
  Te  Te112  1  0.44919213  0.62734315  0.61091020  1
  Te  Te113  1  0.44098650  0.59241897  0.92990576  1
  Te  Te114  1  0.38841461  0.87939185  0.22912440  1
  Te  Te115  1  0.41799097  0.86979640  0.59747328  1
  Te  Te116  1  0.45099303  0.89187460  0.89578845  1
  Te  Te117  1  0.73556090  0.27651777  0.25770185  1
  Te  Te118  1  0.75706819  0.23899265  0.58148510  1
  Te  Te119  1  0.76211089  0.25496718  0.91128257  1
  Te  Te120  1  0.73816538  0.57104915  0.23392044  1
  Te  Te121  1  0.76058347  0.57207745  0.59118446  1
  Te  Te122  1  0.71013174  0.57555175  0.89376144  1
  Te  Te123  1  0.75796410  0.94624391  0.22457583  1
  Te  Te124  1  0.74538055  0.91235702  0.58523203  1
  Te  Te125  1  0.76577334  0.91064491  0.89887933  1
  Te  Te126  1  0.24039626  0.25358974  0.07781111  1
  Te  Te127  1  0.25298303  0.26820016  0.42175623  1
  Te  Te128  1  0.23667336  0.24370649  0.75075206  1
  Te  Te129  1  0.28906002  0.59347958  0.04217893  1
  Te  Te130  1  0.22794283  0.59674991  0.43397311  1
  Te  Te131  1  0.26083137  0.60281562  0.74085287  1
  Te  Te132  1  0.25698952  0.92051314  0.08072361  1
  Te  Te133  1  0.27430108  0.90787817  0.42858899  1
  Te  Te134  1  0.25722776  0.90479923  0.77097836  1
  Te  Te135  1  0.55949629  0.25911164  0.10395058  1
  Te  Te136  1  0.58471576  0.23985929  0.42539549  1
  Te  Te137  1  0.58311741  0.24608550  0.73056859  1
  Te  Te138  1  0.60928252  0.59515364  0.10788609  1
  Te  Te139  1  0.56198088  0.58654114  0.40519037  1
  Te  Te140  1  0.55537396  0.59845391  0.73659050  1
  Te  Te141  1  0.58800023  0.91020214  0.06038565  1
  Te  Te142  1  0.56730887  0.90636367  0.39496672  1
  Te  Te143  1  0.54086825  0.85766387  0.76849792  1
  Te  Te144  1  0.91226733  0.26097908  0.07908141  1
  Te  Te145  1  0.91300348  0.26012650  0.40148240  1
  Te  Te146  1  0.90262402  0.26990683  0.77309334  1
  Te  Te147  1  0.90575832  0.60304221  0.09356297  1
  Te  Te148  1  0.93239594  0.58874801  0.44402699  1
  Te  Te149  1  0.93271904  0.60605051  0.73785728  1
  Te  Te150  1  0.91806430  0.87825312  0.09241970  1
  Te  Te151  1  0.91069941  0.92308496  0.39326508  1
  Te  Te152  1  0.92643411  0.92324542  0.75586955  1
  Te  Te153  1  0.25413814  0.09533799  0.26292404  1
  Te  Te154  1  0.23605078  0.08018548  0.60178991  1
  Te  Te155  1  0.25402871  0.07812058  0.92905085  1
  Te  Te156  1  0.27993831  0.43357413  0.24472467  1
  Te  Te157  1  0.25376427  0.44619160  0.58032849  1
  Te  Te158  1  0.28758655  0.40945911  0.90260508  1
  Te  Te159  1  0.23665859  0.74137204  0.24398524  1
  Te  Te160  1  0.24372544  0.71687332  0.62702403  1
  Te  Te161  1  0.28198178  0.73382792  0.93966904  1
  Te  Te162  1  0.57117628  0.07310385  0.23829154  1
  Te  Te163  1  0.59192787  0.05072645  0.58368173  1
  Te  Te164  1  0.58579216  0.08041882  0.89191668  1
  Te  Te165  1  0.56741059  0.41828681  0.25977985  1
  Te  Te166  1  0.56649720  0.41836064  0.58628685  1
  Te  Te167  1  0.55571018  0.40365788  0.92102890  1
  Te  Te168  1  0.57483148  0.75543588  0.24913827  1
  Te  Te169  1  0.57386161  0.73143029  0.55669178  1
  Te  Te170  1  0.61599760  0.71245439  0.92299784  1
  Te  Te171  1  0.89961375  0.10692731  0.23369031  1
  Te  Te172  1  0.93515233  0.06976688  0.58091622  1
  Te  Te173  1  0.91954941  0.05401824  0.98032488  1
  Te  Te174  1  0.91468684  0.43469554  0.25117844  1
  Te  Te175  1  0.92427959  0.41052730  0.58693788  1
  Te  Te176  1  0.90916479  0.43908956  0.92340271  1
  Te  Te177  1  0.92252315  0.74421862  0.26031204  1
  Te  Te178  1  0.92093896  0.76775111  0.59142162  1
  Te  Te179  1  0.90199886  0.73044627  0.92445570  1
