# generated using pymatgen
data_In2Te3
_symmetry_space_group_name_H-M   'P 1'
_cell_length_a   18.95800081
_cell_length_b   18.97887215
_cell_length_c   18.96961675
_cell_angle_alpha   89.94695555
_cell_angle_beta   90.01664997
_cell_angle_gamma   90.03015403
_symmetry_Int_Tables_number   1
_chemical_formula_structural   In2Te3
_chemical_formula_sum   'In72 Te108'
_cell_volume   6825.29190201
_cell_formula_units_Z   36
loop_
 _symmetry_equiv_pos_site_id
 _symmetry_equiv_pos_as_xyz
  1  'x, y, z'
loop_
 _atom_site_type_symbol
 _atom_site_label
 _atom_site_symmetry_multiplicity
 _atom_site_fract_x
 _atom_site_fract_y
 _atom_site_fract_z
 _atom_site_occupancy
  In  In0  1  0.14992916  0.68198155  0.83626198  1
  In  In1  1  0.93349566  0.65391140  0.84861035  1
  In  In2  1  0.51612521  0.52285662  0.33901091  1
  In  In3  1  0.01933109  0.32070921  0.31895806  1
  In  In4  1  0.84444491  0.66923357  0.17481384  1
  In  In5  1  0.00642446  0.00467249  0.34031314  1
  In  In6  1  -0.00006103  0.83315701  0.48907295  1
  In  In7  1  0.80892508  0.84951207  0.63389520  1
  In  In8  1  0.03405841  0.53172240  0.20375073  1
  In  In9  1  0.00410258  0.34246448  0.66495060  1
  In  In10  1  0.16612314  0.16697335  0.66556861  1
  In  In11  1  0.14379369  0.51069421  0.00058438  1
  In  In12  1  0.33659015  0.85859520  0.50282731  1
  In  In13  1  0.01041725  -0.02894781  0.02223869  1
  In  In14  1  0.33937836  0.51958891  0.50266464  1
  In  In15  1  0.51324366  0.13223018  0.65248234  1
  In  In16  1  0.48813622  0.70101442  0.81217801  1
  In  In17  1  0.66862687  0.67518777  0.64414010  1
  In  In18  1  0.67453836  0.83485885  0.19609164  1
  In  In19  1  0.33381185  0.81108495  0.81382139  1
  In  In20  1  0.01456987  0.18180061  0.83155676  1
  In  In21  1  0.32525101  0.63410238  -0.00591707  1
  In  In22  1  -0.01099767  0.35392315  0.00311969  1
  In  In23  1  0.17569643  0.00137929  0.48034380  1
  In  In24  1  0.14841417  0.65844769  0.50114946  1
  In  In25  1  0.66537746  0.83803160  0.80980358  1
  In  In26  1  0.51592895  0.66544975  0.50406485  1
  In  In27  1  0.86037964  0.31793435  0.49452551  1
  In  In28  1  0.30975427  0.84729705  0.17676510  1
  In  In29  1  0.32714106  0.31120149  0.32847246  1
  In  In30  1  0.30958712  0.32536878  0.01430335  1
  In  In31  1  0.84191079  0.01355047  0.18945563  1
  In  In32  1  0.50178910  0.82317063  0.01572663  1
  In  In33  1  0.51764755  -0.01171455  0.82142186  1
  In  In34  1  0.16617482  0.16290495  0.02555760  1
  In  In35  1  0.32948804  0.00277639  -0.00009278  1
  In  In36  1  0.29043768  0.49954861  0.19014502  1
  In  In37  1  0.51294516  0.68456265  0.18286278  1
  In  In38  1  0.16023521  0.49601948  0.66110124  1
  In  In39  1  0.52112543  0.31937281  0.83131536  1
  In  In40  1  0.86132283  0.51207345  -0.01260881  1
  In  In41  1  0.56660561  0.46866005  0.69059632  1
  In  In42  1  0.83673809  0.14752127  0.62341885  1
  In  In43  1  0.80469190  0.34106497  0.79402758  1
  In  In44  1  -0.01177755  0.51481810  0.52529631  1
  In  In45  1  0.34013286  0.68603155  0.66102451  1
  In  In46  1  0.16450908  0.33666341  0.48977109  1
  In  In47  1  0.84974699  0.16198555  0.02457562  1
  In  In48  1  0.17815738  0.01382007  0.18091976  1
  In  In49  1  0.34486703  0.49027927  0.82373510  1
  In  In50  1  0.84734991  -0.00321132  0.82758987  1
  In  In51  1  0.67607112  -0.06141846  0.42064285  1
  In  In52  1  0.65998780  0.33515157  0.33678060  1
  In  In53  1  0.48629413  0.32813196  0.51265345  1
  In  In54  1  0.81904148  0.32445211  0.18081967  1
  In  In55  1  0.68901530  0.49729641  0.17599110  1
  In  In56  1  0.13562237  -0.09074958  0.79663985  1
  In  In57  1  -0.00920154  -0.00049835  0.64158522  1
  In  In58  1  0.47161728  0.00236245  0.16518909  1
  In  In59  1  0.36557054  0.12466141  0.50002207  1
  In  In60  1  0.67038667  -0.01101844  -0.03046728  1
  In  In61  1  0.67162466  0.14006986  0.82748369  1
  In  In62  1  0.84094962  0.51790578  0.33418499  1
  In  In63  1  0.30659220  0.67899157  0.34139208  1
  In  In64  1  0.47619285  0.14588315  0.34593093  1
  In  In65  1  0.49902366  0.46637496  0.00304011  1
  In  In66  1  0.81618351  0.69557879  0.48103369  1
  In  In67  1  0.32237368  0.17724500  0.83386053  1
  In  In68  1  0.63282460  0.16612159  0.16605784  1
  In  In69  1  0.66388773  0.31084269  -0.00703206  1
  In  In70  1  0.68501260  0.63872198  -0.00240851  1
  In  In71  1  -0.00604548  0.81592215  0.16850180  1
  Te  Te72  1  0.06448850  0.08383708  0.10600971  1
  Te  Te73  1  0.10746566  0.10470435  0.39562453  1
  Te  Te74  1  0.07739569  0.06911708  0.75249783  1
  Te  Te75  1  0.08058713  0.42122749  0.10384392  1
  Te  Te76  1  0.05898573  0.42439457  0.42483133  1
  Te  Te77  1  0.10270641  0.40048409  0.75624234  1
  Te  Te78  1  0.04565868  0.72448961  0.06410482  1
  Te  Te79  1  0.08528730  0.74776788  0.39844024  1
  Te  Te80  1  0.09411969  0.77901906  0.74256830  1
  Te  Te81  1  0.38725372  0.09748629  0.09461427  1
  Te  Te82  1  0.36731756  0.04549837  0.37282511  1
  Te  Te83  1  0.41542496  0.08051980  0.75834030  1
  Te  Te84  1  0.39077601  0.42521613  0.09770941  1
  Te  Te85  1  0.41830840  0.42853676  0.40925663  1
  Te  Te86  1  0.43301317  0.40368994  0.73993114  1
  Te  Te87  1  0.40054187  0.73490053  0.08496016  1
  Te  Te88  1  0.41094496  0.74537918  0.42782090  1
  Te  Te89  1  0.44206241  0.79242243  0.70264569  1
  Te  Te90  1  0.73510812  0.08102919  0.07918015  1
  Te  Te91  1  0.72683341  0.07920704  0.45173288  1
  Te  Te92  1  0.75477328  0.06323624  0.72788088  1
  Te  Te93  1  0.76234228  0.41890683  0.06774766  1
  Te  Te94  1  0.76744716  0.41107539  0.41059753  1
  Te  Te95  1  0.71207293  0.42546290  0.72182035  1
  Te  Te96  1  0.74107052  0.74321311  0.08966141  1
  Te  Te97  1  0.70654253  0.78762818  0.43757610  1
  Te  Te98  1  0.76336743  0.74786764  0.73897424  1
  Te  Te99  1  0.12435673  0.23624282  0.25521113  1
  Te  Te100  1  0.07470489  0.24561780  0.57238625  1
  Te  Te101  1  0.08892622  0.26185883  0.93432332  1
  Te  Te102  1  0.08788837  0.64619620  0.27699165  1
  Te  Te103  1  0.06312435  0.60970547  0.62728957  1
  Te  Te104  1  0.06128848  0.57314652  0.89161129  1
  Te  Te105  1  0.08379372  0.91492428  0.24690155  1
  Te  Te106  1  0.09621564  0.91268518  0.57443190  1
  Te  Te107  1  0.04611076  0.87470419  0.91598116  1
  Te  Te108  1  0.42429606  0.24153421  0.24598869  1
  Te  Te109  1  0.41131435  0.23323254  0.60259464  1
  Te  Te110  1  0.41441495  0.26013650  0.92161751  1
  Te  Te111  1  0.40657211  0.59095616  0.25323521  1
  Te  Te112  1  0.43385543  0.58178581  0.60324277  1
  Te  Te113  1  0.43954237  0.58004931  0.90847907  1
  Te  Te114  1  0.43090405  0.88766375  0.24648374  1
  Te  Te115  1  0.43476690  0.93665342  0.57864782  1
  Te  Te116  1  0.42348284  0.90701343  0.91675780  1
  Te  Te117  1  0.73646659  0.22680733  0.25998411  1
  Te  Te118  1  0.74977607  0.24631707  0.56071729  1
  Te  Te119  1  0.76704684  0.23322516  0.91220239  1
  Te  Te120  1  0.73601483  0.60510379  0.26750035  1
  Te  Te121  1  0.74213886  0.58669374  0.55072703  1
  Te  Te122  1  0.78487575  0.59990507  0.89320190  1
  Te  Te123  1  0.74230320  0.94266549  0.27698065  1
  Te  Te124  1  0.79002799  0.95561854  0.52891757  1
  Te  Te125  1  0.77081075  0.89459670  0.90979380  1
  Te  Te126  1  0.22682088  0.26070923  0.11911849  1
  Te  Te127  1  0.27146399  0.23890540  0.44808222  1
  Te  Te128  1  0.23292351  0.26310472  0.75473320  1
  Te  Te129  1  0.22089971  0.59798458  0.09781919  1
  Te  Te130  1  0.22938134  0.56714342  0.41092149  1
  Te  Te131  1  0.25717071  0.59300715  0.75185223  1
  Te  Te132  1  0.22750691  0.91577670  0.07037164  1
  Te  Te133  1  0.25885917  0.91694735  0.39036939  1
  Te  Te134  1  0.27133439  0.92407649  0.74696716  1
  Te  Te135  1  0.56279909  0.26875425  0.08859665  1
  Te  Te136  1  0.57067301  0.24444399  0.41815443  1
  Te  Te137  1  0.59833257  0.23251477  0.73399555  1
  Te  Te138  1  0.57608293  0.57697118  0.08754950  1
  Te  Te139  1  0.61283199  0.57381349  0.43790159  1
  Te  Te140  1  0.59133675  0.60677775  0.75617733  1
  Te  Te141  1  0.59576979  0.91865460  0.08505787  1
  Te  Te142  1  0.52806362  0.96099967  0.46491586  1
  Te  Te143  1  0.61196094  0.94010841  0.71942784  1
  Te  Te144  1  0.93318695  0.25476779  0.10683134  1
  Te  Te145  1  0.91538284  0.23718687  0.38216269  1
  Te  Te146  1  0.90743389  0.23529021  0.73864593  1
  Te  Te147  1  0.94242611  0.58859268  0.08991850  1
  Te  Te148  1  0.92766942  0.60490910  0.42014425  1
  Te  Te149  1  0.94751833  0.57706712  0.72646695  1
  Te  Te150  1  0.89170769  0.91131930  0.09310683  1
  Te  Te151  1  0.90642865  0.92076174  0.41430571  1
  Te  Te152  1  0.91501931  0.90270887  0.73128002  1
  Te  Te153  1  0.21695761  0.11470793  0.28363784  1
  Te  Te154  1  0.25490787  0.06949106  0.59164702  1
  Te  Te155  1  0.23281427  0.08310899  0.91504150  1
  Te  Te156  1  0.22474711  0.40827464  0.28312507  1
  Te  Te157  1  0.26016644  0.41586884  0.58082660  1
  Te  Te158  1  0.24707774  0.42947434  0.92243692  1
  Te  Te159  1  0.22103162  0.74499997  0.23858702  1
  Te  Te160  1  0.24136119  0.75521476  0.57223827  1
  Te  Te161  1  0.25238450  0.74891345  0.92657476  1
  Te  Te162  1  0.57345537  0.06418282  0.25951640  1
  Te  Te163  1  0.59452537  0.08318799  0.53662116  1
  Te  Te164  1  0.56697833  0.09107179  0.92570545  1
  Te  Te165  1  0.57711361  0.42037857  0.24215350  1
  Te  Te166  1  0.60058561  0.40557461  0.56344758  1
  Te  Te167  1  0.60738890  0.42344099  0.90823003  1
  Te  Te168  1  0.58277833  0.76111879  0.28505995  1
  Te  Te169  1  0.60117573  0.77707967  0.55805849  1
  Te  Te170  1  0.59491927  0.74877527  0.92182651  1
  Te  Te171  1  0.92142810  0.10657283  0.27000442  1
  Te  Te172  1  0.94607234  0.09556812  0.54061290  1
  Te  Te173  1  0.93221603  0.08083475  0.92450702  1
  Te  Te174  1  0.91726866  0.42587723  0.24106420  1
  Te  Te175  1  0.89482266  0.42538286  0.60152194  1
  Te  Te176  1  0.90740624  0.40812031  0.88560178  1
  Te  Te177  1  0.89726626  0.76825167  0.26801218  1
  Te  Te178  1  0.91361016  0.75166481  0.58286990  1
  Te  Te179  1  0.94198150  0.75317969  0.95839613  1
