# generated using pymatgen
data_In2Te3
_symmetry_space_group_name_H-M   'P 1'
_cell_length_a   18.81516689
_cell_length_b   18.81992422
_cell_length_c   18.84096445
_cell_angle_alpha   89.99135731
_cell_angle_beta   89.94964149
_cell_angle_gamma   89.97087312
_symmetry_Int_Tables_number   1
_chemical_formula_structural   In2Te3
_chemical_formula_sum   'In72 Te108'
_cell_volume   6671.58228291
_cell_formula_units_Z   36
loop_
 _symmetry_equiv_pos_site_id
 _symmetry_equiv_pos_as_xyz
  1  'x, y, z'
loop_
 _atom_site_type_symbol
 _atom_site_label
 _atom_site_symmetry_multiplicity
 _atom_site_fract_x
 _atom_site_fract_y
 _atom_site_fract_z
 _atom_site_occupancy
  In  In0  1  0.49013379  -0.00675242  0.17111189  1
  In  In1  1  0.83352087  0.35889457  0.82581595  1
  In  In2  1  0.80852770  0.47986914  0.66371095  1
  In  In3  1  0.47618842  0.34494525  0.12263800  1
  In  In4  1  0.33437496  0.66248664  0.31709614  1
  In  In5  1  -0.00692415  0.85312272  0.16316089  1
  In  In6  1  0.64367436  0.15506324  0.84829313  1
  In  In7  1  0.51051098  0.66628441  0.52045907  1
  In  In8  1  0.16323354  0.14233906  0.01802783  1
  In  In9  1  0.33784189  0.14795845  0.15621855  1
  In  In10  1  0.01383186  0.85779181  0.83406491  1
  In  In11  1  -0.00691759  0.16150059  0.50435905  1
  In  In12  1  0.20807534  0.84066969  0.00090790  1
  In  In13  1  0.51742728  0.82565713  0.31934043  1
  In  In14  1  0.84194523  0.67055677  0.48478265  1
  In  In15  1  0.33921035  0.50223173  0.46750721  1
  In  In16  1  0.65821506  0.81445880  0.51471182  1
  In  In17  1  0.01620396  0.31389348  0.66731891  1
  In  In18  1  0.01722621  0.82814568  0.49744434  1
  In  In19  1  0.83710702  -0.01309864  0.83455986  1
  In  In20  1  0.49910216  0.49995637  0.68643240  1
  In  In21  1  0.01208169  0.33433638  0.30735692  1
  In  In22  1  0.86128278  0.85389929  0.01400497  1
  In  In23  1  0.63307799  0.67149672  0.67561021  1
  In  In24  1  0.32285529  0.01269867  0.30974424  1
  In  In25  1  0.17374860  0.64830660  0.13630054  1
  In  In26  1  0.84443917  0.15810767  0.33352151  1
  In  In27  1  -0.00342811  0.67731543  0.67205319  1
  In  In28  1  0.82814155  0.67906094  0.18093631  1
  In  In29  1  0.37151296  0.16453905  0.83813372  1
  In  In30  1  0.63398775  0.32509465  -0.01277792  1
  In  In31  1  0.63025492  0.84129318  0.81820027  1
  In  In32  1  0.33503605  0.31374413  0.66528947  1
  In  In33  1  0.14679801  0.32219766  0.48414483  1
  In  In34  1  0.02017484  0.17068377  0.82671481  1
  In  In35  1  0.01986468  0.49252179  0.16007759  1
  In  In36  1  0.33342521  0.17203414  0.51109892  1
  In  In37  1  0.65701858  0.84362340  0.18968371  1
  In  In38  1  0.17545065  0.00271365  0.49888992  1
  In  In39  1  0.80325697  0.66800610  0.84209546  1
  In  In40  1  0.01911474  0.65301194  -0.01710031  1
  In  In41  1  0.67212838  0.33575189  0.33435106  1
  In  In42  1  0.16965017  0.49473713  0.66659811  1
  In  In43  1  0.81887523  0.82916518  0.33368826  1
  In  In44  1  0.65469088  0.49370527  0.49736219  1
  In  In45  1  0.15050720  0.81727916  0.32856811  1
  In  In46  1  0.18328323  0.34287535  0.15608876  1
  In  In47  1  0.49212263  -0.00612200  0.53577862  1
  In  In48  1  0.68747349  -0.00454163  0.33038054  1
  In  In49  1  0.51274607  0.17580019  0.34312826  1
  In  In50  1  0.00008742  0.51924539  0.85930422  1
  In  In51  1  0.01126708  -0.00697850  0.30928902  1
  In  In52  1  0.65865397  0.51763740  0.15153179  1
  In  In53  1  0.34875187  0.67585919  -0.00750943  1
  In  In54  1  0.20092651  0.32963213  0.83868767  1
  In  In55  1  0.83480767  0.01981462  0.50436764  1
  In  In56  1  0.34758073  0.84633687  0.52391169  1
  In  In57  1  0.84673943  0.31552437  0.16231498  1
  In  In58  1  0.80178848  0.33182552  0.50952094  1
  In  In59  1  0.63510078  0.67257662  0.01529413  1
  In  In60  1  0.00196553  0.49496146  0.47882834  1
  In  In61  1  0.65988714  0.00619384  -0.00006085  1
  In  In62  1  0.47467442  0.48903357  0.31899967  1
  In  In63  1  0.17378275  0.83459165  0.68039716  1
  In  In64  1  0.34464833  0.70258392  0.68193175  1
  In  In65  1  0.33627490  0.50729963  0.83829871  1
  In  In66  1  0.66891845  0.31404538  0.68648239  1
  In  In67  1  0.17434263  0.00594264  0.83266320  1
  In  In68  1  0.83581245  0.16118951  0.00939428  1
  In  In69  1  0.32391869  0.34195865  0.32670982  1
  In  In70  1  0.65014653  0.00135215  0.66863402  1
  In  In71  1  0.82743456  0.49842225  -0.00743129  1
  Te  Te72  1  0.05670208  0.06989407  0.09084732  1
  Te  Te73  1  0.08499913  0.08479162  0.40885000  1
  Te  Te74  1  0.07960115  0.06935278  0.73839710  1
  Te  Te75  1  0.09915217  0.42174487  0.06000726  1
  Te  Te76  1  0.10432340  0.42958915  0.38603718  1
  Te  Te77  1  0.08256879  0.41318380  0.76383526  1
  Te  Te78  1  0.07888629  0.76173942  0.07235857  1
  Te  Te79  1  0.08150545  0.72284809  0.41833675  1
  Te  Te80  1  0.09010944  0.73960248  0.77193858  1
  Te  Te81  1  0.42534743  0.07154769  0.06103317  1
  Te  Te82  1  0.41913938  0.06978237  0.41605435  1
  Te  Te83  1  0.43184681  0.06731827  0.74504353  1
  Te  Te84  1  0.36977340  0.43190298  0.07008985  1
  Te  Te85  1  0.43066344  0.38863954  0.42722494  1
  Te  Te86  1  0.41649800  0.39626975  0.76560222  1
  Te  Te87  1  0.38590316  0.79453686  0.07808767  1
  Te  Te88  1  0.42378482  0.75000957  0.42326682  1
  Te  Te89  1  0.42371807  0.76830475  0.78912116  1
  Te  Te90  1  0.74689612  0.07939760  0.09380377  1
  Te  Te91  1  0.73501841  0.10400174  0.42624044  1
  Te  Te92  1  0.74480736  0.08143500  0.75905806  1
  Te  Te93  1  0.74405421  0.40380284  0.07931374  1
  Te  Te94  1  0.76346422  0.43644566  0.40759646  1
  Te  Te95  1  0.71252702  0.43528373  0.77233807  1
  Te  Te96  1  0.75099618  0.75699571  0.07423766  1
  Te  Te97  1  0.72485216  0.73333599  0.40494905  1
  Te  Te98  1  0.73947674  0.76097343  0.74112946  1
  Te  Te99  1  0.10412120  0.24469991  0.23686565  1
  Te  Te100  1  0.10759491  0.22104838  0.59084526  1
  Te  Te101  1  0.10159484  0.25128586  0.92485909  1
  Te  Te102  1  0.08406445  0.59668099  0.24043563  1
  Te  Te103  1  0.07751887  0.58266477  0.58347176  1
  Te  Te104  1  0.12325888  0.56423177  0.92708567  1
  Te  Te105  1  0.11689520  0.92302207  0.22305434  1
  Te  Te106  1  0.08448187  0.92432059  0.59384594  1
  Te  Te107  1  0.09459457  0.92770938  0.93933780  1
  Te  Te108  1  0.42004627  0.25085151  0.24479553  1
  Te  Te109  1  0.43809357  0.23293685  0.59561866  1
  Te  Te110  1  0.44303393  0.27460498  0.90885832  1
  Te  Te111  1  0.43076875  0.59602811  0.22521593  1
  Te  Te112  1  0.40553152  0.57789948  0.59073078  1
  Te  Te113  1  0.44015506  0.59248147  0.90404205  1
  Te  Te114  1  0.40205278  0.89647170  0.24774884  1
  Te  Te115  1  0.38503081  0.94584927  0.63153739  1
  Te  Te116  1  0.45041745  0.87884080  0.89098025  1
  Te  Te117  1  0.74615947  0.23608392  0.24514007  1
  Te  Te118  1  0.76306954  0.23142524  0.60729926  1
  Te  Te119  1  0.75331743  0.25657656  0.90941596  1
  Te  Te120  1  0.74159553  0.58420537  0.25257786  1
  Te  Te121  1  0.73949916  0.59378573  0.58565493  1
  Te  Te122  1  0.71509357  0.57538424  0.92339458  1
  Te  Te123  1  0.77878311  0.93084544  0.22688083  1
  Te  Te124  1  0.74520391  0.91902684  0.57988186  1
  Te  Te125  1  0.74140118  0.89748601  0.91668381  1
  Te  Te126  1  0.26553435  0.24634829  0.06658078  1
  Te  Te127  1  0.24495009  0.23649654  0.40449381  1
  Te  Te128  1  0.25111867  0.21954457  0.75030731  1
  Te  Te129  1  0.28850833  0.56646506  0.08553838  1
  Te  Te130  1  0.24192673  0.59483474  0.41104334  1
  Te  Te131  1  0.25197045  0.59482172  0.74484581  1
  Te  Te132  1  0.30973818  0.92369373  0.06796987  1
  Te  Te133  1  0.25662994  0.90388941  0.41200594  1
  Te  Te134  1  0.26264112  0.89724845  0.77994688  1
  Te  Te135  1  0.56972704  0.23718330  0.08674307  1
  Te  Te136  1  0.59321113  0.25984608  0.43350524  1
  Te  Te137  1  0.56245461  0.23649120  0.75556023  1
  Te  Te138  1  0.54245579  0.57571186  0.08013134  1
  Te  Te139  1  0.56680460  0.57902515  0.40905206  1
  Te  Te140  1  0.55761753  0.59886779  0.78152150  1
  Te  Te141  1  0.57438348  0.90435410  0.07947276  1
  Te  Te142  1  0.58367613  0.92100258  0.42102621  1
  Te  Te143  1  0.54653789  0.96445995  0.77826858  1
  Te  Te144  1  0.94051285  0.23978528  0.07902751  1
  Te  Te145  1  0.91969116  0.26904579  0.41993398  1
  Te  Te146  1  0.90760634  0.24889584  0.75104426  1
  Te  Te147  1  0.91003946  0.59424381  0.07707910  1
  Te  Te148  1  0.91629407  0.58116554  0.39598084  1
  Te  Te149  1  0.89937775  0.57618369  0.75100070  1
  Te  Te150  1  0.93958014  0.96620242  0.07609580  1
  Te  Te151  1  0.91435253  0.92225868  0.41498014  1
  Te  Te152  1  0.91394576  0.90550918  0.73816949  1
  Te  Te153  1  0.22476255  0.09548593  0.23732978  1
  Te  Te154  1  0.26650887  0.06845623  0.59605379  1
  Te  Te155  1  0.26825202  0.08332035  0.92393295  1
  Te  Te156  1  0.25952002  0.44062292  0.23962723  1
  Te  Te157  1  0.24980581  0.40625030  0.57038946  1
  Te  Te158  1  0.27574538  0.41127937  0.93877190  1
  Te  Te159  1  0.24496826  0.74916268  0.22927981  1
  Te  Te160  1  0.24309123  0.74711580  0.57466030  1
  Te  Te161  1  0.25259398  0.74341492  0.90010645  1
  Te  Te162  1  0.58723050  0.07892923  0.25006575  1
  Te  Te163  1  0.58157280  0.10077604  0.58235640  1
  Te  Te164  1  0.54889624  0.09123379  0.94579169  1
  Te  Te165  1  0.57668525  0.40495389  0.23575675  1
  Te  Te166  1  0.58068705  0.40846526  0.59638885  1
  Te  Te167  1  0.52266757  0.40541823  0.93193071  1
  Te  Te168  1  0.57958405  0.72474666  0.23061580  1
  Te  Te169  1  0.54686884  0.78290476  0.61396278  1
  Te  Te170  1  0.55345752  0.76513129  0.92350907  1
  Te  Te171  1  0.94181355  0.10268050  0.23663045  1
  Te  Te172  1  0.92259878  0.08083574  0.60491224  1
  Te  Te173  1  0.92546285  0.08321180  0.91098018  1
  Te  Te174  1  0.90876298  0.42758159  0.24401008  1
  Te  Te175  1  0.92578554  0.41296599  0.58843169  1
  Te  Te176  1  0.93110062  0.40370446  0.93397584  1
  Te  Te177  1  0.93216693  0.75479181  0.26347607  1
  Te  Te178  1  0.90719711  0.76480674  0.58485203  1
  Te  Te179  1  0.91467707  0.74731024  0.91037651  1
