# generated using pymatgen
data_In2Te3
_symmetry_space_group_name_H-M   'P 1'
_cell_length_a   18.91322790
_cell_length_b   18.90196011
_cell_length_c   18.89888027
_cell_angle_alpha   89.96237618
_cell_angle_beta   89.94128373
_cell_angle_gamma   89.87891324
_symmetry_Int_Tables_number   1
_chemical_formula_structural   In2Te3
_chemical_formula_sum   'In72 Te108'
_cell_volume   6756.27441628
_cell_formula_units_Z   36
loop_
 _symmetry_equiv_pos_site_id
 _symmetry_equiv_pos_as_xyz
  1  'x, y, z'
loop_
 _atom_site_type_symbol
 _atom_site_label
 _atom_site_symmetry_multiplicity
 _atom_site_fract_x
 _atom_site_fract_y
 _atom_site_fract_z
 _atom_site_occupancy
  In  In0  1  0.64868241  0.14429385  0.84922544  1
  In  In1  1  0.34517665  0.83388146  0.47512449  1
  In  In2  1  0.30971934  0.17119533  0.47750008  1
  In  In3  1  0.82590143  0.18490680  0.32790403  1
  In  In4  1  0.82574168  0.65935300  0.84651377  1
  In  In5  1  0.35286464  0.69724550  0.00362449  1
  In  In6  1  0.02651048  0.90402213  0.48282693  1
  In  In7  1  0.49513667  0.84411706  0.32424145  1
  In  In8  1  0.48162805  0.00989423  0.51356380  1
  In  In9  1  0.67341497  0.32756256  0.00357325  1
  In  In10  1  0.66695113  0.49976099  0.50129303  1
  In  In11  1  0.80241850  0.85415667  -0.02294556  1
  In  In12  1  0.16340434  0.48413949  0.02971903  1
  In  In13  1  0.66374824  0.14968853  0.15301810  1
  In  In14  1  0.65581818  -0.00018611  0.31457248  1
  In  In15  1  0.54277429  0.83880488  0.67300132  1
  In  In16  1  0.83150441  -0.00368471  0.17529965  1
  In  In17  1  0.00294538  0.02184105  -0.00111444  1
  In  In18  1  0.54026057  0.64751750  0.83460634  1
  In  In19  1  0.16649257  0.84840560  0.32999096  1
  In  In20  1  0.17636472  0.33282548  0.50270378  1
  In  In21  1  -0.01125740  0.68752018  0.33172486  1
  In  In22  1  0.36004906  0.48023880  0.24960668  1
  In  In23  1  0.63964933  0.00594239  0.68123427  1
  In  In24  1  0.52577672  0.48488208  0.00651326  1
  In  In25  1  -0.00404858  0.47627345  0.13930240  1
  In  In26  1  0.34152794  0.67599262  0.64717640  1
  In  In27  1  0.15393424  0.49032389  0.67944276  1
  In  In28  1  0.15622871  0.29444450  0.86093626  1
  In  In29  1  0.00458611  0.14963656  0.16822925  1
  In  In30  1  0.70221436  0.33521737  0.67614556  1
  In  In31  1  0.33505128  0.31582552  0.00390625  1
  In  In32  1  0.67053266  0.50105591  0.16010959  1
  In  In33  1  0.32109725  0.50092473  0.47570104  1
  In  In34  1  0.82447655  0.49745129  0.33424986  1
  In  In35  1  0.50000223  0.32187747  0.16336724  1
  In  In36  1  0.33713944  0.50186729  0.82268653  1
  In  In37  1  -0.00259290  0.67644341  0.66354980  1
  In  In38  1  0.33309072  -0.00942712  0.32087589  1
  In  In39  1  0.67234526  0.66636802  0.01136535  1
  In  In40  1  0.32026664  0.01924625  0.64614107  1
  In  In41  1  0.63899389  0.67949504  0.34084040  1
  In  In42  1  -0.00996757  0.83534783  0.82492752  1
  In  In43  1  0.16554851  0.49162490  0.32795104  1
  In  In44  1  0.33309163  0.17205062  0.15882310  1
  In  In45  1  0.84511996  0.18036224  0.66577429  1
  In  In46  1  0.13986788  0.18690686  0.68505001  1
  In  In47  1  0.19423177  0.87593258  0.00467036  1
  In  In48  1  0.49013036  0.32914747  0.47196179  1
  In  In49  1  0.33920784  0.84143566  0.80857037  1
  In  In50  1  0.49671818  0.17494022  0.65969897  1
  In  In51  1  0.51029661  0.49250082  0.68386750  1
  In  In52  1  -0.02008569  0.48083754  0.54839052  1
  In  In53  1  0.00298338  0.31962372  0.33216871  1
  In  In54  1  0.67995203  0.82384394  0.50785173  1
  In  In55  1  0.85145674  0.16835762  -0.00125162  1
  In  In56  1  0.51617233  0.85366557  0.03182965  1
  In  In57  1  0.13036612  0.69199151  0.82385940  1
  In  In58  1  0.83920076  0.82470463  0.68208334  1
  In  In59  1  -0.01721877  0.47476604  0.86179079  1
  In  In60  1  0.01820019  0.14805480  0.48140951  1
  In  In61  1  0.49299251  0.32760857  0.86193066  1
  In  In62  1  0.17806445  0.04940292  0.83965036  1
  In  In63  1  0.49399212  -0.01019339  0.83466975  1
  In  In64  1  0.66638261  0.33512970  0.33704501  1
  In  In65  1  0.84067088  0.00567428  0.48757010  1
  In  In66  1  0.01547408  0.82226974  0.16582843  1
  In  In67  1  0.18010861  0.66062863  0.18338868  1
  In  In68  1  0.81460793  0.65197843  0.49914003  1
  In  In69  1  0.49756214  0.68574457  0.49013467  1
  In  In70  1  0.16689435  0.00698109  0.14340946  1
  In  In71  1  0.00090132  0.65124026  0.02395218  1
  Te  Te72  1  0.11659531  0.12050586  0.04094184  1
  Te  Te73  1  0.08245510  0.02981560  0.42041884  1
  Te  Te74  1  0.05612961  0.10369517  0.77564802  1
  Te  Te75  1  0.06031482  0.37696937  0.04693516  1
  Te  Te76  1  0.07056366  0.42544842  0.42921056  1
  Te  Te77  1  0.07995112  0.39799833  0.77058082  1
  Te  Te78  1  0.11053572  0.75422966  0.06801606  1
  Te  Te79  1  0.08308083  0.76075891  0.41908281  1
  Te  Te80  1  0.09339114  0.79030806  0.70728855  1
  Te  Te81  1  0.38875704  0.09265656  0.04606446  1
  Te  Te82  1  0.41643866  0.08975686  0.40562882  1
  Te  Te83  1  0.41127362  0.08596789  0.74874730  1
  Te  Te84  1  0.41243817  0.42490398  0.08542151  1
  Te  Te85  1  0.39439928  0.40656668  0.38323268  1
  Te  Te86  1  0.41401776  0.39403338  0.74890378  1
  Te  Te87  1  0.43452123  0.75686763  0.10838027  1
  Te  Te88  1  0.40110147  0.72455561  0.37619356  1
  Te  Te89  1  0.43900706  0.73587678  0.74945265  1
  Te  Te90  1  0.75443508  0.06467333  0.06219292  1
  Te  Te91  1  0.73950682  0.08704026  0.40579532  1
  Te  Te92  1  0.74666796  0.09106897  0.74659182  1
  Te  Te93  1  0.76046801  0.41334407  0.08449013  1
  Te  Te94  1  0.76303942  0.40169854  0.43436596  1
  Te  Te95  1  0.80132702  0.40229749  0.76888440  1
  Te  Te96  1  0.75557648  0.76547372  0.08218110  1
  Te  Te97  1  0.75983955  0.75397134  0.40074995  1
  Te  Te98  1  0.74453830  0.73833328  0.75295887  1
  Te  Te99  1  0.09144086  0.23025688  0.25673865  1
  Te  Te100  1  0.06576353  0.26063711  0.57568851  1
  Te  Te101  1  0.05808823  0.23795529  0.95417916  1
  Te  Te102  1  0.06280083  0.57923684  0.23785933  1
  Te  Te103  1  0.08785763  0.58529151  0.58093731  1
  Te  Te104  1  0.09283603  0.57608402  0.92056523  1
  Te  Te105  1  0.07508752  0.93566256  0.24409949  1
  Te  Te106  1  0.07521027  0.91671501  0.61932459  1
  Te  Te107  1  0.08936831  0.92464550  0.90751614  1
  Te  Te108  1  0.41932309  0.24339753  0.25627323  1
  Te  Te109  1  0.40160192  0.25153421  0.57009760  1
  Te  Te110  1  0.41362084  0.21843503  0.92330180  1
  Te  Te111  1  0.42183782  0.60749653  0.27387290  1
  Te  Te112  1  0.42616441  0.56943074  0.57813969  1
  Te  Te113  1  0.42703894  0.57890002  0.91847518  1
  Te  Te114  1  0.44486191  0.94943012  0.23143219  1
  Te  Te115  1  0.42018387  0.90153088  0.60384680  1
  Te  Te116  1  0.40964544  0.90413746  0.92570601  1
  Te  Te117  1  0.74081146  0.25823531  0.22643213  1
  Te  Te118  1  0.74015074  0.23416865  0.57761004  1
  Te  Te119  1  0.75204636  0.24053160  0.90591335  1
  Te  Te120  1  0.74121728  0.59531627  0.25664927  1
  Te  Te121  1  0.75616316  0.56264038  0.59903724  1
  Te  Te122  1  0.76092279  0.56842462  0.94310302  1
  Te  Te123  1  0.73744030  0.90229065  0.24078599  1
  Te  Te124  1  0.74562577  0.92948625  0.59384102  1
  Te  Te125  1  0.76285155  0.93070984  0.86060384  1
  Te  Te126  1  0.23912254  0.27736054  0.10841694  1
  Te  Te127  1  0.23174490  0.25961344  0.38873965  1
  Te  Te128  1  0.25212276  0.24067871  0.76431277  1
  Te  Te129  1  0.26208880  0.59482576  0.07313727  1
  Te  Te130  1  0.23397108  0.59527517  0.40558327  1
  Te  Te131  1  0.24614233  0.59914892  0.74720788  1
  Te  Te132  1  0.27471858  0.90402118  0.12483986  1
  Te  Te133  1  0.24539916  0.93865192  0.43325089  1
  Te  Te134  1  0.24034306  0.94107389  0.74967740  1
  Te  Te135  1  0.57121605  0.23306810  0.06290641  1
  Te  Te136  1  0.57739575  0.23687214  0.39898050  1
  Te  Te137  1  0.58757408  0.25354711  0.75384198  1
  Te  Te138  1  0.56781370  0.59586808  0.09941938  1
  Te  Te139  1  0.56431579  0.56871028  0.41374594  1
  Te  Te140  1  0.62217384  0.55775953  0.75307174  1
  Te  Te141  1  0.61893718  0.95598981  0.05352592  1
  Te  Te142  1  0.57597519  0.91148674  0.43923477  1
  Te  Te143  1  0.61828137  0.90136993  0.79480800  1
  Te  Te144  1  0.90790821  0.24385703  0.11073694  1
  Te  Te145  1  0.91360737  0.24974742  0.43303646  1
  Te  Te146  1  0.91618610  0.28674290  0.74663759  1
  Te  Te147  1  0.89499019  0.55760246  0.06537632  1
  Te  Te148  1  0.92366688  0.57267146  0.42431981  1
  Te  Te149  1  0.93234935  0.58545622  0.76425716  1
  Te  Te150  1  0.92579076  0.91739217  0.07661004  1
  Te  Te151  1  0.90219986  0.90411710  0.40305924  1
  Te  Te152  1  0.90493588  0.93481162  0.75623710  1
  Te  Te153  1  0.23991890  0.08659015  0.25045403  1
  Te  Te154  1  0.21763935  0.10399296  0.57845850  1
  Te  Te155  1  0.26219411  0.07227675  0.96486223  1
  Te  Te156  1  0.22932717  0.42211097  0.21293670  1
  Te  Te157  1  0.25870665  0.42112151  0.59408469  1
  Te  Te158  1  0.24968522  0.41879608  0.91471733  1
  Te  Te159  1  0.25617131  0.77732831  0.23568595  1
  Te  Te160  1  0.25507174  0.76121076  0.56618404  1
  Te  Te161  1  0.24977583  0.75602673  0.90026161  1
  Te  Te162  1  0.56023934  0.07603269  0.23036243  1
  Te  Te163  1  0.59138911  0.09823500  0.56896085  1
  Te  Te164  1  0.57223201  0.05816817  0.94583637  1
  Te  Te165  1  0.57769297  0.42153597  0.24968499  1
  Te  Te166  1  0.58072702  0.39579134  0.58301278  1
  Te  Te167  1  0.60815949  0.41987454  0.89846448  1
  Te  Te168  1  0.60002966  0.78130095  0.24045635  1
  Te  Te169  1  0.60375531  0.72300591  0.59288632  1
  Te  Te170  1  0.58270188  0.75644740  0.92756795  1
  Te  Te171  1  0.91685102  0.07806861  0.27048753  1
  Te  Te172  1  0.93045872  0.07994895  0.58511738  1
  Te  Te173  1  0.92775680  0.09512905  0.89312092  1
  Te  Te174  1  0.91144359  0.40732270  0.24800186  1
  Te  Te175  1  0.89536943  0.39228112  0.63154888  1
  Te  Te176  1  0.88246266  0.37352477  0.89889364  1
  Te  Te177  1  0.91014496  0.73461841  0.21789013  1
  Te  Te178  1  0.90845072  0.75218018  0.56768277  1
  Te  Te179  1  0.92423119  0.75073016  0.93352674  1
