# generated using pymatgen
data_In2Te3
_symmetry_space_group_name_H-M   'P 1'
_cell_length_a   18.75752384
_cell_length_b   18.75603608
_cell_length_c   18.75376335
_cell_angle_alpha   90.02809172
_cell_angle_beta   90.03401308
_cell_angle_gamma   89.98167823
_symmetry_Int_Tables_number   1
_chemical_formula_structural   In2Te3
_chemical_formula_sum   'In72 Te108'
_cell_volume   6597.88660122
_cell_formula_units_Z   36
loop_
 _symmetry_equiv_pos_site_id
 _symmetry_equiv_pos_as_xyz
  1  'x, y, z'
loop_
 _atom_site_type_symbol
 _atom_site_label
 _atom_site_symmetry_multiplicity
 _atom_site_fract_x
 _atom_site_fract_y
 _atom_site_fract_z
 _atom_site_occupancy
  In  In0  1  0.33690042  -0.00875480  0.34237340  1
  In  In1  1  0.33397973  0.16156979  0.82774573  1
  In  In2  1  0.83717826  0.16358709  0.00239750  1
  In  In3  1  -0.00552159  0.66826511  0.32344917  1
  In  In4  1  0.18963455  0.69058708  0.17997004  1
  In  In5  1  0.17927070  -0.00388459  0.49418628  1
  In  In6  1  0.14922042  0.50638233  0.33477679  1
  In  In7  1  -0.01412694  0.33345239  0.33619056  1
  In  In8  1  0.68042885  0.81350431  0.16500403  1
  In  In9  1  0.84768006  0.82036809  0.34443830  1
  In  In10  1  0.67705840  0.49439304  0.15361832  1
  In  In11  1  0.00316869  0.49388804  0.82532978  1
  In  In12  1  0.83763546  0.00818365  0.81537534  1
  In  In13  1  0.35600013  -0.03140333  0.64484741  1
  In  In14  1  -0.00347352  0.69052432  0.66762797  1
  In  In15  1  0.49252481  0.82150430  -0.01736263  1
  In  In16  1  0.66181655  0.17376320  0.83703802  1
  In  In17  1  0.02290704  0.13140752  0.14591577  1
  In  In18  1  0.35101059  0.68806233  0.65177340  1
  In  In19  1  0.49428629  0.01342241  0.17621585  1
  In  In20  1  0.50909459  0.32592788  0.14779402  1
  In  In21  1  0.32702536  0.67370789  0.01492199  1
  In  In22  1  0.47634666  0.15560472  -0.00446712  1
  In  In23  1  0.51744004  0.67191584  0.81791314  1
  In  In24  1  -0.01932017  0.64863118  0.00489429  1
  In  In25  1  0.16393301  0.17351955  0.66370297  1
  In  In26  1  0.49985709  0.69727901  0.16333599  1
  In  In27  1  0.01754324  0.84357541  0.16107892  1
  In  In28  1  0.64938372  0.84293624  0.80852860  1
  In  In29  1  0.51375932  0.49514768  -0.01176671  1
  In  In30  1  0.84308302  0.81799360  0.00300956  1
  In  In31  1  -0.00270505  0.18499384  0.83764648  1
  In  In32  1  0.32428034  0.32058296  0.35684174  1
  In  In33  1  0.15702540  0.68510946  0.83566165  1
  In  In34  1  0.82914522  0.49343097  0.33630508  1
  In  In35  1  0.50640197  0.52150629  0.33119844  1
  In  In36  1  0.17121829  -0.01168053  0.85548546  1
  In  In37  1  0.34015753  0.82219423  0.82313588  1
  In  In38  1  0.66707771  0.14490202  0.50477220  1
  In  In39  1  0.81478170  0.35160928  0.15094281  1
  In  In40  1  -0.00116547  0.82502038  0.49764448  1
  In  In41  1  0.66218746  0.67402569  0.65261252  1
  In  In42  1  0.83707976  -0.02285392  0.18558605  1
  In  In43  1  0.68624541  0.35394071  -0.00403818  1
  In  In44  1  0.16802435  0.68683983  0.50147917  1
  In  In45  1  0.16644946  0.50008157  0.68432545  1
  In  In46  1  0.48226647  0.69765768  0.48231005  1
  In  In47  1  0.00853271  0.17195446  0.51061822  1
  In  In48  1  0.52272915  0.35837730  0.53963173  1
  In  In49  1  0.34021895  0.51576852  0.51666867  1
  In  In50  1  0.34060449  0.52121345  0.16639805  1
  In  In51  1  0.66168766  0.00785687  -0.00333196  1
  In  In52  1  0.01698942  -0.02112893  0.29441625  1
  In  In53  1  0.15435830  0.34523271  0.15380177  1
  In  In54  1  0.49352700  0.14400885  0.35099469  1
  In  In55  1  0.83268501  0.33801264  0.51417884  1
  In  In56  1  0.83005501  0.17365267  0.67894017  1
  In  In57  1  0.33255257  0.48040605  0.83705399  1
  In  In58  1  -0.00899083  0.49012264  0.48687217  1
  In  In59  1  0.68925200  0.32983152  0.34980555  1
  In  In60  1  -0.01308304  -0.00905782  0.66217636  1
  In  In61  1  0.31515828  0.31517047  -0.01955278  1
  In  In62  1  0.34205989  0.32991672  0.67167984  1
  In  In63  1  -0.00087573  0.34319667  -0.01659285  1
  In  In64  1  0.78344466  -0.03016488  0.50546045  1
  In  In65  1  0.19173211  0.16656525  0.33379526  1
  In  In66  1  0.63691708  0.16087522  0.19446139  1
  In  In67  1  0.81473165  0.65344964  0.86222229  1
  In  In68  1  0.33838287  0.15183510  0.15325018  1
  In  In69  1  0.51225188  0.15598436  0.65727352  1
  In  In70  1  0.66433000  0.67768855  0.35435650  1
  In  In71  1  0.79880040  0.49641633  0.67238799  1
  Te  Te72  1  0.10407836  0.04442168  0.05775921  1
  Te  Te73  1  0.07981294  0.07865581  0.40831404  1
  Te  Te74  1  0.08108388  0.07618681  0.75129082  1
  Te  Te75  1  0.06277452  0.43487098  0.08288298  1
  Te  Te76  1  0.09486739  0.39559782  0.42480390  1
  Te  Te77  1  0.09019083  0.39554070  0.75434748  1
  Te  Te78  1  0.08746789  0.73829676  0.07393439  1
  Te  Te79  1  0.09089319  0.76345047  0.39211070  1
  Te  Te80  1  0.08592468  0.77824111  0.74634607  1
  Te  Te81  1  0.39550564  0.04246259  0.06238697  1
  Te  Te82  1  0.40253781  0.07740202  0.44537103  1
  Te  Te83  1  0.42064264  0.06829766  0.74365831  1
  Te  Te84  1  0.40445486  0.41634132  0.07195708  1
  Te  Te85  1  0.42513189  0.42057059  0.41886030  1
  Te  Te86  1  0.42756044  0.43155948  0.73699307  1
  Te  Te87  1  0.39407971  0.78549832  0.09482854  1
  Te  Te88  1  0.37353988  0.76679541  0.40465006  1
  Te  Te89  1  0.45130291  0.77575632  0.72790206  1
  Te  Te90  1  0.74981050  0.07975820  0.09951356  1
  Te  Te91  1  0.75416608  0.07590847  0.40689709  1
  Te  Te92  1  0.72580942  0.07547261  0.73571216  1
  Te  Te93  1  0.79134792  0.47413186  0.04228429  1
  Te  Te94  1  0.73678096  0.43741055  0.44506314  1
  Te  Te95  1  0.71687462  0.39254331  0.73796036  1
  Te  Te96  1  0.75951055  0.72167578  0.07922645  1
  Te  Te97  1  0.75539915  0.75695977  0.44167347  1
  Te  Te98  1  0.75427136  0.74703551  0.75474833  1
  Te  Te99  1  0.08350137  0.24532571  0.25387849  1
  Te  Te100  1  0.07105265  0.27082136  0.59979421  1
  Te  Te101  1  0.09447874  0.24145685  0.93296862  1
  Te  Te102  1  0.07881339  0.58513167  0.22831771  1
  Te  Te103  1  0.08161299  0.58304422  0.57854853  1
  Te  Te104  1  0.08942774  0.57782746  0.91914922  1
  Te  Te105  1  0.13439470  0.90127453  0.24106538  1
  Te  Te106  1  0.09132403  0.90974802  0.58558931  1
  Te  Te107  1  0.09320969  0.91192504  0.95844308  1
  Te  Te108  1  0.41552678  0.24168567  0.25023767  1
  Te  Te109  1  0.42156510  0.24713069  0.57074147  1
  Te  Te110  1  0.43164411  0.26366868  0.89800233  1
  Te  Te111  1  0.41052164  0.61701784  0.26147251  1
  Te  Te112  1  0.44819722  0.58706947  0.59344336  1
  Te  Te113  1  0.41643683  0.59864514  0.91539131  1
  Te  Te114  1  0.42354672  0.90910277  0.25297630  1
  Te  Te115  1  0.43787425  0.90437029  0.53044734  1
  Te  Te116  1  0.42246632  0.91992847  0.89943281  1
  Te  Te117  1  0.75730736  0.24293034  0.24607731  1
  Te  Te118  1  0.73150539  0.25311255  0.59131738  1
  Te  Te119  1  0.76941060  0.25958548  0.90604280  1
  Te  Te120  1  0.74360943  0.59023927  0.25454198  1
  Te  Te121  1  0.76314464  0.59812150  0.57177569  1
  Te  Te122  1  0.72831424  0.54695801  0.91628965  1
  Te  Te123  1  0.73819006  0.90486470  0.27376785  1
  Te  Te124  1  0.71432444  0.90743333  0.61941742  1
  Te  Te125  1  0.75176868  0.91599224  0.91507757  1
  Te  Te126  1  0.23214777  0.23445154  0.08026150  1
  Te  Te127  1  0.24317020  0.24121229  0.45019855  1
  Te  Te128  1  0.23951056  0.26272135  0.76343795  1
  Te  Te129  1  0.23192212  0.57357438  0.07721683  1
  Te  Te130  1  0.25011641  0.58785056  0.41593661  1
  Te  Te131  1  0.26293726  0.60302238  0.74882057  1
  Te  Te132  1  0.18467800  0.91244975  0.08749838  1
  Te  Te133  1  0.25979313  0.88900748  0.42531435  1
  Te  Te134  1  0.24853879  0.91679068  0.74427621  1
  Te  Te135  1  0.60144950  0.23365924  0.05998432  1
  Te  Te136  1  0.57811197  0.25448313  0.42264642  1
  Te  Te137  1  0.58024009  0.25669686  0.74423949  1
  Te  Te138  1  0.58075425  0.59377788  0.08372034  1
  Te  Te139  1  0.58536376  0.58156766  0.44359989  1
  Te  Te140  1  0.60156027  0.57206516  0.74637194  1
  Te  Te141  1  0.58497096  0.91269760  0.08802733  1
  Te  Te142  1  0.57571033  0.91499641  0.47145231  1
  Te  Te143  1  0.59597072  0.94343170  0.71471521  1
  Te  Te144  1  0.92344554  0.24869041  0.09581096  1
  Te  Te145  1  0.90110099  0.23902576  0.41913877  1
  Te  Te146  1  0.91505082  0.27095168  0.74999983  1
  Te  Te147  1  0.88956453  0.58146740  0.09805758  1
  Te  Te148  1  0.90398722  0.59752236  0.42334513  1
  Te  Te149  1  0.91061717  0.59063249  0.74856502  1
  Te  Te150  1  0.92298985  0.92930704  0.07080216  1
  Te  Te151  1  0.92296023  0.93364361  0.41621726  1
  Te  Te152  1  0.91138279  0.89872283  0.74931292  1
  Te  Te153  1  0.24568540  0.06440919  0.23618325  1
  Te  Te154  1  0.26133552  0.08131041  0.59135343  1
  Te  Te155  1  0.25679428  0.08512649  0.92895864  1
  Te  Te156  1  0.25973620  0.41650823  0.25273167  1
  Te  Te157  1  0.24788481  0.41601098  0.58372899  1
  Te  Te158  1  0.22928257  0.41963724  0.92103148  1
  Te  Te159  1  0.28079070  0.75527391  0.27706321  1
  Te  Te160  1  0.25329672  0.77561941  0.58410564  1
  Te  Te161  1  0.24384085  0.76966432  0.92986919  1
  Te  Te162  1  0.59561094  0.04880079  0.28895738  1
  Te  Te163  1  0.56380007  0.04650887  0.55893629  1
  Te  Te164  1  0.56405661  0.07145781  0.90021650  1
  Te  Te165  1  0.58731392  0.41326387  0.25667588  1
  Te  Te166  1  0.61871760  0.43537677  0.62949688  1
  Te  Te167  1  0.59821544  0.41849070  0.89409134  1
  Te  Te168  1  0.57498242  0.77255592  0.27394414  1
  Te  Te169  1  0.58688954  0.77398707  0.56207203  1
  Te  Te170  1  0.60648486  0.74396789  0.92030122  1
  Te  Te171  1  0.91893997  0.08920821  0.25029328  1
  Te  Te172  1  0.89789178  0.08017419  0.57541293  1
  Te  Te173  1  0.92860830  0.07379336  0.92006699  1
  Te  Te174  1  0.92252974  0.42771733  0.23532076  1
  Te  Te175  1  0.92179980  0.42244708  0.60323978  1
  Te  Te176  1  0.90021412  0.41348384  0.89706901  1
  Te  Te177  1  0.91004313  0.74954908  0.22582387  1
  Te  Te178  1  0.89666401  0.75617477  0.57916511  1
  Te  Te179  1  0.93264284  0.75020335  0.90050783  1
