# generated using pymatgen
data_In2Te3
_symmetry_space_group_name_H-M   'P 1'
_cell_length_a   18.78182014
_cell_length_b   18.77863286
_cell_length_c   18.77575149
_cell_angle_alpha   89.94518317
_cell_angle_beta   90.02563932
_cell_angle_gamma   89.98428960
_symmetry_Int_Tables_number   1
_chemical_formula_structural   In2Te3
_chemical_formula_sum   'In72 Te108'
_cell_volume   6622.14549800
_cell_formula_units_Z   36
loop_
 _symmetry_equiv_pos_site_id
 _symmetry_equiv_pos_as_xyz
  1  'x, y, z'
loop_
 _atom_site_type_symbol
 _atom_site_label
 _atom_site_symmetry_multiplicity
 _atom_site_fract_x
 _atom_site_fract_y
 _atom_site_fract_z
 _atom_site_occupancy
  In  In0  1  0.00974473  0.63447540  -0.01744332  1
  In  In1  1  0.16142505  -0.00836775  0.17179122  1
  In  In2  1  0.33653746  0.17472273  0.14009905  1
  In  In3  1  0.00633192  -0.00058110  0.65245539  1
  In  In4  1  0.49807823  0.67361086  0.83848945  1
  In  In5  1  0.67832396  0.84461302  0.16768937  1
  In  In6  1  -0.00588716  0.49065044  0.16533889  1
  In  In7  1  0.66583430  0.17032454  0.81978445  1
  In  In8  1  0.50985559  0.16330089  -0.00311220  1
  In  In9  1  0.51048567  0.48581302  -0.01651527  1
  In  In10  1  0.33596833  0.85291267  0.81677501  1
  In  In11  1  0.66784270  0.47948731  0.84278797  1
  In  In12  1  0.70582972  0.51866006  0.19064723  1
  In  In13  1  0.00407340  0.82044540  0.19081598  1
  In  In14  1  0.65295230  0.85070061  0.80312779  1
  In  In15  1  0.50706762  0.31470795  0.15245314  1
  In  In16  1  0.13892886  0.48838773  0.33560745  1
  In  In17  1  0.35528837  0.84196206  0.19024672  1
  In  In18  1  0.30690187  0.31410046  0.34237908  1
  In  In19  1  0.82875049  0.00588042  0.17838429  1
  In  In20  1  0.83577677  0.33576890  0.83760918  1
  In  In21  1  -0.01416708  0.16843289  0.18422950  1
  In  In22  1  -0.00788621  0.66946920  0.33425141  1
  In  In23  1  0.35900642  0.14551783  0.81133623  1
  In  In24  1  0.31542540  0.31997419  -0.01523627  1
  In  In25  1  -0.00985824  0.31950033  0.64665554  1
  In  In26  1  0.65637334  0.65435691  -0.01245310  1
  In  In27  1  0.52430710  -0.01053950  0.51461332  1
  In  In28  1  0.34082159  0.65141486  -0.01119013  1
  In  In29  1  0.51229314  0.50759136  0.35736231  1
  In  In30  1  0.35890641  0.33083675  0.69422661  1
  In  In31  1  0.83741408  0.32886739  0.48384560  1
  In  In32  1  0.32498776  0.70600848  0.34030633  1
  In  In33  1  0.66208840  0.15337629  0.50264780  1
  In  In34  1  0.14511728  0.65678564  0.50524406  1
  In  In35  1  0.19047222  0.84088021  0.33992871  1
  In  In36  1  0.16714613  0.83584608  0.67010418  1
  In  In37  1  0.17097021  0.17525935  -0.01187898  1
  In  In38  1  0.53185527  0.13746428  0.32584637  1
  In  In39  1  0.35111571  -0.00707808  0.33864044  1
  In  In40  1  0.17027529  0.83471026  -0.00650503  1
  In  In41  1  0.50129665  0.67822350  0.51517226  1
  In  In42  1  0.82276297  0.33278148  0.17007325  1
  In  In43  1  0.36213721  0.01031441  -0.01515092  1
  In  In44  1  -0.00714204  -0.00541571  -0.02528495  1
  In  In45  1  0.67678198  0.50694481  0.51575786  1
  In  In46  1  0.81852917  0.01757940  0.81962643  1
  In  In47  1  0.66284615  0.00121682  0.01897844  1
  In  In48  1  0.00289356  0.34393207  0.01504631  1
  In  In49  1  0.47760345  0.31624394  0.52835367  1
  In  In50  1  0.67474827  0.32419174  0.31700953  1
  In  In51  1  0.34569398  0.85025381  0.50585781  1
  In  In52  1  0.81672640  -0.00836085  0.50012018  1
  In  In53  1  0.32762957  0.66152839  0.69024470  1
  In  In54  1  0.66395384  0.67522388  0.66014996  1
  In  In55  1  0.50895096  0.69162637  0.17757556  1
  In  In56  1  0.83945222  0.68972544  0.49158949  1
  In  In57  1  0.16333029  0.30538048  0.49641690  1
  In  In58  1  0.00862580  0.50486202  0.49881835  1
  In  In59  1  0.15642244  0.51379882  0.64654442  1
  In  In60  1  0.33193387  0.51101186  0.51786658  1
  In  In61  1  -0.01419611  0.16583300  0.49489941  1
  In  In62  1  0.82144346  0.50134405  0.00928369  1
  In  In63  1  0.17480840  0.35562666  0.82292002  1
  In  In64  1  0.65692777  0.33040952  0.67735825  1
  In  In65  1  0.82190891  0.84930431  0.34351713  1
  In  In66  1  0.01081118  0.82477564  0.84522363  1
  In  In67  1  0.82206879  0.84028368  0.65206574  1
  In  In68  1  -0.00357811  0.14623870  0.81336722  1
  In  In69  1  0.14261074  0.16681135  0.33338983  1
  In  In70  1  0.32423748  0.52295276  0.15856096  1
  In  In71  1  0.83463152  0.81532280  0.00222523  1
  Te  Te72  1  0.08187305  0.08059074  0.07519755  1
  Te  Te73  1  0.08392629  0.07448464  0.43057868  1
  Te  Te74  1  0.10079556  0.07292142  0.74137689  1
  Te  Te75  1  0.09883254  0.44175509  0.06991792  1
  Te  Te76  1  0.06023171  0.38569046  0.41621485  1
  Te  Te77  1  0.06398502  0.41772506  0.73781732  1
  Te  Te78  1  0.06822349  0.75121332  0.07030777  1
  Te  Te79  1  0.08048516  0.76179911  0.41697492  1
  Te  Te80  1  0.09589189  0.73880879  0.75674454  1
  Te  Te81  1  0.43946973  0.07162426  0.10122236  1
  Te  Te82  1  0.43323879  0.08526967  0.42814238  1
  Te  Te83  1  0.43503092  0.03496740  0.74632719  1
  Te  Te84  1  0.40784138  0.41123793  0.08292223  1
  Te  Te85  1  0.40795554  0.41185928  0.41869181  1
  Te  Te86  1  0.40491004  0.44826926  0.76588328  1
  Te  Te87  1  0.41423402  0.75477178  0.07610526  1
  Te  Te88  1  0.44222957  0.77976313  0.40639807  1
  Te  Te89  1  0.43230541  0.76290851  0.73383190  1
  Te  Te90  1  0.75908362  0.09392432  0.08168918  1
  Te  Te91  1  0.74722763  0.08471655  0.40477315  1
  Te  Te92  1  0.73006371  0.07866078  0.71858634  1
  Te  Te93  1  0.72305887  0.41262177  0.08250648  1
  Te  Te94  1  0.74626840  0.42496865  0.40634473  1
  Te  Te95  1  0.76348988  0.42541324  0.73670795  1
  Te  Te96  1  0.74480666  0.72866594  0.08760025  1
  Te  Te97  1  0.73191710  0.77739200  0.43859936  1
  Te  Te98  1  0.75731620  0.74962830  0.75831783  1
  Te  Te99  1  0.08403653  0.26407343  0.24005221  1
  Te  Te100  1  0.09441489  0.21893757  0.60126013  1
  Te  Te101  1  0.07226192  0.25569613  0.90182065  1
  Te  Te102  1  0.08691601  0.59550195  0.24181517  1
  Te  Te103  1  0.04145299  0.60955149  0.60726444  1
  Te  Te104  1  0.09000187  0.59829441  0.85713056  1
  Te  Te105  1  0.07342866  0.92529959  0.27585088  1
  Te  Te106  1  0.08266595  0.90352347  0.56909119  1
  Te  Te107  1  0.10728809  0.93392871  0.89491995  1
  Te  Te108  1  0.41888800  0.24298220  0.25877743  1
  Te  Te109  1  0.40650246  0.20965401  0.60839157  1
  Te  Te110  1  0.42300284  0.24979502  0.90468860  1
  Te  Te111  1  0.41731152  0.59360574  0.26711405  1
  Te  Te112  1  0.43261593  0.57750287  0.60792998  1
  Te  Te113  1  0.40837671  0.55001604  0.88644789  1
  Te  Te114  1  0.46433949  0.92393716  0.26026657  1
  Te  Te115  1  0.40659652  0.94662837  0.60311412  1
  Te  Te116  1  0.43670306  0.90812949  0.91120320  1
  Te  Te117  1  0.74920916  0.22334282  0.24120753  1
  Te  Te118  1  0.74782389  0.25271424  0.58130573  1
  Te  Te119  1  0.73775221  0.25921446  0.91681135  1
  Te  Te120  1  0.78881321  0.60139984  0.27550161  1
  Te  Te121  1  0.77468907  0.59249628  0.59526482  1
  Te  Te122  1  0.75989376  0.58823333  0.89827941  1
  Te  Te123  1  0.71852294  0.95767557  0.27518475  1
  Te  Te124  1  0.71502449  0.90557031  0.57151222  1
  Te  Te125  1  0.75474094  0.91228037  0.91575539  1
  Te  Te126  1  0.22341071  0.26730265  0.09841058  1
  Te  Te127  1  0.26640296  0.19926568  0.44085392  1
  Te  Te128  1  0.24902502  0.24179509  0.75555349  1
  Te  Te129  1  0.23003799  0.59035483  0.06645525  1
  Te  Te130  1  0.24440750  0.58059567  0.40952830  1
  Te  Te131  1  0.23638684  0.56744469  0.76008230  1
  Te  Te132  1  0.26428776  0.92182434  0.08181901  1
  Te  Te133  1  0.24500395  0.94495542  0.43881073  1
  Te  Te134  1  0.26137806  0.93930992  0.71962304  1
  Te  Te135  1  0.60554563  0.22298549  0.09440136  1
  Te  Te136  1  0.57646788  0.26296703  0.42130389  1
  Te  Te137  1  0.55862997  0.24922397  0.75129711  1
  Te  Te138  1  0.57190523  0.57707211  0.09049543  1
  Te  Te139  1  0.60403226  0.60733976  0.42399711  1
  Te  Te140  1  0.59005356  0.58265415  0.75733101  1
  Te  Te141  1  0.57421181  0.89839425  0.07701791  1
  Te  Te142  1  0.54580649  0.90281089  0.39504470  1
  Te  Te143  1  0.56893371  0.95346894  0.73879833  1
  Te  Te144  1  0.90787925  0.24459661  0.07570653  1
  Te  Te145  1  0.90750265  0.23774496  0.39158809  1
  Te  Te146  1  0.89943853  0.23794506  0.73856929  1
  Te  Te147  1  0.90936385  0.59432622  0.09093851  1
  Te  Te148  1  0.90330847  0.56916482  0.40551998  1
  Te  Te149  1  0.96612329  0.54613659  0.79908235  1
  Te  Te150  1  0.92422689  0.91103620  0.08485366  1
  Te  Te151  1  0.92181782  0.91231983  0.43077296  1
  Te  Te152  1  0.91814360  0.91601819  0.75920023  1
  Te  Te153  1  0.25860762  0.08444483  0.24653212  1
  Te  Te154  1  0.26747475  0.14474066  0.58342624  1
  Te  Te155  1  0.25332089  0.07901698  0.90369421  1
  Te  Te156  1  0.24864101  0.42183064  0.25128492  1
  Te  Te157  1  0.24882731  0.39886976  0.58446883  1
  Te  Te158  1  0.23539680  0.43371775  0.93261130  1
  Te  Te159  1  0.23573685  0.75060137  0.22397373  1
  Te  Te160  1  0.26283738  0.73473652  0.56876225  1
  Te  Te161  1  0.25814645  0.74968845  0.90275711  1
  Te  Te162  1  0.59150947  0.04069019  0.23277449  1
  Te  Te163  1  0.58637202  0.08690350  0.61306896  1
  Te  Te164  1  0.58467347  0.06822588  0.90495933  1
  Te  Te165  1  0.57669810  0.42501027  0.24616862  1
  Te  Te166  1  0.57140631  0.42368279  0.58895851  1
  Te  Te167  1  0.58911233  0.37889842  0.91781016  1
  Te  Te168  1  0.60960730  0.75325071  0.26409029  1
  Te  Te169  1  0.58442237  0.77869420  0.58797106  1
  Te  Te170  1  0.58526615  0.77011589  0.91828948  1
  Te  Te171  1  0.92466375  0.06806790  0.27238412  1
  Te  Te172  1  0.89746530  0.08648909  0.59133975  1
  Te  Te173  1  0.89689308  0.10001186  0.92230580  1
  Te  Te174  1  0.91043506  0.41261151  0.25787084  1
  Te  Te175  1  0.90503514  0.42709821  0.58140017  1
  Te  Te176  1  0.92863352  0.43704763  0.91687202  1
  Te  Te177  1  0.88407010  0.74291839  0.24814736  1
  Te  Te178  1  0.92838231  0.75868957  0.58867482  1
  Te  Te179  1  0.91104300  0.72637525  0.90564418  1
