# generated using pymatgen
data_In2Te3
_symmetry_space_group_name_H-M   'P 1'
_cell_length_a   18.94594736
_cell_length_b   18.98172756
_cell_length_c   18.98633237
_cell_angle_alpha   89.93618566
_cell_angle_beta   90.16155606
_cell_angle_gamma   89.91566691
_symmetry_Int_Tables_number   1
_chemical_formula_structural   In2Te3
_chemical_formula_sum   'In72 Te108'
_cell_volume   6827.95536157
_cell_formula_units_Z   36
loop_
 _symmetry_equiv_pos_site_id
 _symmetry_equiv_pos_as_xyz
  1  'x, y, z'
loop_
 _atom_site_type_symbol
 _atom_site_label
 _atom_site_symmetry_multiplicity
 _atom_site_fract_x
 _atom_site_fract_y
 _atom_site_fract_z
 _atom_site_occupancy
  In  In0  1  0.34249612  0.52263418  0.51142938  1
  In  In1  1  0.83223865  0.65627373  0.51832870  1
  In  In2  1  0.91200787  0.63764887  0.20470189  1
  In  In3  1  0.48527583  0.52351508  0.32975650  1
  In  In4  1  0.35075727  0.01910328  0.66566308  1
  In  In5  1  0.02147207  0.49282254  0.50175672  1
  In  In6  1  0.48077503  0.18970468  0.65765410  1
  In  In7  1  -0.00523447  0.16026891  0.15303769  1
  In  In8  1  0.16355368  0.00967953  0.51537728  1
  In  In9  1  0.64178683  0.67231600  0.66856576  1
  In  In10  1  0.19809799  0.17447272  0.33378174  1
  In  In11  1  0.64828747  0.81718165  0.16451965  1
  In  In12  1  0.49985017  0.81881433  0.34262606  1
  In  In13  1  0.03934452  0.64157694  -0.00819807  1
  In  In14  1  0.83232307  0.35298435  0.85013773  1
  In  In15  1  0.01190695  -0.02108115  0.67528414  1
  In  In16  1  0.64491579  0.66766155  -0.01999718  1
  In  In17  1  0.00100322  0.15372399  0.81653454  1
  In  In18  1  0.48367421  0.37117015  0.81151802  1
  In  In19  1  0.34222854  0.21181744  0.48403914  1
  In  In20  1  0.83081081  0.48748780  -0.01393735  1
  In  In21  1  0.00103200  0.81451556  0.82191917  1
  In  In22  1  0.02162865  0.64142189  0.66285471  1
  In  In23  1  0.85953578  0.50069637  0.66245686  1
  In  In24  1  0.46641570  -0.04975661  0.85185290  1
  In  In25  1  -0.02045715  0.00364486  0.34218777  1
  In  In26  1  0.29487841  0.80952742  0.48702843  1
  In  In27  1  0.62841072  0.49806322  0.48793289  1
  In  In28  1  0.64848322  0.83298009  0.82194788  1
  In  In29  1  0.83182738  0.34788012  0.19758094  1
  In  In30  1  0.02221761  0.33193285  0.65848987  1
  In  In31  1  0.04999343  0.36593155  0.01083500  1
  In  In32  1  0.02212724  0.33252610  0.34499444  1
  In  In33  1  0.65500462  -0.04365728  0.02414709  1
  In  In34  1  0.01914038  0.00767280  -0.02670840  1
  In  In35  1  0.66734411  0.50853002  0.18023724  1
  In  In36  1  0.83141052  -0.01582098  0.16289907  1
  In  In37  1  0.65511607  0.34306222  0.63140105  1
  In  In38  1  0.87352754  0.16895660  0.01493413  1
  In  In39  1  0.85860938  0.49523083  0.35139763  1
  In  In40  1  0.27275145  0.76053366  0.09914269  1
  In  In41  1  0.65369603  0.16757728  0.48296665  1
  In  In42  1  0.13790504  0.80703958  0.35052178  1
  In  In43  1  0.48698171  0.01726873  0.49968575  1
  In  In44  1  0.80986029  0.16250159  0.67555596  1
  In  In45  1  0.47215117  0.48168140  0.03301736  1
  In  In46  1  -0.00448794  0.19389694  0.50081517  1
  In  In47  1  0.45118753  0.80804681  0.67455839  1
  In  In48  1  0.22353862  0.51819606  0.02324716  1
  In  In49  1  0.17191233  0.34404995  0.82953419  1
  In  In50  1  0.32008381  0.65878724  0.33329982  1
  In  In51  1  0.32867180  0.19557913  0.83546801  1
  In  In52  1  0.03776576  0.76466276  0.17895217  1
  In  In53  1  0.64887908  0.30759041  -0.00162479  1
  In  In54  1  0.81326278  0.86368619  0.34261803  1
  In  In55  1  0.50108794  0.15755717  -0.00323626  1
  In  In56  1  0.18500237  0.81117663  0.67258441  1
  In  In57  1  0.82375296  0.01828463  0.50285962  1
  In  In58  1  0.82100167  0.82847399  0.65593358  1
  In  In59  1  0.64846402  0.15740426  0.14693068  1
  In  In60  1  0.19246048  -0.03341570  0.17882275  1
  In  In61  1  0.64437207  0.51561698  0.80983091  1
  In  In62  1  0.49509632  -0.00829620  0.15203444  1
  In  In63  1  0.21570293  0.34136926  0.19195083  1
  In  In64  1  0.84615308  0.81462449  0.01267864  1
  In  In65  1  0.18268109  0.19012495  0.01809697  1
  In  In66  1  0.28655450  0.53422126  0.84363608  1
  In  In67  1  0.65743252  0.84016896  0.49279797  1
  In  In68  1  0.35103149  0.00439220  0.33522297  1
  In  In69  1  0.16893666  0.01396212  0.83067402  1
  In  In70  1  0.65029397  0.15056177  0.82933849  1
  In  In71  1  0.66114188  0.33517794  0.34185134  1
  Te  Te72  1  0.09977749  0.07079438  0.08560129  1
  Te  Te73  1  0.08594604  0.09125203  0.40908965  1
  Te  Te74  1  0.10097442  0.09430089  0.72022738  1
  Te  Te75  1  0.12470179  0.44248652  0.11413387  1
  Te  Te76  1  0.10520607  0.44514159  0.38990895  1
  Te  Te77  1  0.08967171  0.43320685  0.74299480  1
  Te  Te78  1  0.11699482  0.75390727  0.05453704  1
  Te  Te79  1  0.14609043  0.71397082  0.46659740  1
  Te  Te80  1  0.10599497  0.72214109  0.76485234  1
  Te  Te81  1  0.40672747  0.06987793  0.06421487  1
  Te  Te82  1  0.42802791  0.11734500  0.40132303  1
  Te  Te83  1  0.42957799  0.09295529  0.77109703  1
  Te  Te84  1  0.38844811  0.42286736  0.14223825  1
  Te  Te85  1  0.40183198  0.42935495  0.41009837  1
  Te  Te86  1  0.36223486  0.43288328  0.74942546  1
  Te  Te87  1  0.38009311  0.68585980  0.01210470  1
  Te  Te88  1  0.41124991  0.73221725  0.43114381  1
  Te  Te89  1  0.37023628  0.74300922  0.78138337  1
  Te  Te90  1  0.75170342  0.07733358  0.06684804  1
  Te  Te91  1  0.74042298  0.08216598  0.40196367  1
  Te  Te92  1  0.73793315  0.06268182  0.75272966  1
  Te  Te93  1  0.74135659  0.40567319  0.08096210  1
  Te  Te94  1  0.74824594  0.42472419  0.42763070  1
  Te  Te95  1  0.74409159  0.41410683  0.74202459  1
  Te  Te96  1  0.74219115  0.73043621  0.08233320  1
  Te  Te97  1  0.75477499  0.74758863  0.42354815  1
  Te  Te98  1  0.74814299  0.73921147  0.75369490  1
  Te  Te99  1  0.09578555  0.24042283  0.23404000  1
  Te  Te100  1  0.10908320  0.26996481  0.55621523  1
  Te  Te101  1  0.07351573  0.23913531  0.91983076  1
  Te  Te102  1  0.05451571  0.63572123  0.24539502  1
  Te  Te103  1  0.11237926  0.53499818  0.61225896  1
  Te  Te104  1  0.14199138  0.57114387  0.90726962  1
  Te  Te105  1  0.06973536  0.91637936  0.25639985  1
  Te  Te106  1  0.09159816  0.89308125  0.58000404  1
  Te  Te107  1  0.09896873  0.90104723  0.90314053  1
  Te  Te108  1  0.35574337  0.30027429  0.24593353  1
  Te  Te109  1  0.39562445  0.29439143  0.59704499  1
  Te  Te110  1  0.43420532  0.26978610  0.91325510  1
  Te  Te111  1  0.41917510  0.61520174  0.23103927  1
  Te  Te112  1  0.45742732  0.56898277  0.59693654  1
  Te  Te113  1  0.41927016  0.56190689  0.91941116  1
  Te  Te114  1  0.41423330  0.89987563  0.24764193  1
  Te  Te115  1  0.39524601  0.91077028  0.56232225  1
  Te  Te116  1  0.35358082  0.88657754  0.91977725  1
  Te  Te117  1  0.73438315  0.24461093  0.24278878  1
  Te  Te118  1  0.75670874  0.25160617  0.56775303  1
  Te  Te119  1  0.75545259  0.23851986  0.91454221  1
  Te  Te120  1  0.77521316  0.58084817  0.25513296  1
  Te  Te121  1  0.73082201  0.57217237  0.59278809  1
  Te  Te122  1  0.74626370  0.58201953  0.90225888  1
  Te  Te123  1  0.71715168  0.92796731  0.24334213  1
  Te  Te124  1  0.73234356  0.93074249  0.58800722  1
  Te  Te125  1  0.74914191  0.89233985  0.92494836  1
  Te  Te126  1  0.29061567  0.25710743  0.09021517  1
  Te  Te127  1  0.22549578  0.28503391  0.42788503  1
  Te  Te128  1  0.23255475  0.24683202  0.73882125  1
  Te  Te129  1  0.28510417  0.60803140  0.12618778  1
  Te  Te130  1  0.22554058  0.58666319  0.42587009  1
  Te  Te131  1  0.29854918  0.62128302  0.71918309  1
  Te  Te132  1  0.27033919  0.90993716  0.06813058  1
  Te  Te133  1  0.23747731  0.93012012  0.40688916  1
  Te  Te134  1  0.25577409  0.92828769  0.73967496  1
  Te  Te135  1  0.54730125  0.26266521  0.09965359  1
  Te  Te136  1  0.56491135  0.27310296  0.43322181  1
  Te  Te137  1  0.58756656  0.26561706  0.75150752  1
  Te  Te138  1  0.57365043  0.58236547  0.08640943  1
  Te  Te139  1  0.59117456  0.60558974  0.39639720  1
  Te  Te140  1  0.53730591  0.59248097  0.74010157  1
  Te  Te141  1  0.54319953  0.86666150  0.06719198  1
  Te  Te142  1  0.57521828  0.93525303  0.40819975  1
  Te  Te143  1  0.55029591  0.90973115  0.73209303  1
  Te  Te144  1  0.93251024  0.29126616  0.08602918  1
  Te  Te145  1  0.91214776  0.25145208  0.39649533  1
  Te  Te146  1  0.91260565  0.25963155  0.75003155  1
  Te  Te147  1  0.92872527  0.56934159  0.06935254  1
  Te  Te148  1  0.93857362  0.59957087  0.42716151  1
  Te  Te149  1  0.92432903  0.58577749  0.75922203  1
  Te  Te150  1  0.93427351  0.92327503  0.07089160  1
  Te  Te151  1  0.91710131  0.91141593  0.44368055  1
  Te  Te152  1  0.90401539  0.91085697  0.75535352  1
  Te  Te153  1  0.27075549  0.08494994  0.23393837  1
  Te  Te154  1  0.27018372  0.10207562  0.56846317  1
  Te  Te155  1  0.25633731  0.09476396  0.92381289  1
  Te  Te156  1  0.30294995  0.43944127  0.27441037  1
  Te  Te157  1  0.29063989  0.42399776  0.61145120  1
  Te  Te158  1  0.26472900  0.40243767  0.93025982  1
  Te  Te159  1  0.24724747  0.76878645  0.25681369  1
  Te  Te160  1  0.26137758  0.70611425  0.59333811  1
  Te  Te161  1  0.28126197  0.74673787  0.91757560  1
  Te  Te162  1  0.56091268  0.08854458  0.24045048  1
  Te  Te163  1  0.57721626  0.09319707  0.59476322  1
  Te  Te164  1  0.58264132  0.04902085  0.92254377  1
  Te  Te165  1  0.57234439  0.41848086  0.25201283  1
  Te  Te166  1  0.54466722  0.43908411  0.59789258  1
  Te  Te167  1  0.58779818  0.42301705  0.92039771  1
  Te  Te168  1  0.59453944  0.73035809  0.27101978  1
  Te  Te169  1  0.56082444  0.75914033  0.57548598  1
  Te  Te170  1  0.55594092  0.74763197  0.89571091  1
  Te  Te171  1  0.89826568  0.09081800  0.24785158  1
  Te  Te172  1  0.92771305  0.08537424  0.59491678  1
  Te  Te173  1  0.90484654  0.07131440  0.89778408  1
  Te  Te174  1  0.94705232  0.42864798  0.24819118  1
  Te  Te175  1  0.91905702  0.40125801  0.56875057  1
  Te  Te176  1  0.94992897  0.42701889  0.91020827  1
  Te  Te177  1  0.89828607  0.78590107  0.24540189  1
  Te  Te178  1  0.92964066  0.74528801  0.59274150  1
  Te  Te179  1  0.92846931  0.72698487  0.92171123  1
