# generated using pymatgen
data_In2Te3
_symmetry_space_group_name_H-M   'P 1'
_cell_length_a   19.02289812
_cell_length_b   19.04951747
_cell_length_c   19.01688760
_cell_angle_alpha   90.05923140
_cell_angle_beta   89.75296324
_cell_angle_gamma   90.02309165
_symmetry_Int_Tables_number   1
_chemical_formula_structural   In2Te3
_chemical_formula_sum   'In72 Te108'
_cell_volume   6891.21496300
_cell_formula_units_Z   36
loop_
 _symmetry_equiv_pos_site_id
 _symmetry_equiv_pos_as_xyz
  1  'x, y, z'
loop_
 _atom_site_type_symbol
 _atom_site_label
 _atom_site_symmetry_multiplicity
 _atom_site_fract_x
 _atom_site_fract_y
 _atom_site_fract_z
 _atom_site_occupancy
  In  In0  1  0.64126819  0.00503762  0.66176878  1
  In  In1  1  0.51067698  0.67029858  0.84391881  1
  In  In2  1  0.31888438  0.66773008  0.35671779  1
  In  In3  1  0.34924702  -0.02490667  0.00647469  1
  In  In4  1  0.52462104  0.80258970  0.67303811  1
  In  In5  1  0.68111729  0.16097019  0.14994964  1
  In  In6  1  0.31936866  0.50500016  0.48638128  1
  In  In7  1  0.84222395  0.66209231  0.81111059  1
  In  In8  1  0.49127279  0.34659584  0.19326791  1
  In  In9  1  0.30069789  0.68382524  0.61582457  1
  In  In10  1  0.33758609  0.51022778  0.79305725  1
  In  In11  1  0.51458936  0.17817290  0.33374152  1
  In  In12  1  0.66159649  -0.03178227  -0.01152174  1
  In  In13  1  0.30187448  -0.00019120  0.34081644  1
  In  In14  1  0.29841800  0.48574469  0.18217662  1
  In  In15  1  0.14491404  -0.00339054  0.81498248  1
  In  In16  1  -0.01439535  0.84002346  0.50587870  1
  In  In17  1  0.16378586  0.67702931  0.18639574  1
  In  In18  1  0.83184786  0.81384752  0.32505251  1
  In  In19  1  0.68223142  0.34733203  0.66235781  1
  In  In20  1  -0.00778178  0.64955382  0.63345897  1
  In  In21  1  0.16420892  0.17026678  0.33018017  1
  In  In22  1  0.31314108  -0.01174547  0.67165447  1
  In  In23  1  0.15869302  0.83166944  0.00278160  1
  In  In24  1  0.17549143  0.48241158  -0.00596720  1
  In  In25  1  0.68041641  0.83649451  0.16265817  1
  In  In26  1  0.11165906  -0.00727242  0.13713152  1
  In  In27  1  0.51777265  0.16109073  -0.00035547  1
  In  In28  1  0.02404768  0.18683382  0.16645632  1
  In  In29  1  0.48047028  -0.02136245  0.83277590  1
  In  In30  1  0.49227107  0.34418927  0.83416413  1
  In  In31  1  0.34033367  0.18134040  0.53126227  1
  In  In32  1  0.47721068  0.82048825  0.33135868  1
  In  In33  1  0.14064979  0.49168707  0.65556567  1
  In  In34  1  0.86486374  0.46591251  0.65689503  1
  In  In35  1  0.50789081  0.66376114  0.19718979  1
  In  In36  1  0.83998985  0.00440352  0.50001040  1
  In  In37  1  -0.01183193  0.83266644  0.82830757  1
  In  In38  1  0.49743371  0.51099417  0.04038930  1
  In  In39  1  0.00843146  0.15080692  0.48856939  1
  In  In40  1  0.66946068  -0.01131291  0.32832504  1
  In  In41  1  0.68414525  0.21196999  0.49932459  1
  In  In42  1  0.16385447  0.85954352  0.33623091  1
  In  In43  1  0.33708898  0.34722222  0.34017837  1
  In  In44  1  0.65019091  0.51157431  0.84745858  1
  In  In45  1  0.68393176  0.50083520  0.49643604  1
  In  In46  1  0.80776174  0.35616773  0.15679459  1
  In  In47  1  -0.00515353  0.62574650  0.00441651  1
  In  In48  1  0.68111471  0.82248024  0.47435264  1
  In  In49  1  0.82714746  0.48650040  -0.03017574  1
  In  In50  1  0.14734576  -0.03276656  0.48207760  1
  In  In51  1  0.85767324  0.17005006  0.33001867  1
  In  In52  1  0.68501747  0.65638828  0.67467248  1
  In  In53  1  0.36470742  0.67429784  0.02110222  1
  In  In54  1  0.31317949  0.17231545  0.85672780  1
  In  In55  1  0.17008569  0.15185157  0.68053823  1
  In  In56  1  0.70934135  0.16293328  0.82668157  1
  In  In57  1  0.84844955  0.16445346  0.00313298  1
  In  In58  1  0.16712041  0.32707270  0.82826040  1
  In  In59  1  0.87539015  0.85350111  0.03452580  1
  In  In60  1  -0.00762500  0.66002230  0.32881241  1
  In  In61  1  0.67473481  0.37388101  0.32843547  1
  In  In62  1  0.48248174  0.19934990  0.67711833  1
  In  In63  1  0.48658531  0.01235245  0.51870024  1
  In  In64  1  0.83063045  0.50297776  0.33543596  1
  In  In65  1  0.84294995  -0.00597027  0.84834672  1
  In  In66  1  -0.00013241  0.48209309  0.15987462  1
  In  In67  1  0.14996486  0.68286317  0.83871754  1
  In  In68  1  0.84085940  0.31814859  0.84175965  1
  In  In69  1  0.29467828  0.17970472  0.13185068  1
  In  In70  1  0.34890753  0.84785838  0.83049125  1
  In  In71  1  0.14460710  0.35573457  0.49334143  1
  Te  Te72  1  0.09423309  0.11611696  0.05509377  1
  Te  Te73  1  0.07643441  0.06105993  0.38664189  1
  Te  Te74  1  0.06454279  0.11257942  0.77476600  1
  Te  Te75  1  0.09382505  0.39589316  0.08198295  1
  Te  Te76  1  0.03631640  0.44770807  0.45121624  1
  Te  Te77  1  0.07046011  0.38517419  0.73246608  1
  Te  Te78  1  0.07316442  0.73320292  0.07956786  1
  Te  Te79  1  0.07232197  0.76189302  0.40855434  1
  Te  Te80  1  0.06585888  0.74523004  0.73183376  1
  Te  Te81  1  0.41115742  0.09024244  0.08126903  1
  Te  Te82  1  0.41324674  0.09656892  0.41698802  1
  Te  Te83  1  0.40842611  0.08681037  0.74780669  1
  Te  Te84  1  0.39595040  0.40976780  0.09394409  1
  Te  Te85  1  0.42306730  0.44967277  0.39590288  1
  Te  Te86  1  0.43299785  0.42207962  0.72702314  1
  Te  Te87  1  0.41609395  0.75670908  0.12775765  1
  Te  Te88  1  0.43400069  0.72230714  0.43117367  1
  Te  Te89  1  0.40733025  0.73639720  0.74574379  1
  Te  Te90  1  0.75642653  0.06214054  0.06591487  1
  Te  Te91  1  0.73654834  0.09198606  0.41947566  1
  Te  Te92  1  0.76276974  0.06297954  0.73087588  1
  Te  Te93  1  0.72900201  0.44113509  0.07004872  1
  Te  Te94  1  0.77793286  0.39831799  0.43515302  1
  Te  Te95  1  0.75326631  0.43370621  0.76571136  1
  Te  Te96  1  0.78889884  0.75501725  0.10244542  1
  Te  Te97  1  0.78814066  0.72810287  0.43782959  1
  Te  Te98  1  0.75973297  0.76050834  0.74337328  1
  Te  Te99  1  0.07939341  0.27389828  0.27298970  1
  Te  Te100  1  0.09914279  0.23459786  0.57700351  1
  Te  Te101  1  0.13348481  0.23574200  0.94179518  1
  Te  Te102  1  0.08656135  0.56608211  0.25202063  1
  Te  Te103  1  0.10532487  0.59387208  0.55320313  1
  Te  Te104  1  0.08479225  0.56100601  0.90089283  1
  Te  Te105  1  0.06209632  0.88792576  0.23197283  1
  Te  Te106  1  0.05926490  0.93374448  0.59472402  1
  Te  Te107  1  0.06823310  0.92077527  0.92176872  1
  Te  Te108  1  0.39774291  0.23365437  0.24701285  1
  Te  Te109  1  0.43643992  0.28371766  0.56757421  1
  Te  Te110  1  0.41668499  0.25184866  0.93025550  1
  Te  Te111  1  0.39153514  0.57757302  0.25418089  1
  Te  Te112  1  0.40550114  0.59814627  0.56446107  1
  Te  Te113  1  0.41318833  0.57155423  0.91936936  1
  Te  Te114  1  0.41204129  0.93635511  0.26993464  1
  Te  Te115  1  0.43136259  0.91163473  0.61465508  1
  Te  Te116  1  0.45246020  0.87319127  0.94420454  1
  Te  Te117  1  0.74056448  0.24985289  0.25717765  1
  Te  Te118  1  0.77865638  0.24266735  0.61289962  1
  Te  Te119  1  0.74124963  0.25261422  0.94094512  1
  Te  Te120  1  0.70871784  0.56500404  0.27494546  1
  Te  Te121  1  0.77843842  0.57068132  0.59142194  1
  Te  Te122  1  0.74356155  0.60762742  0.91343050  1
  Te  Te123  1  0.77403213  0.92910443  0.24126217  1
  Te  Te124  1  0.73572443  0.92193732  0.57398004  1
  Te  Te125  1  0.77206854  0.88612472  0.92807141  1
  Te  Te126  1  0.21455611  0.28140313  0.06169498  1
  Te  Te127  1  0.24931340  0.25004605  0.43088343  1
  Te  Te128  1  0.26794853  0.25166308  0.73799674  1
  Te  Te129  1  0.24182909  0.59295679  0.07852200  1
  Te  Te130  1  0.21392870  0.58728738  0.42350496  1
  Te  Te131  1  0.23026650  0.59883600  0.73323269  1
  Te  Te132  1  0.24298427  0.91490548  0.09417132  1
  Te  Te133  1  0.28309581  0.89155031  0.44708433  1
  Te  Te134  1  0.22902100  0.88894017  0.74697979  1
  Te  Te135  1  0.57680090  0.25792278  0.09948285  1
  Te  Te136  1  0.58130629  0.28424846  0.41468339  1
  Te  Te137  1  0.60055186  0.25063789  0.76465387  1
  Te  Te138  1  0.57835344  0.62815816  0.07159462  1
  Te  Te139  1  0.62049999  0.58212777  0.39238017  1
  Te  Te140  1  0.57041275  0.57912424  0.73938059  1
  Te  Te141  1  0.58091427  0.92435958  0.10059712  1
  Te  Te142  1  0.57085064  0.92414180  0.42895836  1
  Te  Te143  1  0.59330062  0.90278442  0.76279872  1
  Te  Te144  1  0.91122686  0.26587787  0.09321777  1
  Te  Te145  1  0.91520035  0.25010649  0.43461329  1
  Te  Te146  1  0.89145045  0.27129174  0.71374990  1
  Te  Te147  1  0.89163343  0.56022814  0.09173626  1
  Te  Te148  1  0.92647644  0.56915011  0.42700288  1
  Te  Te149  1  0.93769045  0.56448566  0.74735665  1
  Te  Te150  1  0.96888771  0.94338272  0.10438213  1
  Te  Te151  1  0.91301516  0.92002362  0.39919420  1
  Te  Te152  1  0.90452722  0.91358392  0.74186057  1
  Te  Te153  1  0.23184912  0.07962057  0.22843007  1
  Te  Te154  1  0.24087264  0.06678001  0.56455879  1
  Te  Te155  1  0.25709345  0.04458355  0.90921988  1
  Te  Te156  1  0.21973715  0.39574145  0.26748308  1
  Te  Te157  1  0.24910192  0.41240316  0.58580372  1
  Te  Te158  1  0.26926361  0.41825588  0.89379656  1
  Te  Te159  1  0.25693671  0.76769456  0.25905474  1
  Te  Te160  1  0.23387785  0.79733737  0.55948737  1
  Te  Te161  1  0.26153333  0.74851978  0.92092772  1
  Te  Te162  1  0.58683021  0.08269800  0.24227028  1
  Te  Te163  1  0.58034347  0.12054824  0.57653727  1
  Te  Te164  1  0.58729314  0.07445310  0.89558838  1
  Te  Te165  1  0.58931906  0.45075693  0.23415130  1
  Te  Te166  1  0.59027844  0.42457760  0.58168256  1
  Te  Te167  1  0.57063691  0.42067715  0.93755007  1
  Te  Te168  1  0.60248139  0.76121464  0.27098132  1
  Te  Te169  1  0.60281895  0.72906509  0.56773720  1
  Te  Te170  1  0.56619251  0.76957453  0.93133915  1
  Te  Te171  1  0.92569395  0.09405586  0.22825886  1
  Te  Te172  1  0.94218165  0.06295901  0.58802972  1
  Te  Te173  1  0.93082303  0.09983951  0.90069258  1
  Te  Te174  1  0.91193541  0.40366494  0.25561967  1
  Te  Te175  1  0.98000202  0.40217467  0.58435295  1
  Te  Te176  1  0.93151516  0.39535454  0.92488398  1
  Te  Te177  1  0.90285822  0.72415847  0.23068475  1
  Te  Te178  1  0.89492200  0.74223667  0.57044890  1
  Te  Te179  1  0.92347364  0.73398099  0.92616355  1
