# generated using pymatgen
data_In2Te3
_symmetry_space_group_name_H-M   'P 1'
_cell_length_a   18.98309372
_cell_length_b   18.96835027
_cell_length_c   18.99317819
_cell_angle_alpha   90.04069090
_cell_angle_beta   90.35022394
_cell_angle_gamma   89.97321593
_symmetry_Int_Tables_number   1
_chemical_formula_structural   In2Te3
_chemical_formula_sum   'In72 Te108'
_cell_volume   6838.89483866
_cell_formula_units_Z   36
loop_
 _symmetry_equiv_pos_site_id
 _symmetry_equiv_pos_as_xyz
  1  'x, y, z'
loop_
 _atom_site_type_symbol
 _atom_site_label
 _atom_site_symmetry_multiplicity
 _atom_site_fract_x
 _atom_site_fract_y
 _atom_site_fract_z
 _atom_site_occupancy
  In  In0  1  0.49309729  0.68234636  0.84485857  1
  In  In1  1  0.66853287  0.82581556  0.51095724  1
  In  In2  1  0.82122804  0.50326883  0.69583585  1
  In  In3  1  0.81739206  0.16477610  -0.02128621  1
  In  In4  1  0.18749200  0.82336461  0.66880522  1
  In  In5  1  0.81115641  0.00417263  0.81705399  1
  In  In6  1  0.67336490  0.84177124  0.17999352  1
  In  In7  1  0.82604173  0.14619449  0.34406293  1
  In  In8  1  0.48566460  0.00178158  0.18430687  1
  In  In9  1  -0.00916786  0.49244627  0.53246512  1
  In  In10  1  0.51087985  0.15959741  -0.03226418  1
  In  In11  1  0.15886168  0.65520565  0.15037838  1
  In  In12  1  -0.04351199  0.19599176  0.80592796  1
  In  In13  1  0.83540007  -0.02121977  0.15563272  1
  In  In14  1  0.33831774  0.15676674  0.48787776  1
  In  In15  1  0.14615349  0.50044843  0.69206121  1
  In  In16  1  0.49678964  0.67719552  0.16149789  1
  In  In17  1  0.00455669  -0.03120812  0.70304650  1
  In  In18  1  0.50499713  0.48924083  0.34244640  1
  In  In19  1  0.50694378  0.00815412  0.53826347  1
  In  In20  1  0.32185262  -0.00275702  0.00658393  1
  In  In21  1  -0.00268237  0.04716487  0.34413703  1
  In  In22  1  0.19706607  -0.00225629  0.47567122  1
  In  In23  1  0.35242799  0.19326177  0.18750684  1
  In  In24  1  0.32807894  0.65117739  0.32675090  1
  In  In25  1  0.24402455  0.38098708  0.14947769  1
  In  In26  1  0.52816076  0.18649783  0.69465897  1
  In  In27  1  0.02908032  0.84181507  0.16090690  1
  In  In28  1  0.13583092  0.33328918  0.81376267  1
  In  In29  1  0.67592477  0.71333486  0.69762048  1
  In  In30  1  0.15213250  0.82705347  -0.00703096  1
  In  In31  1  0.16133167  0.16817317  0.65215187  1
  In  In32  1  0.00159773  0.48804443  0.12554993  1
  In  In33  1  0.18701714  0.18651261  0.31267729  1
  In  In34  1  0.02069613  0.82007243  0.51301897  1
  In  In35  1  -0.01138558  0.16101675  0.53164677  1
  In  In36  1  -0.03212147  0.68060773  0.67577285  1
  In  In37  1  0.51356594  0.18500433  0.33567239  1
  In  In38  1  -0.00380668  0.65913223  0.29592847  1
  In  In39  1  0.35334957  0.68526874  0.65527689  1
  In  In40  1  0.65387425  0.51003291  0.18420481  1
  In  In41  1  0.32712699  0.34802925  0.66263152  1
  In  In42  1  -0.01746662  0.31027517  0.34893381  1
  In  In43  1  0.16705093  -0.00507733  0.85004560  1
  In  In44  1  0.65930755  0.33659047  -0.00804198  1
  In  In45  1  0.17525465  0.02278194  0.16684817  1
  In  In46  1  0.32271012  0.29474975  -0.02013684  1
  In  In47  1  0.35287341  0.50439302  0.82131376  1
  In  In48  1  0.81067107  0.00441242  0.52349928  1
  In  In49  1  0.32090831  0.83821128  0.85981920  1
  In  In50  1  0.51438581  0.64829735  0.50611152  1
  In  In51  1  0.13608970  0.65153798  0.83390007  1
  In  In52  1  0.16760899  0.32072100  0.49523422  1
  In  In53  1  0.50369388  0.82888159  0.33535227  1
  In  In54  1  0.66221843  0.18501292  0.16439692  1
  In  In55  1  0.19360393  0.85219526  0.34614922  1
  In  In56  1  0.51911191  0.32025060  0.49928171  1
  In  In57  1  0.84332389  0.48225645  -0.02987541  1
  In  In58  1  0.84910892  0.84109787  0.36014158  1
  In  In59  1  0.17711583  0.63500439  0.47309914  1
  In  In60  1  0.67200804  0.66878718  0.01197948  1
  In  In61  1  0.83548293  0.84295756  -0.02925554  1
  In  In62  1  0.56920970  0.02249657  0.78590590  1
  In  In63  1  0.81476564  0.50497352  0.33090915  1
  In  In64  1  0.66143526  0.48452539  0.50838782  1
  In  In65  1  0.01191255  0.17108940  0.11936209  1
  In  In66  1  0.50947765  0.49204917  0.65237541  1
  In  In67  1  0.16985984  0.50125522  -0.00938487  1
  In  In68  1  0.83133907  0.65326239  0.50935270  1
  In  In69  1  0.50239608  0.83236813  0.00818545  1
  In  In70  1  0.83799146  0.32644616  0.16238231  1
  In  In71  1  0.63637657  0.48593344  0.84164312  1
  Te  Te72  1  0.08728351  0.06330376  0.05744746  1
  Te  Te73  1  0.10313341  0.11741556  0.43016221  1
  Te  Te74  1  0.07821179  0.09254303  0.75375179  1
  Te  Te75  1  0.10400739  0.39356264  0.07337976  1
  Te  Te76  1  0.06530011  0.41161233  0.42686572  1
  Te  Te77  1  0.03265919  0.42163055  0.74601001  1
  Te  Te78  1  0.05808101  0.72837860  0.06442314  1
  Te  Te79  1  0.08757654  0.74660633  0.39846139  1
  Te  Te80  1  0.07551282  0.76247076  0.74999500  1
  Te  Te81  1  0.41759741  0.09484685  0.08411504  1
  Te  Te82  1  0.44009104  0.07782775  0.41345780  1
  Te  Te83  1  0.44057616  0.08074031  0.74695775  1
  Te  Te84  1  0.37076510  0.39456363  0.07607727  1
  Te  Te85  1  0.42987244  0.42677316  0.45204242  1
  Te  Te86  1  0.43906532  0.40150495  0.75124146  1
  Te  Te87  1  0.40311042  0.75856249  0.08416476  1
  Te  Te88  1  0.42188954  0.72940489  0.41738342  1
  Te  Te89  1  0.41706280  0.77871367  0.75495892  1
  Te  Te90  1  0.74945914  0.08659829  0.08898649  1
  Te  Te91  1  0.72893436  0.07218088  0.42297060  1
  Te  Te92  1  0.73937408  0.12304057  0.74784885  1
  Te  Te93  1  0.74772487  0.42096550  0.08517734  1
  Te  Te94  1  0.76173860  0.41189644  0.42917686  1
  Te  Te95  1  0.73431610  0.40727484  0.76470384  1
  Te  Te96  1  0.76193399  0.76733302  0.08360036  1
  Te  Te97  1  0.75009262  0.74090817  0.41439280  1
  Te  Te98  1  0.77770914  0.77271069  0.78859902  1
  Te  Te99  1  0.06871373  0.24725432  0.24164809  1
  Te  Te100  1  0.06569275  0.27283189  0.59828990  1
  Te  Te101  1  0.06208599  0.23999138  0.89846995  1
  Te  Te102  1  0.08604066  0.55573024  0.23782518  1
  Te  Te103  1  0.07864576  0.60649987  0.59245785  1
  Te  Te104  1  0.05356534  0.55318938  0.90875261  1
  Te  Te105  1  0.08606860  0.94041652  0.27114244  1
  Te  Te106  1  0.10216241  0.92929498  0.58228836  1
  Te  Te107  1  0.06870022  0.89695343  0.89485047  1
  Te  Te108  1  0.44158190  0.28779838  0.25627513  1
  Te  Te109  1  0.41176074  0.24330452  0.59033503  1
  Te  Te110  1  0.41166226  0.22869908  0.88522009  1
  Te  Te111  1  0.42271513  0.56953401  0.24263406  1
  Te  Te112  1  0.40316994  0.56715616  0.57272228  1
  Te  Te113  1  0.41608359  0.58715966  0.92344732  1
  Te  Te114  1  0.41025253  0.89062995  0.24016401  1
  Te  Te115  1  0.39310880  0.92173562  0.56120165  1
  Te  Te116  1  0.42588490  0.93038513  0.91914215  1
  Te  Te117  1  0.75287856  0.25568037  0.26369179  1
  Te  Te118  1  0.74237721  0.18463959  0.60925970  1
  Te  Te119  1  0.75049521  0.26937804  0.89373355  1
  Te  Te120  1  0.76146019  0.59748963  0.23301602  1
  Te  Te121  1  0.72771787  0.59716076  0.60249100  1
  Te  Te122  1  0.73701773  0.57581692  0.91193493  1
  Te  Te123  1  0.75708495  0.92790175  0.27473216  1
  Te  Te124  1  0.72210639  0.92436839  0.61343469  1
  Te  Te125  1  0.73436156  0.94440786  0.93003717  1
  Te  Te126  1  0.24132615  0.23315032  0.09368983  1
  Te  Te127  1  0.27860987  0.27194016  0.40118560  1
  Te  Te128  1  0.24648674  0.25138680  0.74583068  1
  Te  Te129  1  0.25921615  0.57328743  0.08245839  1
  Te  Te130  1  0.24558284  0.53875297  0.38401367  1
  Te  Te131  1  0.25521066  0.60293265  0.74052082  1
  Te  Te132  1  0.23820551  0.90444966  0.09106413  1
  Te  Te133  1  0.30626857  0.90587828  0.43258582  1
  Te  Te134  1  0.26041329  0.92634244  0.75103871  1
  Te  Te135  1  0.56246860  0.25501307  0.07605157  1
  Te  Te136  1  0.61712496  0.24995577  0.41846216  1
  Te  Te137  1  0.62901291  0.22479500  0.79836269  1
  Te  Te138  1  0.57085502  0.57629998  0.07493296  1
  Te  Te139  1  0.60653364  0.58304107  0.40769052  1
  Te  Te140  1  0.57210944  0.59767651  0.74244135  1
  Te  Te141  1  0.58383428  0.92727198  0.09472889  1
  Te  Te142  1  0.57953667  0.91759416  0.43094903  1
  Te  Te143  1  0.61844407  0.89894017  0.72593223  1
  Te  Te144  1  0.91459177  0.26385786  0.04937334  1
  Te  Te145  1  0.89116166  0.23974887  0.44647050  1
  Te  Te146  1  0.85895526  0.23387604  0.70183888  1
  Te  Te147  1  0.89691377  0.57422475  0.07310156  1
  Te  Te148  1  0.93300608  0.58969293  0.41714031  1
  Te  Te149  1  0.89483098  0.60428889  0.77846417  1
  Te  Te150  1  0.93691101  0.91667593  0.06527906  1
  Te  Te151  1  0.93923070  0.93925467  0.43453347  1
  Te  Te152  1  0.88940244  0.89131111  0.75527768  1
  Te  Te153  1  0.27814165  0.07813818  0.26345960  1
  Te  Te154  1  0.26309572  0.07460931  0.59058693  1
  Te  Te155  1  0.25539572  0.09054782  0.91586269  1
  Te  Te156  1  0.23910371  0.39957698  0.29394711  1
  Te  Te157  1  0.22756172  0.43140804  0.58455947  1
  Te  Te158  1  0.24631988  0.41772118  0.88606648  1
  Te  Te159  1  0.23769597  0.74516369  0.24858257  1
  Te  Te160  1  0.24954712  0.74165758  0.55806352  1
  Te  Te161  1  0.23854697  0.72637237  0.91953137  1
  Te  Te162  1  0.59323398  0.08332665  0.25266233  1
  Te  Te163  1  0.60142133  0.11690999  0.58296885  1
  Te  Te164  1  0.61374788  0.06151595  0.92303317  1
  Te  Te165  1  0.58553869  0.40149081  0.25498455  1
  Te  Te166  1  0.60780705  0.38538856  0.60878883  1
  Te  Te167  1  0.54918138  0.41419334  0.93303036  1
  Te  Te168  1  0.59732118  0.73786354  0.25746660  1
  Te  Te169  1  0.56598008  0.75635751  0.59827638  1
  Te  Te170  1  0.60027331  0.76302829  0.91617184  1
  Te  Te171  1  0.91717513  0.09524778  0.22351885  1
  Te  Te172  1  0.91676094  0.06037390  0.61612325  1
  Te  Te173  1  0.91417023  0.08070823  0.90051007  1
  Te  Te174  1  0.92158952  0.41762785  0.25176267  1
  Te  Te175  1  0.87209429  0.42390845  0.58081074  1
  Te  Te176  1  0.95371459  0.43175497  0.88645850  1
  Te  Te177  1  0.91728405  0.77506830  0.24090001  1
  Te  Te178  1  0.89408764  0.77448671  0.58027008  1
  Te  Te179  1  0.89000175  0.73316109  0.88822225  1
