# generated using pymatgen
data_In2Te3
_symmetry_space_group_name_H-M   'P 1'
_cell_length_a   18.80429809
_cell_length_b   18.79409560
_cell_length_c   18.79519200
_cell_angle_alpha   89.89752984
_cell_angle_beta   89.99333225
_cell_angle_gamma   90.04077258
_symmetry_Int_Tables_number   1
_chemical_formula_structural   In2Te3
_chemical_formula_sum   'In72 Te108'
_cell_volume   6642.39224697
_cell_formula_units_Z   36
loop_
 _symmetry_equiv_pos_site_id
 _symmetry_equiv_pos_as_xyz
  1  'x, y, z'
loop_
 _atom_site_type_symbol
 _atom_site_label
 _atom_site_symmetry_multiplicity
 _atom_site_fract_x
 _atom_site_fract_y
 _atom_site_fract_z
 _atom_site_occupancy
  In  In0  1  0.31178986  0.83829087  0.49057495  1
  In  In1  1  0.66251452  -0.02292359  0.67364677  1
  In  In2  1  -0.00622110  0.51342979  0.82707664  1
  In  In3  1  0.29239208  0.00094744  -0.00004711  1
  In  In4  1  0.67311739  0.66811995  0.30259740  1
  In  In5  1  0.31985398  0.35512821  0.32268485  1
  In  In6  1  0.32672639  0.67270650  -0.00510502  1
  In  In7  1  0.17818878  0.67263252  0.84350368  1
  In  In8  1  0.02228666  0.50312549  0.49658007  1
  In  In9  1  0.35170104  0.15497220  0.49625139  1
  In  In10  1  0.48222452  0.34628148  0.48832869  1
  In  In11  1  0.48446947  0.14262520  0.33493269  1
  In  In12  1  0.01629540  0.34641062  0.64350528  1
  In  In13  1  0.17739299  0.33393409  0.16923795  1
  In  In14  1  0.48971441  0.48023302  0.31615599  1
  In  In15  1  0.83648460  0.17214326  0.32198841  1
  In  In16  1  0.82478050  0.50756934  0.33347996  1
  In  In17  1  0.65803918  0.84073227  0.82973324  1
  In  In18  1  0.15942859  0.32792735  0.51839053  1
  In  In19  1  0.85779907  0.66517563  0.50321755  1
  In  In20  1  0.01530097  0.16378145  0.81685049  1
  In  In21  1  0.47746327  0.67423888  0.15912217  1
  In  In22  1  0.83396225  0.15986024  0.65987427  1
  In  In23  1  0.01688138  0.34327410  0.33013205  1
  In  In24  1  0.34912684  0.01012425  0.68544314  1
  In  In25  1  0.02944153  0.78734792  0.13193877  1
  In  In26  1  0.51206076  0.33305382  0.12309101  1
  In  In27  1  0.82517829  0.29851260  0.49954760  1
  In  In28  1  0.49592204  0.68307264  0.50876392  1
  In  In29  1  0.65147750  0.00733705  0.32724197  1
  In  In30  1  0.16260611  0.50177649  0.00577289  1
  In  In31  1  -0.00508584  0.30921983  -0.02936550  1
  In  In32  1  0.49628845  0.48993411  -0.01060473  1
  In  In33  1  0.46689298  0.84030928  0.31660828  1
  In  In34  1  0.17210850  0.50888642  0.65621511  1
  In  In35  1  0.33604431  0.67730681  0.67488042  1
  In  In36  1  0.69739964  0.17563281  0.49809425  1
  In  In37  1  0.47361158  0.47853488  0.70306353  1
  In  In38  1  0.84635402  0.84496262  0.31555783  1
  In  In39  1  0.81350242  0.35929750  0.12652292  1
  In  In40  1  0.63421266  0.16088024  0.85535236  1
  In  In41  1  0.63777784  0.50213626  0.50299940  1
  In  In42  1  0.01169307  0.01217509  0.67169949  1
  In  In43  1  0.50721170  0.83164391  0.70060328  1
  In  In44  1  0.48493819  0.85868074  -0.00000914  1
  In  In45  1  0.18210910  0.16390681  0.68294951  1
  In  In46  1  0.84358045  0.67774458  0.16666889  1
  In  In47  1  0.83074818  0.00250649  0.16240843  1
  In  In48  1  0.68581663  0.65220767  -0.01793291  1
  In  In49  1  0.18216020  0.83251333  0.66424255  1
  In  In50  1  0.68148095  0.65329152  0.70295094  1
  In  In51  1  0.48300136  0.01705168  0.50312373  1
  In  In52  1  0.65890349  0.32499109  0.31478216  1
  In  In53  1  0.02026168  -0.02202178  0.32741979  1
  In  In54  1  0.68588939  0.84793157  0.50630042  1
  In  In55  1  0.01944774  0.52319772  0.17689294  1
  In  In56  1  0.17147357  0.30853421  0.85551587  1
  In  In57  1  0.37113512  0.32967159  -0.00951815  1
  In  In58  1  0.35263808  0.16147954  0.17537246  1
  In  In59  1  0.17127844  0.81701409  0.32566280  1
  In  In60  1  0.49213463  0.66474821  0.81347679  1
  In  In61  1  0.83246331  -0.01654372  0.83542495  1
  In  In62  1  0.17170199  0.15355127  0.31642589  1
  In  In63  1  0.48147677  0.00170022  0.16095999  1
  In  In64  1  0.83298364  0.15703184  -0.01349468  1
  In  In65  1  0.01074345  0.82657006  0.50206096  1
  In  In66  1  0.03858005  -0.00245344  0.02638462  1
  In  In67  1  0.82379966  0.33904905  0.84392445  1
  In  In68  1  0.84202349  0.49434801  0.69119452  1
  In  In69  1  0.82773241  0.83137720  -0.01331025  1
  In  In70  1  0.49692778  0.16112049  0.69438227  1
  In  In71  1  0.00860437  0.82588908  0.86697137  1
  Te  Te72  1  0.09876226  0.11426643  0.09050707  1
  Te  Te73  1  0.09667069  0.07203148  0.41327441  1
  Te  Te74  1  0.12120515  0.05837692  0.77764191  1
  Te  Te75  1  0.06861951  0.40161027  0.07728636  1
  Te  Te76  1  0.11831392  0.42695996  0.40679612  1
  Te  Te77  1  0.08756282  0.40958337  0.76450141  1
  Te  Te78  1  0.14899841  0.73056727  0.06364760  1
  Te  Te79  1  0.09295210  0.72963102  0.42197859  1
  Te  Te80  1  0.08705781  0.75177867  0.75123751  1
  Te  Te81  1  0.41799443  0.09366210  0.05570688  1
  Te  Te82  1  0.38264579  0.04555289  0.39008455  1
  Te  Te83  1  0.39620973  0.10638409  0.78965028  1
  Te  Te84  1  0.40215576  0.43515987  0.09934719  1
  Te  Te85  1  0.38650079  0.44734966  0.42762683  1
  Te  Te86  1  0.40802257  0.37985039  0.79313694  1
  Te  Te87  1  0.38964959  0.77650531  0.08829812  1
  Te  Te88  1  0.39688608  0.73943583  0.40765737  1
  Te  Te89  1  0.38936330  0.77387609  0.78043532  1
  Te  Te90  1  0.74210841  0.08015009  0.07444278  1
  Te  Te91  1  0.76306674  0.06923394  0.41132962  1
  Te  Te92  1  0.74642730  0.09079536  0.76565106  1
  Te  Te93  1  0.72167498  0.44223576  0.03809543  1
  Te  Te94  1  0.73700384  0.41083887  0.41707149  1
  Te  Te95  1  0.73459707  0.41754475  0.75453364  1
  Te  Te96  1  0.73909758  0.75341372  0.08446372  1
  Te  Te97  1  0.75293245  0.74565344  0.40837886  1
  Te  Te98  1  0.76256295  0.75494458  0.77109706  1
  Te  Te99  1  0.07444060  0.24010663  0.23377274  1
  Te  Te100  1  0.07570254  0.21941670  0.58471868  1
  Te  Te101  1  0.11186149  0.20092185  0.96085365  1
  Te  Te102  1  0.10110689  0.61567368  0.25959209  1
  Te  Te103  1  0.07165435  0.59753418  0.59775415  1
  Te  Te104  1  0.07376677  0.59718378  0.92701520  1
  Te  Te105  1  0.09262528  0.90207223  0.21536773  1
  Te  Te106  1  0.09896196  0.92706710  0.57863903  1
  Te  Te107  1  0.11337003  0.91032249  0.93266160  1
  Te  Te108  1  0.43111200  0.27053946  0.25950919  1
  Te  Te109  1  0.42084842  0.24921679  0.59180280  1
  Te  Te110  1  0.44506528  0.25702551  0.88265762  1
  Te  Te111  1  0.40570622  0.58255843  0.25154795  1
  Te  Te112  1  0.42346865  0.58093823  0.59467612  1
  Te  Te113  1  0.40398245  0.57793072  0.90387632  1
  Te  Te114  1  0.37509871  0.91595793  0.22640682  1
  Te  Te115  1  0.42525340  0.89923102  0.58470267  1
  Te  Te116  1  0.39023757  0.93006380  0.91130870  1
  Te  Te117  1  0.74993434  0.24930903  0.22138197  1
  Te  Te118  1  0.73203028  0.26621623  0.61704204  1
  Te  Te119  1  0.72998753  0.25883018  0.93379083  1
  Te  Te120  1  0.74592567  0.56680621  0.21723375  1
  Te  Te121  1  0.74521342  0.58167064  0.57599437  1
  Te  Te122  1  0.75828117  0.54052947  0.92118514  1
  Te  Te123  1  0.73280495  0.91078871  0.24023237  1
  Te  Te124  1  0.77460187  0.92178140  0.59742291  1
  Te  Te125  1  0.72663851  0.93266318  0.93198854  1
  Te  Te126  1  0.27299225  0.25363000  0.08327903  1
  Te  Te127  1  0.25629328  0.24715082  0.41561520  1
  Te  Te128  1  0.26308011  0.27217043  0.74471345  1
  Te  Te129  1  0.24091311  0.59564797  0.09343950  1
  Te  Te130  1  0.21329987  0.62862392  0.36305841  1
  Te  Te131  1  0.26134467  0.57429497  0.76109420  1
  Te  Te132  1  0.23923208  0.93491358  0.12439245  1
  Te  Te133  1  0.22951639  0.92855671  0.40763923  1
  Te  Te134  1  0.26788586  0.90946103  0.75864929  1
  Te  Te135  1  0.57553889  0.22625983  0.04418153  1
  Te  Te136  1  0.57587096  0.24029349  0.42076975  1
  Te  Te137  1  0.57465756  0.26651040  0.76666933  1
  Te  Te138  1  0.57333473  0.59431375  0.07245813  1
  Te  Te139  1  0.57461778  0.59629156  0.39970904  1
  Te  Te140  1  0.59001857  0.55523798  0.77391970  1
  Te  Te141  1  0.58225417  0.91669321  0.09393221  1
  Te  Te142  1  0.57136642  0.91009072  0.42082591  1
  Te  Te143  1  0.55822041  0.95084841  0.78026810  1
  Te  Te144  1  0.91020509  0.24781498  0.08311368  1
  Te  Te145  1  0.93805929  0.24131175  0.41484708  1
  Te  Te146  1  0.92317568  0.26440568  0.74420367  1
  Te  Te147  1  0.92771644  0.58953876  0.08281180  1
  Te  Te148  1  0.93556505  0.58671400  0.39824172  1
  Te  Te149  1  0.91763159  0.60844604  0.74226927  1
  Te  Te150  1  0.92215867  0.90246330  0.08601722  1
  Te  Te151  1  0.91453140  0.92103274  0.42505908  1
  Te  Te152  1  0.93501439  0.90871773  0.75412410  1
  Te  Te153  1  0.23776245  0.06709438  0.20987873  1
  Te  Te154  1  0.25627183  0.07335706  0.58212026  1
  Te  Te155  1  0.22356903  0.10058044  0.91265001  1
  Te  Te156  1  0.23702306  0.44798611  0.24242416  1
  Te  Te157  1  0.25842320  0.41059947  0.58990316  1
  Te  Te158  1  0.25635908  0.41539715  0.92451744  1
  Te  Te159  1  0.25224986  0.71833562  0.24802936  1
  Te  Te160  1  0.24058015  0.72657541  0.56830361  1
  Te  Te161  1  0.23093717  0.78112249  0.93799747  1
  Te  Te162  1  0.58552317  0.10301526  0.23065330  1
  Te  Te163  1  0.59465541  0.08637993  0.58233090  1
  Te  Te164  1  0.56704751  0.09030178  0.96753852  1
  Te  Te165  1  0.59419151  0.42398296  0.22036218  1
  Te  Te166  1  0.56848202  0.40915485  0.59845537  1
  Te  Te167  1  0.60314259  0.39620139  0.94985449  1
  Te  Te168  1  0.57516679  0.76502267  0.23841212  1
  Te  Te169  1  0.59910074  0.75008810  0.60087192  1
  Te  Te170  1  0.57159350  0.74543184  0.91645552  1
  Te  Te171  1  0.93108409  0.07841246  0.24708723  1
  Te  Te172  1  0.92484050  0.08370331  0.57437075  1
  Te  Te173  1  0.93659230  0.06760319  0.91222542  1
  Te  Te174  1  0.90856738  0.41153217  0.24454141  1
  Te  Te175  1  0.90510511  0.42117368  0.56293896  1
  Te  Te176  1  0.91188666  0.43143914  0.92875810  1
  Te  Te177  1  0.94493075  0.74738462  0.25742794  1
  Te  Te178  1  0.91316977  0.76365235  0.59539529  1
  Te  Te179  1  0.91474923  0.72877405  0.92681116  1
