# generated using pymatgen
data_In2Te3
_symmetry_space_group_name_H-M   'P 1'
_cell_length_a   18.81477518
_cell_length_b   18.83520696
_cell_length_c   18.82239114
_cell_angle_alpha   90.05898906
_cell_angle_beta   89.96790221
_cell_angle_gamma   89.87217400
_symmetry_Int_Tables_number   1
_chemical_formula_structural   In2Te3
_chemical_formula_sum   'In72 Te108'
_cell_volume   6670.26125248
_cell_formula_units_Z   36
loop_
 _symmetry_equiv_pos_site_id
 _symmetry_equiv_pos_as_xyz
  1  'x, y, z'
loop_
 _atom_site_type_symbol
 _atom_site_label
 _atom_site_symmetry_multiplicity
 _atom_site_fract_x
 _atom_site_fract_y
 _atom_site_fract_z
 _atom_site_occupancy
  In  In0  1  0.16119047  0.18757474  0.34163319  1
  In  In1  1  0.15086067  0.46911261  0.00885185  1
  In  In2  1  0.36249333  0.00547612  0.34228227  1
  In  In3  1  0.32542000  0.33288265  0.32783036  1
  In  In4  1  -0.01174889  0.66821123  -0.00063835  1
  In  In5  1  -0.01323019  0.68608293  0.68185547  1
  In  In6  1  0.15778122  0.85385395  -0.01449116  1
  In  In7  1  0.66759667  0.33510261  0.31530398  1
  In  In8  1  -0.01387348  0.02297153  0.30867918  1
  In  In9  1  0.00514485  0.83002185  0.49559820  1
  In  In10  1  0.18039486  0.83291339  0.31480258  1
  In  In11  1  0.82709312  0.82144010  0.33044938  1
  In  In12  1  0.83678145  0.33213280  0.15414892  1
  In  In13  1  0.15027214  0.66474649  0.17526294  1
  In  In14  1  0.36783011  0.18378057  0.83547878  1
  In  In15  1  0.67219746  0.32249876  0.68648396  1
  In  In16  1  0.34898768  0.48320187  0.17348035  1
  In  In17  1  -0.01441005  0.16157744  0.83403265  1
  In  In18  1  0.84098625  0.32151875  0.49508229  1
  In  In19  1  0.50443484  0.66268301  0.50270043  1
  In  In20  1  0.52013102  0.82364908  0.34064453  1
  In  In21  1  0.53415522  0.50995248  0.02895996  1
  In  In22  1  0.67903513  0.67853669  0.66838623  1
  In  In23  1  0.82704131  0.15501844  0.67291810  1
  In  In24  1  0.48750870  0.32766389  0.49148577  1
  In  In25  1  0.49956483  0.84630423  0.67469813  1
  In  In26  1  0.33494086  0.67880968  0.63825845  1
  In  In27  1  0.33273044  0.35119297  0.67567671  1
  In  In28  1  0.16611189  0.00910739  0.80326751  1
  In  In29  1  -0.04368798  0.02041757  -0.01105904  1
  In  In30  1  0.80533704  0.65435590  0.19752200  1
  In  In31  1  0.17522901  -0.01221199  0.15416893  1
  In  In32  1  0.35220491  0.65714257  0.01707653  1
  In  In33  1  0.70350657  0.03642619  0.00792879  1
  In  In34  1  -0.01596425  0.16884634  0.16366755  1
  In  In35  1  0.00214996  0.49308085  0.48059683  1
  In  In36  1  0.16571672  -0.00391641  0.52785266  1
  In  In37  1  0.50606080  -0.01272146  0.17731146  1
  In  In38  1  0.01237961  0.32774881  0.66288755  1
  In  In39  1  0.66106041  -0.00649977  0.67215552  1
  In  In40  1  0.66365711  0.82136636  0.15707456  1
  In  In41  1  0.53324071  0.18984407  0.01931283  1
  In  In42  1  -0.02498625  0.49363641  0.85582458  1
  In  In43  1  0.02187786  0.49869586  0.17797858  1
  In  In44  1  0.66342114  0.00742699  0.33149401  1
  In  In45  1  0.82373157  0.68095326  0.84075328  1
  In  In46  1  0.33524275  0.00983457  0.66482585  1
  In  In47  1  -0.04095832  -0.00991418  0.70801701  1
  In  In48  1  0.67339910  0.47548895  0.83828167  1
  In  In49  1  -0.00955876  0.34130871  0.32668558  1
  In  In50  1  0.15745435  0.33458583  0.82609835  1
  In  In51  1  0.53262187  0.16731034  0.67268219  1
  In  In52  1  0.00289157  0.18996870  0.50386251  1
  In  In53  1  0.32774142  -0.01692576  0.00386425  1
  In  In54  1  0.00355701  0.66605871  0.32949488  1
  In  In55  1  0.81210626  0.49389695  0.00576008  1
  In  In56  1  0.16970914  0.50170475  0.62256610  1
  In  In57  1  0.49494442  0.82211937  -0.00663055  1
  In  In58  1  0.34048687  0.47458237  0.82043229  1
  In  In59  1  0.18520279  0.18187967  0.00478174  1
  In  In60  1  0.52626264  0.66688281  0.84786068  1
  In  In61  1  0.83949015  0.84300623  -0.00454954  1
  In  In62  1  0.80432332  0.00367490  0.50031579  1
  In  In63  1  0.32953560  0.17670187  0.16583503  1
  In  In64  1  0.34050875  0.84545249  0.84506184  1
  In  In65  1  0.66461942  0.48936864  0.50418690  1
  In  In66  1  0.52291957  0.50456440  0.30108989  1
  In  In67  1  0.50685861  0.16727616  0.33508480  1
  In  In68  1  0.46139295  0.49551692  0.67720674  1
  In  In69  1  0.15979625  0.67758743  0.80634204  1
  In  In70  1  0.33863236  0.81801057  0.51474298  1
  In  In71  1  0.82673417  0.67624703  0.49005702  1
  Te  Te72  1  0.08455293  0.08205259  0.07527997  1
  Te  Te73  1  0.08306364  0.07642015  0.41539529  1
  Te  Te74  1  0.07268909  0.10000643  0.72580966  1
  Te  Te75  1  0.04423354  0.39474765  0.07534875  1
  Te  Te76  1  0.09119887  0.38794509  0.42451259  1
  Te  Te77  1  0.07759188  0.43996985  0.74812276  1
  Te  Te78  1  0.07785346  0.76127671  0.07989753  1
  Te  Te79  1  0.10215343  0.74496333  0.41442039  1
  Te  Te80  1  0.06996601  0.78303662  0.75764800  1
  Te  Te81  1  0.41693011  0.07674534  0.08546301  1
  Te  Te82  1  0.42032876  0.10146134  0.43697805  1
  Te  Te83  1  0.43681291  0.07482932  0.75744764  1
  Te  Te84  1  0.42197679  0.41829215  0.06267043  1
  Te  Te85  1  0.42560859  0.42643241  0.39658679  1
  Te  Te86  1  0.45121870  0.38105070  0.77555950  1
  Te  Te87  1  0.44108107  0.73791501  0.10101354  1
  Te  Te88  1  0.40799640  0.73540983  0.40939896  1
  Te  Te89  1  0.41513991  0.73597556  0.75727415  1
  Te  Te90  1  0.77026734  0.12183484  0.11087558  1
  Te  Te91  1  0.75638155  0.09987949  0.40192876  1
  Te  Te92  1  0.73006433  0.09206722  0.76415249  1
  Te  Te93  1  0.72197579  0.39270044  0.07288917  1
  Te  Te94  1  0.75873321  0.41705853  0.40886996  1
  Te  Te95  1  0.76907441  0.41761553  0.74318281  1
  Te  Te96  1  0.76094268  0.73701953  0.07626169  1
  Te  Te97  1  0.72705619  0.74820791  0.40824660  1
  Te  Te98  1  0.75674923  0.77829734  0.74907108  1
  Te  Te99  1  0.08362331  0.26018369  0.23328921  1
  Te  Te100  1  0.10957832  0.26900321  0.56810272  1
  Te  Te101  1  0.07418364  0.25051518  0.92154547  1
  Te  Te102  1  0.10789717  0.56340249  0.28522088  1
  Te  Te103  1  0.05767256  0.59959114  0.57679120  1
  Te  Te104  1  0.08951080  0.58607805  0.91543641  1
  Te  Te105  1  0.07314335  0.91551787  0.24184631  1
  Te  Te106  1  0.05903538  0.92121994  0.60500718  1
  Te  Te107  1  0.07058488  0.94954563  0.90622544  1
  Te  Te108  1  0.43105007  0.26029102  0.24093302  1
  Te  Te109  1  0.42215245  0.24700467  0.60185388  1
  Te  Te110  1  0.41318700  0.25294923  0.95732611  1
  Te  Te111  1  0.40868093  0.58862580  0.25743680  1
  Te  Te112  1  0.40027770  0.56237296  0.55337110  1
  Te  Te113  1  0.42357620  0.57194988  0.91024511  1
  Te  Te114  1  0.41129564  0.89598360  0.25031398  1
  Te  Te115  1  0.42570505  0.92915654  0.57042265  1
  Te  Te116  1  0.44047156  0.93909705  0.91000057  1
  Te  Te117  1  0.75959447  0.23960622  0.24368875  1
  Te  Te118  1  0.74255796  0.24015472  0.57775394  1
  Te  Te119  1  0.80198511  0.24607533  0.92786571  1
  Te  Te120  1  0.70887475  0.54588673  0.22204742  1
  Te  Te121  1  0.75882882  0.57730354  0.58605703  1
  Te  Te122  1  0.72990004  0.59104545  0.92143199  1
  Te  Te123  1  0.74801071  0.91597672  0.24069029  1
  Te  Te124  1  0.75158020  0.90385207  0.59171711  1
  Te  Te125  1  0.75339623  0.93023267  0.90738997  1
  Te  Te126  1  0.24156783  0.27716978  0.10212322  1
  Te  Te127  1  0.28309902  0.22099229  0.41724131  1
  Te  Te128  1  0.25236233  0.24207086  0.75189036  1
  Te  Te129  1  0.23617498  0.57637933  0.07823162  1
  Te  Te130  1  0.23719413  0.55068218  0.49774062  1
  Te  Te131  1  0.25653027  0.57732901  0.74085960  1
  Te  Te132  1  0.26508833  0.87950485  0.09446148  1
  Te  Te133  1  0.25084717  0.92367338  0.42051708  1
  Te  Te134  1  0.25123700  0.90158049  0.73582885  1
  Te  Te135  1  0.61636106  0.28015626  0.10424986  1
  Te  Te136  1  0.59959543  0.24991529  0.42432602  1
  Te  Te137  1  0.60881949  0.23113230  0.78550313  1
  Te  Te138  1  0.60580880  0.60015308  0.12495440  1
  Te  Te139  1  0.59866348  0.58804799  0.40975972  1
  Te  Te140  1  0.58201567  0.57797962  0.73468891  1
  Te  Te141  1  0.59779078  0.93120703  0.06936679  1
  Te  Te142  1  0.57743842  0.93027393  0.42327812  1
  Te  Te143  1  0.58671881  0.91004972  0.77263379  1
  Te  Te144  1  0.89169503  0.22618273  0.04973638  1
  Te  Te145  1  0.90921861  0.22975304  0.39164467  1
  Te  Te146  1  0.90689365  0.26206724  0.74898781  1
  Te  Te147  1  0.91255543  0.57582766  0.09218047  1
  Te  Te148  1  0.90123484  0.57915501  0.39924816  1
  Te  Te149  1  0.90161045  0.58122580  0.75464635  1
  Te  Te150  1  0.91879304  0.92253019  0.09173939  1
  Te  Te151  1  0.91788406  0.92172825  0.40828791  1
  Te  Te152  1  0.85180933  0.92031281  0.78277373  1
  Te  Te153  1  0.24777534  0.07822102  0.25402631  1
  Te  Te154  1  0.24844609  0.10075478  0.58795316  1
  Te  Te155  1  0.25433730  0.07947329  0.90928520  1
  Te  Te156  1  0.23627968  0.41469480  0.24183458  1
  Te  Te157  1  0.26229971  0.40323718  0.55094582  1
  Te  Te158  1  0.25611073  0.39818371  0.92299778  1
  Te  Te159  1  0.26022913  0.72577700  0.25241416  1
  Te  Te160  1  0.22367459  0.76055776  0.58776861  1
  Te  Te161  1  0.25361328  0.74340660  0.92015969  1
  Te  Te162  1  0.59286977  0.09911462  0.22893308  1
  Te  Te163  1  0.59437953  0.08040714  0.57162943  1
  Te  Te164  1  0.60826327  0.11071018  0.91829280  1
  Te  Te165  1  0.56790983  0.38818852  0.21411851  1
  Te  Te166  1  0.57190040  0.41053915  0.59541741  1
  Te  Te167  1  0.58655647  0.40582021  0.93372370  1
  Te  Te168  1  0.58226050  0.72882814  0.24084774  1
  Te  Te169  1  0.58767990  0.76362558  0.57926780  1
  Te  Te170  1  0.60910005  0.76231991  0.92097962  1
  Te  Te171  1  0.87820545  0.07422258  0.21660455  1
  Te  Te172  1  0.92290929  0.08111675  0.57590375  1
  Te  Te173  1  0.86062612  0.10569363  0.90275162  1
  Te  Te174  1  0.90101305  0.43497621  0.24829838  1
  Te  Te175  1  0.91689896  0.41820485  0.58383568  1
  Te  Te176  1  0.88310969  0.39300295  0.91684028  1
  Te  Te177  1  0.92067179  0.74934134  0.23372667  1
  Te  Te178  1  0.89884476  0.76944147  0.58668036  1
  Te  Te179  1  0.93542835  0.76842987  0.89992281  1
