# generated using pymatgen
data_In2Te3
_symmetry_space_group_name_H-M   'P 1'
_cell_length_a   18.83663787
_cell_length_b   18.82290700
_cell_length_c   18.83522928
_cell_angle_alpha   90.09516252
_cell_angle_beta   89.96133916
_cell_angle_gamma   90.05913154
_symmetry_Int_Tables_number   1
_chemical_formula_structural   In2Te3
_chemical_formula_sum   'In72 Te108'
_cell_volume   6678.20993897
_cell_formula_units_Z   36
loop_
 _symmetry_equiv_pos_site_id
 _symmetry_equiv_pos_as_xyz
  1  'x, y, z'
loop_
 _atom_site_type_symbol
 _atom_site_label
 _atom_site_symmetry_multiplicity
 _atom_site_fract_x
 _atom_site_fract_y
 _atom_site_fract_z
 _atom_site_occupancy
  In  In0  1  0.48423254  0.01407017  0.81710294  1
  In  In1  1  0.35885006  0.35111187  0.35426992  1
  In  In2  1  0.83610253  0.49450496  -0.00846389  1
  In  In3  1  0.79189529  0.84889251  0.31602351  1
  In  In4  1  0.00005404  0.64475760  -0.03955066  1
  In  In5  1  0.34076269  0.18488023  0.48541213  1
  In  In6  1  0.35987437  0.85624640  0.15987321  1
  In  In7  1  0.34179191  0.66216011  0.65871531  1
  In  In8  1  -0.01516823  0.33458467  -0.00357287  1
  In  In9  1  0.36297832  0.64704321  0.32758625  1
  In  In10  1  0.17592555  0.29271786  0.17251399  1
  In  In11  1  0.83534361  0.16799868  0.34523091  1
  In  In12  1  0.53725961  0.85480391  0.34101804  1
  In  In13  1  0.84057100  0.00015817  0.84429645  1
  In  In14  1  0.00969480  -0.02808020  0.01122843  1
  In  In15  1  0.82155426  0.33391119  0.16494086  1
  In  In16  1  -0.02325287  0.82536584  0.49720475  1
  In  In17  1  0.66441947  0.65954826  0.64515993  1
  In  In18  1  0.81261485  0.00350326  0.51075305  1
  In  In19  1  0.33096615  0.01944641  0.00567917  1
  In  In20  1  0.65939170  0.31495938  -0.00956992  1
  In  In21  1  0.36282683  0.48239136  0.16898899  1
  In  In22  1  0.18901390  0.49270231  -0.01108617  1
  In  In23  1  0.35097834  0.68511769  -0.01048858  1
  In  In24  1  0.66001398  0.16987809  0.18455540  1
  In  In25  1  0.67724610  0.32583246  0.64697594  1
  In  In26  1  0.16689239  0.83903178  0.35882077  1
  In  In27  1  0.50520117  0.01044724  0.16904333  1
  In  In28  1  0.82008481  0.63467426  0.51769860  1
  In  In29  1  0.16657389  0.16155831  -0.01558146  1
  In  In30  1  0.15006022  0.83895619  -0.00916635  1
  In  In31  1  0.17572468  0.67652415  0.17696514  1
  In  In32  1  -0.01539306  0.00680867  0.66186868  1
  In  In33  1  0.50700142  0.19692819  0.35312872  1
  In  In34  1  0.84176558  0.19299324  0.63562222  1
  In  In35  1  0.17542591  0.83327637  0.69078001  1
  In  In36  1  -0.04438599  0.64449990  0.35088699  1
  In  In37  1  0.00100161  0.85923009  0.15872466  1
  In  In38  1  0.14644423  0.63916603  0.53330194  1
  In  In39  1  0.32602701  0.83915620  0.82428710  1
  In  In40  1  0.48253635  0.30619494  0.85421139  1
  In  In41  1  0.32642545  0.33201415  0.65589557  1
  In  In42  1  0.17871014  0.49221553  0.35767765  1
  In  In43  1  0.65854969  0.01524404  0.64229757  1
  In  In44  1  0.01806328  0.80628294  0.85749302  1
  In  In45  1  0.15959190  0.02191937  0.50364677  1
  In  In46  1  0.34750562  0.85534259  0.49243645  1
  In  In47  1  0.00187104  0.49710433  0.16973230  1
  In  In48  1  0.64159496  0.65489898  0.36588490  1
  In  In49  1  0.83678720  0.83816314  0.63306249  1
  In  In50  1  0.50550116  0.35040157  0.18491831  1
  In  In51  1  0.16272549  0.63073752  0.80445476  1
  In  In52  1  0.86179370  0.64843018  0.82223565  1
  In  In53  1  0.00675980  0.18102149  0.81165371  1
  In  In54  1  0.66158574  0.48909835  0.81710945  1
  In  In55  1  0.67258207  0.14992375  0.84801932  1
  In  In56  1  0.65125553  0.63522540  0.03773656  1
  In  In57  1  0.81371358  0.66798751  0.19502629  1
  In  In58  1  0.51851774  0.83121958  0.01568462  1
  In  In59  1  0.50224957  0.16584199  0.65142235  1
  In  In60  1  0.16730320  0.34116905  0.52367548  1
  In  In61  1  0.66376157  0.81656254  0.83591814  1
  In  In62  1  0.34399880  0.50675783  0.83772335  1
  In  In63  1  0.20335838  0.05140257  0.18651196  1
  In  In64  1  0.50697636  0.50650504  0.65016402  1
  In  In65  1  0.17211490  0.19389400  0.66103618  1
  In  In66  1  0.63713043  0.00664255  0.00504158  1
  In  In67  1  0.83002312  0.18751759  -0.00238674  1
  In  In68  1  0.79171919  0.49364072  0.36616040  1
  In  In69  1  -0.00401933  0.31792402  0.33134685  1
  In  In70  1  0.00026979  0.02937311  0.33206012  1
  In  In71  1  0.50017603  0.81389924  0.65467854  1
  Te  Te72  1  0.09050145  0.07903835  0.08883692  1
  Te  Te73  1  0.08087129  0.11460713  0.42123653  1
  Te  Te74  1  0.09282508  0.08138605  0.73533893  1
  Te  Te75  1  0.09408559  0.41079866  0.08618006  1
  Te  Te76  1  0.07020680  0.41496378  0.42588555  1
  Te  Te77  1  0.09636128  0.39098961  0.67263849  1
  Te  Te78  1  0.07455414  0.73610197  0.07971358  1
  Te  Te79  1  0.07652488  0.73140805  0.42268298  1
  Te  Te80  1  0.07077934  0.73104847  0.73621585  1
  Te  Te81  1  0.40801395  0.09845802  0.10228372  1
  Te  Te82  1  0.43654316  0.08691581  0.42620007  1
  Te  Te83  1  0.40638626  0.12195216  0.75550329  1
  Te  Te84  1  0.41675673  0.38772901  0.06692401  1
  Te  Te85  1  0.43418691  0.46719390  0.40371887  1
  Te  Te86  1  0.43638830  0.40754296  0.74944676  1
  Te  Te87  1  0.43579044  0.73797016  0.10555319  1
  Te  Te88  1  0.42943973  0.75860507  0.40821537  1
  Te  Te89  1  0.42276167  0.73872866  0.76413634  1
  Te  Te90  1  0.74005394  0.09437207  0.07758607  1
  Te  Te91  1  0.73673446  0.06941771  0.40352329  1
  Te  Te92  1  0.76435967  0.08048826  0.73849750  1
  Te  Te93  1  0.73388544  0.41930974  0.07566082  1
  Te  Te94  1  0.72373275  0.38732752  0.44212490  1
  Te  Te95  1  0.75906362  0.43032413  0.72115670  1
  Te  Te96  1  0.74643775  0.73761451  0.08474792  1
  Te  Te97  1  0.76463204  0.73212558  0.41387896  1
  Te  Te98  1  0.75977112  0.74714056  0.73895119  1
  Te  Te99  1  0.06809721  0.22263172  0.24426444  1
  Te  Te100  1  0.05520020  0.26045851  0.59329308  1
  Te  Te101  1  0.08884134  0.26894284  0.90585780  1
  Te  Te102  1  0.08572733  0.58576164  0.26268907  1
  Te  Te103  1  0.07259055  0.53554630  0.61255932  1
  Te  Te104  1  0.07823878  0.53482318  0.88725603  1
  Te  Te105  1  0.09823853  0.92914241  0.25525157  1
  Te  Te106  1  0.07819563  0.90691562  0.57953579  1
  Te  Te107  1  0.09429435  0.93421480  0.88715355  1
  Te  Te108  1  0.40521143  0.24875281  0.24900485  1
  Te  Te109  1  0.43610184  0.27286591  0.56538800  1
  Te  Te110  1  0.38569130  0.26321194  0.95740612  1
  Te  Te111  1  0.46332799  0.57677913  0.23518596  1
  Te  Te112  1  0.43099124  0.59686225  0.55958522  1
  Te  Te113  1  0.43119687  0.57619798  0.93357234  1
  Te  Te114  1  0.41892064  0.93526839  0.27093465  1
  Te  Te115  1  0.41876270  0.92429484  0.60145818  1
  Te  Te116  1  0.42209912  0.90902931  0.92790096  1
  Te  Te117  1  0.73449432  0.27005216  0.26958679  1
  Te  Te118  1  0.72396885  0.22191565  0.55004812  1
  Te  Te119  1  0.76333001  0.26854729  0.88862466  1
  Te  Te120  1  0.72298738  0.56008871  0.24861434  1
  Te  Te121  1  0.73981126  0.53809562  0.59911417  1
  Te  Te122  1  0.74731713  0.58894349  0.90746874  1
  Te  Te123  1  0.71840542  0.93591962  0.22649511  1
  Te  Te124  1  0.71170339  0.88788029  0.56007714  1
  Te  Te125  1  0.73576914  0.92094500  0.92234672  1
  Te  Te126  1  0.26569220  0.24713716  0.06241901  1
  Te  Te127  1  0.23912494  0.26088940  0.40333188  1
  Te  Te128  1  0.24837348  0.26898211  0.76489849  1
  Te  Te129  1  0.26239823  0.58533519  0.08987826  1
  Te  Te130  1  0.25520170  0.60237672  0.42726294  1
  Te  Te131  1  0.25677553  0.54970206  0.71810885  1
  Te  Te132  1  0.23834558  0.91604817  0.09088712  1
  Te  Te133  1  0.25772067  0.94979713  0.41026533  1
  Te  Te134  1  0.26981495  0.93828470  0.73247287  1
  Te  Te135  1  0.56964125  0.24343195  0.08821410  1
  Te  Te136  1  0.60715432  0.28471796  0.41716455  1
  Te  Te137  1  0.59459458  0.24603871  0.75571636  1
  Te  Te138  1  0.55941939  0.54609538  0.11287237  1
  Te  Te139  1  0.56696478  0.54532803  0.42994196  1
  Te  Te140  1  0.57550528  0.59705834  0.75287941  1
  Te  Te141  1  0.60928976  0.89894776  0.11898545  1
  Te  Te142  1  0.62041366  0.92875281  0.43769702  1
  Te  Te143  1  0.59142163  0.92446513  0.75234825  1
  Te  Te144  1  0.92638247  0.24254636  0.10285823  1
  Te  Te145  1  0.89476158  0.27504736  0.42965684  1
  Te  Te146  1  0.90672308  0.26621721  0.74559520  1
  Te  Te147  1  0.91136895  0.58847280  0.08874208  1
  Te  Te148  1  0.91776328  0.53808137  0.45007543  1
  Te  Te149  1  0.92168116  0.55385843  0.72710706  1
  Te  Te150  1  0.89204596  0.92647532  0.08657412  1
  Te  Te151  1  0.90455991  0.92280125  0.40657033  1
  Te  Te152  1  0.91752530  0.90247379  0.75260797  1
  Te  Te153  1  0.26914470  0.14904037  0.27225934  1
  Te  Te154  1  0.26406799  0.09793757  0.58454791  1
  Te  Te155  1  0.24837617  0.07296324  0.89777976  1
  Te  Te156  1  0.24585210  0.41476429  0.24414644  1
  Te  Te157  1  0.27793754  0.43280366  0.56039572  1
  Te  Te158  1  0.25631572  0.39994130  0.89457737  1
  Te  Te159  1  0.26417181  0.76352914  0.26535358  1
  Te  Te160  1  0.24818770  0.75881504  0.57733100  1
  Te  Te161  1  0.22996981  0.73127714  0.90623286  1
  Te  Te162  1  0.58379203  0.08095367  0.27921268  1
  Te  Te163  1  0.56235378  0.07686747  0.54634452  1
  Te  Te164  1  0.54991318  0.10176883  0.92548864  1
  Te  Te165  1  0.58867574  0.45751864  0.24707810  1
  Te  Te166  1  0.58704491  0.41325816  0.56299352  1
  Te  Te167  1  0.57300492  0.41619035  0.91724911  1
  Te  Te168  1  0.59494142  0.74551691  0.25989142  1
  Te  Te169  1  0.57621829  0.73622965  0.55505482  1
  Te  Te170  1  0.58263291  0.72670027  0.92667481  1
  Te  Te171  1  0.89973851  0.08393450  0.24083406  1
  Te  Te172  1  0.92769647  0.09489703  0.55425015  1
  Te  Te173  1  0.92984801  0.09466122  0.92514546  1
  Te  Te174  1  0.89848959  0.43023438  0.25863336  1
  Te  Te175  1  0.95044449  0.43122450  0.63608737  1
  Te  Te176  1  0.92092722  0.42159193  0.89583968  1
  Te  Te177  1  0.92591758  0.76090554  0.25576803  1
  Te  Te178  1  0.92479439  0.71941270  0.59268657  1
  Te  Te179  1  0.89822055  0.75707531  0.93179523  1
