# generated using pymatgen
data_In2Te3
_symmetry_space_group_name_H-M   'P 1'
_cell_length_a   18.78857046
_cell_length_b   18.79055383
_cell_length_c   18.79263070
_cell_angle_alpha   90.00310009
_cell_angle_beta   89.94534378
_cell_angle_gamma   89.98113470
_symmetry_Int_Tables_number   1
_chemical_formula_structural   In2Te3
_chemical_formula_sum   'In72 Te108'
_cell_volume   6634.69061616
_cell_formula_units_Z   36
loop_
 _symmetry_equiv_pos_site_id
 _symmetry_equiv_pos_as_xyz
  1  'x, y, z'
loop_
 _atom_site_type_symbol
 _atom_site_label
 _atom_site_symmetry_multiplicity
 _atom_site_fract_x
 _atom_site_fract_y
 _atom_site_fract_z
 _atom_site_occupancy
  In  In0  1  0.81781883  0.31629490  0.15286627  1
  In  In1  1  0.16309269  0.84942360  -0.01107172  1
  In  In2  1  0.50265048  0.01339950  0.83887372  1
  In  In3  1  0.82763175  0.66265934  0.83194014  1
  In  In4  1  0.15294988  0.50756240  0.67555776  1
  In  In5  1  0.50338032  0.50971959  0.66119117  1
  In  In6  1  0.83068913  0.16654439  0.68159460  1
  In  In7  1  0.50311164  0.84756189  0.66456075  1
  In  In8  1  -0.00957661  0.16313011  0.83728541  1
  In  In9  1  0.83471475  0.50005950  -0.01611850  1
  In  In10  1  -0.01645655  0.33457411  0.34540259  1
  In  In11  1  0.00466256  0.68853256  0.32252162  1
  In  In12  1  0.67138756  0.32650474  0.33197093  1
  In  In13  1  0.15811035  0.00455280  0.80977997  1
  In  In14  1  0.83837911  0.64389441  0.50319792  1
  In  In15  1  0.32952177  0.66499376  0.01129340  1
  In  In16  1  0.49344167  0.67598198  0.49101127  1
  In  In17  1  0.34799772  0.17113735  0.17033454  1
  In  In18  1  0.50375929  0.34446397  0.17429916  1
  In  In19  1  0.51046293  0.32916468  0.83575802  1
  In  In20  1  -0.00489999  0.48765704  0.82316214  1
  In  In21  1  0.80294854  0.52373028  0.31793758  1
  In  In22  1  0.31386175  0.50979037  0.83287655  1
  In  In23  1  0.47889430  0.83762161  0.33916310  1
  In  In24  1  0.84055488  0.00454946  0.15532844  1
  In  In25  1  0.33508458  0.85201129  0.81841533  1
  In  In26  1  0.66752059  0.66183802  0.31506947  1
  In  In27  1  0.00406948  0.50139656  0.52049047  1
  In  In28  1  -0.00616601  0.16714948  0.16293860  1
  In  In29  1  0.33262639  0.30687462  0.66252994  1
  In  In30  1  -0.00301658  0.69156909  -0.02004770  1
  In  In31  1  0.03116548  0.00409949  0.33550230  1
  In  In32  1  0.81413332  0.47059035  0.69261819  1
  In  In33  1  0.66615466  0.48181167  0.51851395  1
  In  In34  1  0.31141223  -0.00962765  0.35945382  1
  In  In35  1  0.52318123  0.52004161  0.03182908  1
  In  In36  1  0.49419330  0.80477036  0.00479341  1
  In  In37  1  0.85660435  0.30738371  0.50504437  1
  In  In38  1  0.31741102  0.14875550  0.80773290  1
  In  In39  1  0.31960022  0.33368882  0.36848490  1
  In  In40  1  0.67663971  0.82457102  0.13596443  1
  In  In41  1  0.32382086  0.33721996  -0.02623528  1
  In  In42  1  0.85044266  0.83339576  0.69154923  1
  In  In43  1  0.64819372  0.82177152  0.50543222  1
  In  In44  1  0.66481460  0.33162445  -0.01578257  1
  In  In45  1  0.69197741  -0.01010681  -0.02205828  1
  In  In46  1  0.49279212  -0.01160129  0.19145463  1
  In  In47  1  0.48027524  0.49501634  0.31926476  1
  In  In48  1  0.82729804  0.17262609  -0.01383817  1
  In  In49  1  0.67505154  0.00135369  0.69723062  1
  In  In50  1  0.15517323  0.17010887  0.36291214  1
  In  In51  1  0.51577757  0.67218538  0.82962363  1
  In  In52  1  0.00612795  0.84092539  0.17234930  1
  In  In53  1  0.50248070  0.17713420  0.68382634  1
  In  In54  1  0.84813325  0.00652817  0.51877419  1
  In  In55  1  0.66352447  0.16837109  0.50077144  1
  In  In56  1  0.15480797  0.14843112  -0.01524871  1
  In  In57  1  0.00428698  0.49556229  0.15472962  1
  In  In58  1  0.14897872  0.29939484  0.53203871  1
  In  In59  1  0.17259922  -0.00472601  0.15290813  1
  In  In60  1  0.33089810  0.50147380  0.48829140  1
  In  In61  1  0.65760266  0.02408008  0.32643671  1
  In  In62  1  0.16261352  0.35959460  0.15381417  1
  In  In63  1  0.16522281  0.52685508  0.34278923  1
  In  In64  1  -0.01213582  0.82417922  0.81367552  1
  In  In65  1  0.33178249  0.53725697  0.17009155  1
  In  In66  1  0.14421383  0.66645176  0.82016185  1
  In  In67  1  0.85326151  0.84019315  0.32580126  1
  In  In68  1  0.51034297  0.15121759  0.01307959  1
  In  In69  1  0.06243680  0.84329121  0.52106971  1
  In  In70  1  0.46114733  0.00813302  0.51152719  1
  In  In71  1  0.02958635  0.67741130  0.65381980  1
  Te  Te72  1  0.06162372  0.06337084  0.07375401  1
  Te  Te73  1  0.11154446  0.05660248  0.45191939  1
  Te  Te74  1  0.11061897  0.12975168  0.73234939  1
  Te  Te75  1  0.06549063  0.40616121  0.05379553  1
  Te  Te76  1  0.09506008  0.40608925  0.42229354  1
  Te  Te77  1  0.08115225  0.39818902  0.74100230  1
  Te  Te78  1  0.09351026  0.75071712  0.08282699  1
  Te  Te79  1  0.11906368  0.74964991  0.39851687  1
  Te  Te80  1  0.11006200  0.78345712  0.72907660  1
  Te  Te81  1  0.40690547  0.06378386  0.08151267  1
  Te  Te82  1  0.41762156  0.08590981  0.39540102  1
  Te  Te83  1  0.41234157  0.06084242  0.72565460  1
  Te  Te84  1  0.41071295  0.41595009  0.07612492  1
  Te  Te85  1  0.43781518  0.40669022  0.43621683  1
  Te  Te86  1  0.40721800  0.41135320  0.75498637  1
  Te  Te87  1  0.40617252  0.74659631  0.10859714  1
  Te  Te88  1  0.38904312  0.76871400  0.43659676  1
  Te  Te89  1  0.41401133  0.74684801  0.74189272  1
  Te  Te90  1  0.74106044  0.09362844  0.08602008  1
  Te  Te91  1  0.76341790  0.08649061  0.41845907  1
  Te  Te92  1  0.77900658  0.06523866  0.78003026  1
  Te  Te93  1  0.73926080  0.42364162  0.08032776  1
  Te  Te94  1  0.77397201  0.41958752  0.42721905  1
  Te  Te95  1  0.73401491  0.38760655  0.78337609  1
  Te  Te96  1  0.72538484  0.70700107  0.05603329  1
  Te  Te97  1  0.75656752  0.74875597  0.41641566  1
  Te  Te98  1  0.74301361  0.75128823  0.74787632  1
  Te  Te99  1  0.08900353  0.25660002  0.24695574  1
  Te  Te100  1  0.04608068  0.21778399  0.59768334  1
  Te  Te101  1  0.08046886  0.25332710  0.91533758  1
  Te  Te102  1  0.09579905  0.59559491  0.22619036  1
  Te  Te103  1  0.11544611  0.59823442  0.55464268  1
  Te  Te104  1  0.07775145  0.57524617  0.91955647  1
  Te  Te105  1  0.11535097  0.90143225  0.26162352  1
  Te  Te106  1  0.09014895  0.97468847  0.59181733  1
  Te  Te107  1  0.06525381  0.92580354  0.90473140  1
  Te  Te108  1  0.41752579  0.26239357  0.26970885  1
  Te  Te109  1  0.42150343  0.23078842  0.57331692  1
  Te  Te110  1  0.41486168  0.22769594  0.91274192  1
  Te  Te111  1  0.43029098  0.61480736  0.24874841  1
  Te  Te112  1  0.40152736  0.59539327  0.58540725  1
  Te  Te113  1  0.42178460  0.57771718  0.92141918  1
  Te  Te114  1  0.37542025  0.90535581  0.24941940  1
  Te  Te115  1  0.39491917  0.88620357  0.56663416  1
  Te  Te116  1  0.42136521  0.91669029  0.92454711  1
  Te  Te117  1  0.76540908  0.23555462  0.26367080  1
  Te  Te118  1  0.74281272  0.25922684  0.59375987  1
  Te  Te119  1  0.76336110  0.27070365  0.88624170  1
  Te  Te120  1  0.74164849  0.59438989  0.20186216  1
  Te  Te121  1  0.74720832  0.58046402  0.60495953  1
  Te  Te122  1  0.73265264  0.58988832  0.92119597  1
  Te  Te123  1  0.74086453  0.91416874  0.25240415  1
  Te  Te124  1  0.74763030  0.90894211  0.58481144  1
  Te  Te125  1  0.76994167  0.89055971  0.90504006  1
  Te  Te126  1  0.24709391  0.24460806  0.08034186  1
  Te  Te127  1  0.26185871  0.22382654  0.45892390  1
  Te  Te128  1  0.23311923  0.26287985  0.76284210  1
  Te  Te129  1  0.23217549  0.56847697  0.06733121  1
  Te  Te130  1  0.28676636  0.60632854  0.38547358  1
  Te  Te131  1  0.25436810  0.60738026  0.73144565  1
  Te  Te132  1  0.26244518  0.89962335  0.08487542  1
  Te  Te133  1  0.24919880  0.90632323  0.46417227  1
  Te  Te134  1  0.25794043  0.93302433  0.71928730  1
  Te  Te135  1  0.59367364  0.25077311  0.09352123  1
  Te  Te136  1  0.57694315  0.25429500  0.41805713  1
  Te  Te137  1  0.60840651  0.24772438  0.75763637  1
  Te  Te138  1  0.59863717  0.62619565  0.09943991  1
  Te  Te139  1  0.59058723  0.57842300  0.42065089  1
  Te  Te140  1  0.59658120  0.57193572  0.75664009  1
  Te  Te141  1  0.58160789  0.92938168  0.07577226  1
  Te  Te142  1  0.57774452  0.92679830  0.41996768  1
  Te  Te143  1  0.58987493  0.90309855  0.77695314  1
  Te  Te144  1  0.92765425  0.26111096  0.06286533  1
  Te  Te145  1  0.94063278  0.21693667  0.42308739  1
  Te  Te146  1  0.91322350  0.26438503  0.75884111  1
  Te  Te147  1  0.92088379  0.59250383  0.07037234  1
  Te  Te148  1  0.93473415  0.57104417  0.40007134  1
  Te  Te149  1  0.92692125  0.59405096  0.73242885  1
  Te  Te150  1  0.90748377  0.89930867  0.07849030  1
  Te  Te151  1  0.93702693  0.91398686  0.42835033  1
  Te  Te152  1  0.93926126  0.94170941  0.73568910  1
  Te  Te153  1  0.23824179  0.09660659  0.25117346  1
  Te  Te154  1  0.20918170  0.06872897  0.63266645  1
  Te  Te155  1  0.25801858  0.05976596  0.91716379  1
  Te  Te156  1  0.26082399  0.42215920  0.25703776  1
  Te  Te157  1  0.24680685  0.41614534  0.58347630  1
  Te  Te158  1  0.22268844  0.41848078  0.90454179  1
  Te  Te159  1  0.21890362  0.70136421  0.28462926  1
  Te  Te160  1  0.19756061  0.78650987  0.55037096  1
  Te  Te161  1  0.25057472  0.74780580  0.90281932  1
  Te  Te162  1  0.56954470  0.10458959  0.24113269  1
  Te  Te163  1  0.58814399  0.06480822  0.58851453  1
  Te  Te164  1  0.60741850  0.09981481  0.90762875  1
  Te  Te165  1  0.60140973  0.43538725  0.24781474  1
  Te  Te166  1  0.57693784  0.39774819  0.59910970  1
  Te  Te167  1  0.58200475  0.43939150  0.91443374  1
  Te  Te168  1  0.58357497  0.77153851  0.24948212  1
  Te  Te169  1  0.58301583  0.72896811  0.60462306  1
  Te  Te170  1  0.60354615  0.75125092  0.92092397  1
  Te  Te171  1  0.91840240  0.07966601  0.26327492  1
  Te  Te172  1  0.93782816  0.10214735  0.59255821  1
  Te  Te173  1  0.90640221  0.06867024  0.91644094  1
  Te  Te174  1  0.90484674  0.41793696  0.24377320  1
  Te  Te175  1  0.92293716  0.40518426  0.60347516  1
  Te  Te176  1  0.89680344  0.39903005  0.89262740  1
  Te  Te177  1  0.89743562  0.73681391  0.22519224  1
  Te  Te178  1  0.92591726  0.75223563  0.56675307  1
  Te  Te179  1  0.88259084  0.78176826  0.92515500  1
