# generated using pymatgen
data_In2Te3
_symmetry_space_group_name_H-M   'P 1'
_cell_length_a   18.98121440
_cell_length_b   18.98824983
_cell_length_c   18.98637470
_cell_angle_alpha   90.10558954
_cell_angle_beta   90.16725127
_cell_angle_gamma   89.75552505
_symmetry_Int_Tables_number   1
_chemical_formula_structural   In2Te3
_chemical_formula_sum   'In72 Te108'
_cell_volume   6842.96703712
_cell_formula_units_Z   36
loop_
 _symmetry_equiv_pos_site_id
 _symmetry_equiv_pos_as_xyz
  1  'x, y, z'
loop_
 _atom_site_type_symbol
 _atom_site_label
 _atom_site_symmetry_multiplicity
 _atom_site_fract_x
 _atom_site_fract_y
 _atom_site_fract_z
 _atom_site_occupancy
  In  In0  1  0.66267670  0.53637091  0.15571873  1
  In  In1  1  0.64012380  0.69306003  0.00412505  1
  In  In2  1  0.50784365  0.65346390  0.81777730  1
  In  In3  1  0.01448906  0.68961062  0.00515642  1
  In  In4  1  0.47730840  -0.01372424  0.86440759  1
  In  In5  1  0.47357331  0.49948734  0.34927609  1
  In  In6  1  0.47015730  0.71617506  0.17739535  1
  In  In7  1  0.63685898  0.00380802  0.68712095  1
  In  In8  1  0.65103052  0.33063191  0.33331023  1
  In  In9  1  0.01046219  -0.02754581  0.69570032  1
  In  In10  1  0.33755733  0.51423219  0.16550790  1
  In  In11  1  0.40563527  0.67846592  0.59843682  1
  In  In12  1  0.14304942  0.32086802  0.81712511  1
  In  In13  1  0.82207236  0.16426825  0.66227529  1
  In  In14  1  0.67363594  0.66915142  0.35848365  1
  In  In15  1  0.86772504  0.33365375  0.14691274  1
  In  In16  1  0.84311807  0.14791787  0.33558427  1
  In  In17  1  0.02632506  0.64631569  0.33246713  1
  In  In18  1  0.48151768  0.15875263  0.69741151  1
  In  In19  1  0.80221652  0.33046528  0.49088282  1
  In  In20  1  0.03215172  0.48880619  0.18287210  1
  In  In21  1  0.69050555  0.16640975  0.15435129  1
  In  In22  1  0.65013337  0.49628864  0.50677724  1
  In  In23  1  0.02008955  -0.01674596  0.33705994  1
  In  In24  1  0.00881385  0.30982841  0.31525281  1
  In  In25  1  0.77889484  0.63001564  0.81387099  1
  In  In26  1  0.34351089  0.52885269  0.80273903  1
  In  In27  1  0.64048400  0.66285103  0.64727279  1
  In  In28  1  -0.01092002  0.65511098  0.65234619  1
  In  In29  1  0.67782868  0.17601745  0.85021605  1
  In  In30  1  -0.01750131  0.81914701  0.50569252  1
  In  In31  1  0.48671144  0.18210567  0.03019538  1
  In  In32  1  0.85664561  0.17102408  -0.01564224  1
  In  In33  1  0.15787222  0.50491618  0.33868758  1
  In  In34  1  0.32369875  0.16913371  0.17957560  1
  In  In35  1  0.01210302  0.12913096  0.49673421  1
  In  In36  1  0.24714341  0.85727953  0.01283955  1
  In  In37  1  0.17943745  -0.00482489  0.83675757  1
  In  In38  1  -0.03335173  0.82127486  0.84507853  1
  In  In39  1  0.32555094  0.16026964  0.86328687  1
  In  In40  1  0.01327405  0.13823229  0.83030543  1
  In  In41  1  0.48992161  -0.00139938  0.17091224  1
  In  In42  1  0.02854078  0.00070947  0.01312791  1
  In  In43  1  0.15534825  0.81634270  0.67804777  1
  In  In44  1  0.78948621  0.01372619  0.50889335  1
  In  In45  1  0.65354756  0.87958231  0.19651098  1
  In  In46  1  0.18795070  0.34411047  0.17049209  1
  In  In47  1  0.19780464  -0.03709028  0.47156843  1
  In  In48  1  0.56632862  0.03115940  0.37162088  1
  In  In49  1  0.61277279  0.18835409  0.50654425  1
  In  In50  1  0.83193326  0.82507219  0.33622837  1
  In  In51  1  -0.01425358  0.49638939  0.50536050  1
  In  In52  1  0.34610938  0.15969983  0.48499565  1
  In  In53  1  0.55211664  0.38323035  0.81888558  1
  In  In54  1  0.31492933  0.34185588  0.65783424  1
  In  In55  1  0.89122289  -0.01920909  0.17908567  1
  In  In56  1  0.19324456  0.50244141  0.01562519  1
  In  In57  1  0.25518058  0.53364431  0.57553063  1
  In  In58  1  0.84284249  0.67124768  0.15332603  1
  In  In59  1  0.21088888  0.71093015  0.45211560  1
  In  In60  1  0.77463554  0.37966615  0.83371409  1
  In  In61  1  0.04664278  0.82614083  0.16039787  1
  In  In62  1  0.19567946  0.16728626  0.59911618  1
  In  In63  1  -0.03037841  0.32705319  0.67473867  1
  In  In64  1  0.19116868  0.66251310  0.84414237  1
  In  In65  1  0.82666088  0.51017222  -0.00836643  1
  In  In66  1  0.81190890  0.82713176  -0.02109394  1
  In  In67  1  0.34362208  0.35818747  -0.01810500  1
  In  In68  1  0.49299976  0.84866981  0.38311241  1
  In  In69  1  0.48605497  0.32468538  0.18758103  1
  In  In70  1  -0.00734477  0.50594095  0.82243997  1
  In  In71  1  0.68385804  0.00250384  -0.00356024  1
  Te  Te72  1  0.13129442  0.03591180  0.11362342  1
  Te  Te73  1  0.11927181  0.07762247  0.40486583  1
  Te  Te74  1  0.10600836  0.08555725  0.72247192  1
  Te  Te75  1  0.08954864  0.40587030  0.07083280  1
  Te  Te76  1  0.07043480  0.40695929  0.41380597  1
  Te  Te77  1  0.07526575  0.42314644  0.72618562  1
  Te  Te78  1  0.13650720  0.75553306  0.06310392  1
  Te  Te79  1  0.07911016  0.77466490  0.39666877  1
  Te  Te80  1  0.06711515  0.72885734  0.76869213  1
  Te  Te81  1  0.39610863  0.07388778  0.07837276  1
  Te  Te82  1  0.42792959  0.07280620  0.38977626  1
  Te  Te83  1  0.38756654  0.06311571  0.76497231  1
  Te  Te84  1  0.43105840  0.42351894  0.08648517  1
  Te  Te85  1  0.43705135  0.41796788  0.46588389  1
  Te  Te86  1  0.41562525  0.40806535  0.74992938  1
  Te  Te87  1  0.42221977  0.79798488  0.06193272  1
  Te  Te88  1  0.42671170  0.73164368  0.45089754  1
  Te  Te89  1  0.41622851  0.73601759  0.73421022  1
  Te  Te90  1  0.78555664  0.06483355  0.09103522  1
  Te  Te91  1  0.72095367  0.11537078  0.41944170  1
  Te  Te92  1  0.74924354  0.07712848  0.76184677  1
  Te  Te93  1  0.75878550  0.42889463  0.09899708  1
  Te  Te94  1  0.74315845  0.43094390  0.39691120  1
  Te  Te95  1  0.68632113  0.44360328  0.72660038  1
  Te  Te96  1  0.73883361  0.76965377  0.10213282  1
  Te  Te97  1  0.76997757  0.74384765  0.44086368  1
  Te  Te98  1  0.70491809  0.74270295  0.75701846  1
  Te  Te99  1  0.12088002  0.24297547  0.25203969  1
  Te  Te100  1  0.05942661  0.24145480  0.58844313  1
  Te  Te101  1  0.07877928  0.23681984  0.91709028  1
  Te  Te102  1  0.12352456  0.60106911  0.22372239  1
  Te  Te103  1  0.08698142  0.59125471  0.56160341  1
  Te  Te104  1  0.08375216  0.57579887  0.92322579  1
  Te  Te105  1  0.12207820  0.93157527  0.23574746  1
  Te  Te106  1  0.08798534  0.91465785  0.57246923  1
  Te  Te107  1  0.07848807  0.90465482  0.90611609  1
  Te  Te108  1  0.39099903  0.25888598  0.27495862  1
  Te  Te109  1  0.41322787  0.24479571  0.59343797  1
  Te  Te110  1  0.43305554  0.25763157  0.90988084  1
  Te  Te111  1  0.40525306  0.60931075  0.26215155  1
  Te  Te112  1  0.40696346  0.52792889  0.56997919  1
  Te  Te113  1  0.41726230  0.58545697  0.91489408  1
  Te  Te114  1  0.41365610  0.91100453  0.26704872  1
  Te  Te115  1  0.44084806  0.86647676  0.52589376  1
  Te  Te116  1  0.37364618  0.90848096  0.93789451  1
  Te  Te117  1  0.76857947  0.25648982  0.25127848  1
  Te  Te118  1  0.72174043  0.25360567  0.59288282  1
  Te  Te119  1  0.75133498  0.27074962  0.94085675  1
  Te  Te120  1  0.76192469  0.59534192  0.25424528  1
  Te  Te121  1  0.74217041  0.59736993  0.56280451  1
  Te  Te122  1  0.69491388  0.56456988  0.92560474  1
  Te  Te123  1  0.76927765  0.94619727  0.26595019  1
  Te  Te124  1  0.71298334  0.92031858  0.58848577  1
  Te  Te125  1  0.73281890  0.91314085  0.89180535  1
  Te  Te126  1  0.26676587  0.26322537  0.06968791  1
  Te  Te127  1  0.22630133  0.24704633  0.47477118  1
  Te  Te128  1  0.24831847  0.23654408  0.74625707  1
  Te  Te129  1  0.29779243  0.59846472  0.04944935  1
  Te  Te130  1  0.26195141  0.57058767  0.42536479  1
  Te  Te131  1  0.22707785  0.57983738  0.72358588  1
  Te  Te132  1  0.31356442  0.85710744  0.14711010  1
  Te  Te133  1  0.28723216  0.88517965  0.38052282  1
  Te  Te134  1  0.24933366  0.91065710  0.73900868  1
  Te  Te135  1  0.59510173  0.26690250  0.09240277  1
  Te  Te136  1  0.54036660  0.28656857  0.41998810  1
  Te  Te137  1  0.58891296  0.25011678  0.75395258  1
  Te  Te138  1  0.54867182  0.61191649  0.09188638  1
  Te  Te139  1  0.56343481  0.59542980  0.42842117  1
  Te  Te140  1  0.56976095  0.55250677  0.72263313  1
  Te  Te141  1  0.57972004  0.92196442  0.07208686  1
  Te  Te142  1  0.62196705  0.90787450  0.42783711  1
  Te  Te143  1  0.53753442  0.91675749  0.75131751  1
  Te  Te144  1  0.94624595  0.22745939  0.08491003  1
  Te  Te145  1  0.91303007  0.23751251  0.43693605  1
  Te  Te146  1  0.90445849  0.23182672  0.77031583  1
  Te  Te147  1  0.93648716  0.57112402  0.08828428  1
  Te  Te148  1  0.92050924  0.59290109  0.41542558  1
  Te  Te149  1  0.88972349  0.56782199  0.73093959  1
  Te  Te150  1  0.93073832  0.88490225  0.06777952  1
  Te  Te151  1  0.90563575  0.93345815  0.42824377  1
  Te  Te152  1  0.89414423  0.90064149  0.74574632  1
  Te  Te153  1  0.24067063  0.05540058  0.22304523  1
  Te  Te154  1  0.28191560  0.04589702  0.56729725  1
  Te  Te155  1  0.22177926  0.09157098  0.93938152  1
  Te  Te156  1  0.26851702  0.42555946  0.26785518  1
  Te  Te157  1  0.21967487  0.39113110  0.55456445  1
  Te  Te158  1  0.24035951  0.42137291  0.88999388  1
  Te  Te159  1  0.23110318  0.76264162  0.31514404  1
  Te  Te160  1  0.26001383  0.75445545  0.58754155  1
  Te  Te161  1  0.27611181  0.77417967  0.88779438  1
  Te  Te162  1  0.58039816  0.10486328  0.23599399  1
  Te  Te163  1  0.54782739  0.07846859  0.58642566  1
  Te  Te164  1  0.57708348  0.09631654  0.93132132  1
  Te  Te165  1  0.57924478  0.44139915  0.24819122  1
  Te  Te166  1  0.59499897  0.40859421  0.60979196  1
  Te  Te167  1  0.60948603  0.43660932  0.93970970  1
  Te  Te168  1  0.59443459  0.75541776  0.25757026  1
  Te  Te169  1  0.53678326  0.76390995  0.59863630  1
  Te  Te170  1  0.58431674  0.76237130  0.88812160  1
  Te  Te171  1  0.95708996  0.09625199  0.25124250  1
  Te  Te172  1  0.91467449  0.06332866  0.59635284  1
  Te  Te173  1  0.92138248  0.05305526  0.91626985  1
  Te  Te174  1  0.92185706  0.42124318  0.25978840  1
  Te  Te175  1  0.88417561  0.41518781  0.58652350  1
  Te  Te176  1  0.90762177  0.41412051  0.90689703  1
  Te  Te177  1  0.93295679  0.75500897  0.24310241  1
  Te  Te178  1  0.89741921  0.76198220  0.60884734  1
  Te  Te179  1  0.88275795  0.70790096  0.91416337  1
