# generated using pymatgen
data_In2Te3
_symmetry_space_group_name_H-M   'P 1'
_cell_length_a   18.91176433
_cell_length_b   18.91013151
_cell_length_c   18.90946624
_cell_angle_alpha   90.06309002
_cell_angle_beta   90.19117515
_cell_angle_gamma   89.98922925
_symmetry_Int_Tables_number   1
_chemical_formula_structural   In2Te3
_chemical_formula_sum   'In72 Te108'
_cell_volume   6762.43616181
_cell_formula_units_Z   36
loop_
 _symmetry_equiv_pos_site_id
 _symmetry_equiv_pos_as_xyz
  1  'x, y, z'
loop_
 _atom_site_type_symbol
 _atom_site_label
 _atom_site_symmetry_multiplicity
 _atom_site_fract_x
 _atom_site_fract_y
 _atom_site_fract_z
 _atom_site_occupancy
  In  In0  1  0.83471857  0.34086727  0.83809951  1
  In  In1  1  0.82378890  0.15977098  0.70321004  1
  In  In2  1  0.68977904  0.33921980  -0.01405010  1
  In  In3  1  0.66408199  0.17349796  0.19123463  1
  In  In4  1  0.33646136  0.82930258  0.47659386  1
  In  In5  1  -0.00464984  0.02456099  0.67095874  1
  In  In6  1  0.48805941  -0.02581484  0.15196822  1
  In  In7  1  0.81572690  0.84113434  0.66848558  1
  In  In8  1  0.31977314  0.68076639  -0.00479314  1
  In  In9  1  0.53690107  0.17719814  0.66717184  1
  In  In10  1  0.00541324  0.87775641  0.87188332  1
  In  In11  1  0.83614755  0.51964724  0.29965399  1
  In  In12  1  -0.00606505  0.82437237  0.47972326  1
  In  In13  1  0.00757962  0.69155283  0.31317634  1
  In  In14  1  -0.01730564  0.12077945  0.86109816  1
  In  In15  1  0.49257963  0.31940974  0.16708600  1
  In  In16  1  0.18413515  0.14607730  0.03009147  1
  In  In17  1  -0.02233754  0.67054502  -0.01327176  1
  In  In18  1  0.00432375  0.32791547  0.65301660  1
  In  In19  1  0.66798105  0.84820264  0.49091853  1
  In  In20  1  0.67803878  0.52336591  0.84172958  1
  In  In21  1  0.49452443  0.84115042  0.33142301  1
  In  In22  1  -0.00914131  0.48823533  0.82370886  1
  In  In23  1  0.32534703  0.66143622  0.32888881  1
  In  In24  1  0.69139391  0.69523146  0.00488802  1
  In  In25  1  0.00759128  -0.00935737  0.33031247  1
  In  In26  1  -0.00834324  0.49324506  0.48954905  1
  In  In27  1  0.58855104  0.53875813  0.53581312  1
  In  In28  1  0.33023540  -0.00870466  0.67191347  1
  In  In29  1  0.00478801  0.17110052  0.15226138  1
  In  In30  1  0.67793473  0.15084041  0.50843760  1
  In  In31  1  0.19355605  0.68035520  0.81913315  1
  In  In32  1  0.00595956  0.51604872  0.15797671  1
  In  In33  1  0.82919338  0.16932348  0.35060757  1
  In  In34  1  0.65468714  0.00460588  -0.00351229  1
  In  In35  1  0.32615200  -0.00024512  0.03594779  1
  In  In36  1  0.02227480  0.16260463  0.50503753  1
  In  In37  1  0.32873838  0.16566819  0.49134595  1
  In  In38  1  0.16784444  0.83607663  0.66321920  1
  In  In39  1  0.49998685  0.81781918  0.67267984  1
  In  In40  1  0.49747081  0.67580145  0.18198000  1
  In  In41  1  0.51944344  -0.01829864  0.83231552  1
  In  In42  1  0.49155467  0.50046630  0.35076881  1
  In  In43  1  0.67773689  0.84848931  0.83919327  1
  In  In44  1  0.49729872  0.81672632  0.00546494  1
  In  In45  1  0.19492646  -0.01909418  0.49311587  1
  In  In46  1  0.52119278  0.13478595  -0.01704806  1
  In  In47  1  0.16486255  0.65604086  0.17149881  1
  In  In48  1  0.49761732  0.33794685  0.49379854  1
  In  In49  1  0.67966769  0.34079884  0.35173630  1
  In  In50  1  0.65757651  0.67211007  0.68135758  1
  In  In51  1  0.65684895  0.50764459  0.14685372  1
  In  In52  1  0.15372334  0.32753199  0.82909481  1
  In  In53  1  0.14782860  0.67535311  0.47652394  1
  In  In54  1  0.04280711  0.34458719  0.31714565  1
  In  In55  1  0.80536736  0.66917270  0.50119685  1
  In  In56  1  0.49098445  0.32911502  0.81733916  1
  In  In57  1  0.01354960  0.32575997  0.02534758  1
  In  In58  1  0.31950944  0.50258242  0.82030822  1
  In  In59  1  0.14637959  0.49615870  0.00193248  1
  In  In60  1  0.31372570  0.35485631  0.65510937  1
  In  In61  1  0.48845789  0.13676407  0.32839972  1
  In  In62  1  0.31005548  0.36392288  0.33502928  1
  In  In63  1  0.83994229  0.33390942  0.50697757  1
  In  In64  1  0.30032313  0.29549237  0.02966120  1
  In  In65  1  0.82434035  -0.00956256  0.15701905  1
  In  In66  1  0.37087984  0.65619751  0.65691970  1
  In  In67  1  0.46782192  0.49434732  0.00321300  1
  In  In68  1  0.34177224  0.16067145  0.85081310  1
  In  In69  1  -0.00946405  0.65341455  0.69034256  1
  In  In70  1  0.01498500  0.84149921  0.15542501  1
  In  In71  1  0.86083330  0.84378773  0.31081890  1
  Te  Te72  1  0.05902055  0.06403317  0.06089956  1
  Te  Te73  1  0.10435726  0.07545442  0.41224874  1
  Te  Te74  1  0.08829208  0.08534654  0.76628809  1
  Te  Te75  1  0.11575343  0.39786314  0.11655113  1
  Te  Te76  1  0.10375169  0.40648608  0.44051739  1
  Te  Te77  1  0.09513909  0.42792969  0.73315927  1
  Te  Te78  1  0.08617033  0.73735886  0.06939393  1
  Te  Te79  1  0.10346938  0.78740902  0.38241787  1
  Te  Te80  1  0.07134900  0.76305177  0.75903278  1
  Te  Te81  1  0.43026771  0.10464609  0.09811555  1
  Te  Te82  1  0.41412870  0.06143504  0.42957213  1
  Te  Te83  1  0.43174889  0.08515592  0.75427497  1
  Te  Te84  1  0.38933107  0.40496507  0.09686938  1
  Te  Te85  1  0.39194931  0.43601811  0.44617824  1
  Te  Te86  1  0.42156231  0.43288960  0.73102798  1
  Te  Te87  1  0.39577778  0.75950969  0.10145446  1
  Te  Te88  1  0.43051319  0.72856886  0.41584196  1
  Te  Te89  1  0.39917546  0.75654019  0.75932189  1
  Te  Te90  1  0.74083762  0.09596904  0.08502869  1
  Te  Te91  1  0.73078637  0.07211995  0.39596618  1
  Te  Te92  1  0.72990308  0.06711671  0.76184062  1
  Te  Te93  1  0.75367657  0.40969030  0.09797374  1
  Te  Te94  1  0.77472602  0.43871823  0.41606470  1
  Te  Te95  1  0.74002391  0.41847652  0.75783150  1
  Te  Te96  1  0.76821924  0.73352936  0.12413716  1
  Te  Te97  1  0.75722730  0.76431603  0.39681730  1
  Te  Te98  1  0.76141759  0.74155925  0.76821064  1
  Te  Te99  1  0.09542996  0.21900996  0.25975285  1
  Te  Te100  1  0.11236055  0.24806499  0.58822300  1
  Te  Te101  1  0.09118571  0.23476100  0.93052732  1
  Te  Te102  1  0.08950469  0.57064718  0.27296914  1
  Te  Te103  1  0.07112939  0.59039811  0.57803994  1
  Te  Te104  1  0.09116044  0.58881399  0.89668049  1
  Te  Te105  1  0.10193533  0.93699572  0.22949004  1
  Te  Te106  1  0.07331446  0.92116471  0.57521433  1
  Te  Te107  1  0.09791639  0.93908883  0.97363813  1
  Te  Te108  1  0.41207293  0.25752449  0.27809492  1
  Te  Te109  1  0.41557843  0.25056206  0.59284047  1
  Te  Te110  1  0.42341609  0.25750825  0.93522656  1
  Te  Te111  1  0.41014641  0.56675720  0.24154024  1
  Te  Te112  1  0.43954817  0.57092473  0.56097140  1
  Te  Te113  1  0.40726077  0.59349518  0.90485198  1
  Te  Te114  1  0.39361879  0.91424950  0.24765915  1
  Te  Te115  1  0.41637512  0.90752585  0.58160301  1
  Te  Te116  1  0.42283511  0.92742143  0.93316689  1
  Te  Te117  1  0.76741006  0.26816771  0.25121106  1
  Te  Te118  1  0.75306970  0.24973026  0.59605294  1
  Te  Te119  1  0.78252958  0.23748320  0.93039913  1
  Te  Te120  1  0.73782464  0.60641413  0.22777960  1
  Te  Te121  1  0.73503510  0.57644833  0.59172429  1
  Te  Te122  1  0.76338732  0.57877701  0.94985970  1
  Te  Te123  1  0.74609278  0.91890861  0.25820196  1
  Te  Te124  1  0.75674565  0.93354516  0.57294092  1
  Te  Te125  1  0.76771023  0.93116650  0.92627220  1
  Te  Te126  1  0.23852203  0.22681497  0.14846302  1
  Te  Te127  1  0.24760340  0.24508757  0.39807865  1
  Te  Te128  1  0.26212461  0.24975680  0.75686996  1
  Te  Te129  1  0.25289627  0.57293196  0.07868805  1
  Te  Te130  1  0.23982289  0.57918448  0.41703785  1
  Te  Te131  1  0.24719006  0.58343419  0.71432678  1
  Te  Te132  1  0.20669266  0.92207069  0.08611755  1
  Te  Te133  1  0.27898649  0.92936988  0.38203665  1
  Te  Te134  1  0.24602077  0.91197745  0.76161105  1
  Te  Te135  1  0.59125100  0.24833524  0.07580156  1
  Te  Te136  1  0.58171631  0.23974908  0.40901394  1
  Te  Te137  1  0.60965520  0.26894069  0.75600528  1
  Te  Te138  1  0.56514523  0.59799225  0.06306038  1
  Te  Te139  1  0.60783142  0.57659584  0.39525604  1
  Te  Te140  1  0.57138001  0.58555779  0.76222364  1
  Te  Te141  1  0.60032405  0.89387847  0.08533057  1
  Te  Te142  1  0.56360245  0.93139398  0.42704749  1
  Te  Te143  1  0.60372927  0.91662776  0.72473175  1
  Te  Te144  1  0.90313987  0.23517313  0.06509331  1
  Te  Te145  1  0.93689838  0.26174922  0.41495492  1
  Te  Te146  1  0.94113289  0.24600441  0.76531321  1
  Te  Te147  1  0.90421033  0.56878601  0.06537022  1
  Te  Te148  1  0.91772527  0.60616073  0.40737007  1
  Te  Te149  1  0.89155695  0.58134472  0.76917985  1
  Te  Te150  1  0.91881786  0.91715469  0.06909889  1
  Te  Te151  1  0.90600294  0.93527654  0.42853692  1
  Te  Te152  1  0.91821988  0.92079428  0.74894191  1
  Te  Te153  1  0.25158766  0.06791589  0.15416224  1
  Te  Te154  1  0.24160335  0.08478710  0.59318527  1
  Te  Te155  1  0.25030312  0.06425257  0.91517431  1
  Te  Te156  1  0.21938176  0.41631252  0.23248055  1
  Te  Te157  1  0.20371327  0.38724344  0.56341322  1
  Te  Te158  1  0.25113532  0.40837142  0.91970446  1
  Te  Te159  1  0.24483428  0.75332222  0.24620329  1
  Te  Te160  1  0.25028772  0.74595962  0.57305404  1
  Te  Te161  1  0.24210056  0.77789607  0.91687564  1
  Te  Te162  1  0.58353447  0.05705076  0.24271450  1
  Te  Te163  1  0.57382962  0.07087802  0.57489452  1
  Te  Te164  1  0.62272033  0.09749130  0.87071497  1
  Te  Te165  1  0.58279060  0.41027181  0.25218405  1
  Te  Te166  1  0.60052142  0.39882823  0.57751847  1
  Te  Te167  1  0.57112746  0.41862250  0.92224887  1
  Te  Te168  1  0.58962525  0.77311885  0.23973342  1
  Te  Te169  1  0.58457118  0.74589326  0.57039178  1
  Te  Te170  1  0.58448129  0.74781470  0.90332782  1
  Te  Te171  1  0.91351492  0.08447263  0.25280024  1
  Te  Te172  1  0.90476424  0.10512610  0.58023394  1
  Te  Te173  1  0.89442947  0.02528483  0.92880053  1
  Te  Te174  1  0.92916632  0.41306693  0.24063165  1
  Te  Te175  1  0.90716010  0.43306049  0.60134419  1
  Te  Te176  1  0.92529902  0.41567759  0.93770301  1
  Te  Te177  1  0.90736466  0.73514575  0.20620435  1
  Te  Te178  1  0.91527162  0.74766765  0.58429635  1
  Te  Te179  1  0.90642278  0.77731481  0.91587557  1
