# generated using pymatgen
data_In2Te3
_symmetry_space_group_name_H-M   'P 1'
_cell_length_a   18.77144169
_cell_length_b   18.76323485
_cell_length_c   18.76044994
_cell_angle_alpha   90.06182462
_cell_angle_beta   90.05101366
_cell_angle_gamma   89.82159081
_symmetry_Int_Tables_number   1
_chemical_formula_structural   In2Te3
_chemical_formula_sum   'In72 Te108'
_cell_volume   6607.63528920
_cell_formula_units_Z   36
loop_
 _symmetry_equiv_pos_site_id
 _symmetry_equiv_pos_as_xyz
  1  'x, y, z'
loop_
 _atom_site_type_symbol
 _atom_site_label
 _atom_site_symmetry_multiplicity
 _atom_site_fract_x
 _atom_site_fract_y
 _atom_site_fract_z
 _atom_site_occupancy
  In  In0  1  0.01680061  0.00144510  -0.02104859  1
  In  In1  1  0.83201996  0.34284384  0.49015206  1
  In  In2  1  0.16990583  0.18745205  0.65882188  1
  In  In3  1  0.33766698  -0.00209826  0.33962988  1
  In  In4  1  0.84270199  0.15685360  0.65901766  1
  In  In5  1  0.00376439  0.14590630  0.51900805  1
  In  In6  1  0.00542468  0.34879618  0.00807684  1
  In  In7  1  0.65208107  0.48678040  0.17994954  1
  In  In8  1  0.49980307  0.00689780  0.49702732  1
  In  In9  1  0.47958075  0.32353643  0.83556478  1
  In  In10  1  0.32816210  0.00373499  0.68922743  1
  In  In11  1  0.65163715  -0.00101683  0.33900611  1
  In  In12  1  0.83320571  0.49724415  0.33489095  1
  In  In13  1  -0.00673938  0.80677209  0.18629886  1
  In  In14  1  0.00322468  0.51647828  0.82726984  1
  In  In15  1  0.34075754  0.85524870  0.17210206  1
  In  In16  1  0.52200186  0.81896719  0.64943761  1
  In  In17  1  0.15866194  0.49630903  0.32214921  1
  In  In18  1  0.83756123  0.83279654  0.65523871  1
  In  In19  1  0.15808799  0.16794326  0.33886484  1
  In  In20  1  0.67249848  0.35946330  0.67008999  1
  In  In21  1  -0.00247601  0.17946007  0.16454199  1
  In  In22  1  0.32118642  0.47312670  0.17184662  1
  In  In23  1  -0.01317340  -0.01956397  0.36476964  1
  In  In24  1  0.67551454  0.51616183  0.82760117  1
  In  In25  1  0.48892088  0.50315720  0.01902621  1
  In  In26  1  0.67540265  0.34994673  0.01048036  1
  In  In27  1  -0.00191247  -0.02855008  0.66364910  1
  In  In28  1  0.49686640  0.49165437  0.65192755  1
  In  In29  1  0.17346566  -0.00029214  0.83396390  1
  In  In30  1  0.81764342  0.35314631  0.82772993  1
  In  In31  1  0.37034640  0.69760505  0.36911338  1
  In  In32  1  0.68567648  0.68894676  0.36419661  1
  In  In33  1  0.32730897  0.33195056  0.66137816  1
  In  In34  1  0.17365683  0.66654098  0.51098619  1
  In  In35  1  0.48725043  0.85877969  -0.02391705  1
  In  In36  1  -0.01560325  0.34180713  0.64041501  1
  In  In37  1  0.19561655  0.33880386  0.83245334  1
  In  In38  1  0.83001149  0.82284556  0.00472150  1
  In  In39  1  0.51059732  0.67517548  0.84008571  1
  In  In40  1  0.66613709  0.82718736  0.82133424  1
  In  In41  1  0.15047754  0.48878660  -0.01602728  1
  In  In42  1  0.50576601  0.49285845  0.33785989  1
  In  In43  1  0.16890899  0.84030726  -0.03240542  1
  In  In44  1  -0.00679252  0.82692270  0.50368390  1
  In  In45  1  0.17627064  0.51316094  0.66854322  1
  In  In46  1  0.83373071  0.32373627  0.15687331  1
  In  In47  1  0.65166121  0.15917845  0.18750897  1
  In  In48  1  0.01369832  0.33810753  0.34450586  1
  In  In49  1  0.35090917  0.48840742  0.48663236  1
  In  In50  1  0.18089885  0.85186269  0.34860464  1
  In  In51  1  -0.01939528  0.63955370  0.00654479  1
  In  In52  1  0.32722125  0.68722682  -0.01594706  1
  In  In53  1  0.81521653  -0.00706148  0.15639434  1
  In  In54  1  0.82745308  0.67113765  0.81626692  1
  In  In55  1  0.21041914  0.17530269  0.02213833  1
  In  In56  1  0.19806766  -0.01300758  0.16098784  1
  In  In57  1  -0.02975899  0.65405654  0.33926701  1
  In  In58  1  0.66364582  -0.01092552  0.00965537  1
  In  In59  1  0.51382656  0.65305789  0.17301091  1
  In  In60  1  0.47474079  0.14275213  0.66282834  1
  In  In61  1  0.32941667  0.17712555  0.49986253  1
  In  In62  1  0.66071233  0.15518176  0.82772571  1
  In  In63  1  0.65925848  0.82616182  0.15507143  1
  In  In64  1  0.32718818  0.67496737  0.67909639  1
  In  In65  1  0.81161191  0.15116123  0.32781431  1
  In  In66  1  0.47716382  0.16387884  0.01886851  1
  In  In67  1  0.63849611  0.19271446  0.45570040  1
  In  In68  1  0.16235115  0.66278036  0.17164740  1
  In  In69  1  0.67153901  -0.02642171  0.65895426  1
  In  In70  1  0.68805985  0.52232455  0.50881922  1
  In  In71  1  0.00120509  0.15229117  0.85838015  1
  Te  Te72  1  0.09272883  0.08594448  0.08371129  1
  Te  Te73  1  0.09811977  0.06123462  0.43133288  1
  Te  Te74  1  0.07733858  0.09280522  0.73832880  1
  Te  Te75  1  0.09589318  0.41852924  0.10127694  1
  Te  Te76  1  0.07372827  0.44156302  0.43026711  1
  Te  Te77  1  0.08098385  0.40145446  0.75109742  1
  Te  Te78  1  0.08845213  0.75656813  0.07406110  1
  Te  Te79  1  0.08590720  0.74217795  0.39743003  1
  Te  Te80  1  0.11729618  0.76850756  0.80466978  1
  Te  Te81  1  0.41278971  0.08057490  0.12414777  1
  Te  Te82  1  0.42697334  0.10626450  0.40625507  1
  Te  Te83  1  0.42412413  0.07220185  0.78124653  1
  Te  Te84  1  0.41745175  0.39329643  0.08743867  1
  Te  Te85  1  0.42673082  0.38459839  0.40814113  1
  Te  Te86  1  0.40219246  0.42841487  0.75334510  1
  Te  Te87  1  0.42661809  0.74780349  0.08447919  1
  Te  Te88  1  0.45885278  0.78244381  0.45563362  1
  Te  Te89  1  0.42433244  0.76890426  0.75702382  1
  Te  Te90  1  0.74453252  0.10117418  0.07820265  1
  Te  Te91  1  0.74116111  0.07570076  0.43684338  1
  Te  Te92  1  0.75704039  0.06677615  0.74837441  1
  Te  Te93  1  0.77532492  0.44562268  0.07973309  1
  Te  Te94  1  0.72684781  0.41330768  0.40524001  1
  Te  Te95  1  0.78059205  0.45608379  0.71949592  1
  Te  Te96  1  0.75794192  0.73279934  0.09573588  1
  Te  Te97  1  0.77318827  0.76320330  0.45845842  1
  Te  Te98  1  0.72621988  0.73533871  0.71512540  1
  Te  Te99  1  0.09780831  0.26649807  0.23580639  1
  Te  Te100  1  0.08936595  0.26707537  0.55672478  1
  Te  Te101  1  0.10136979  0.24727332  0.92561912  1
  Te  Te102  1  0.05770990  0.57594577  0.23631526  1
  Te  Te103  1  0.07656216  0.60030330  0.60174680  1
  Te  Te104  1  0.09794091  0.60751665  0.90562468  1
  Te  Te105  1  0.08310217  0.92186677  0.24593040  1
  Te  Te106  1  0.09706280  0.89699709  0.58330017  1
  Te  Te107  1  0.05537836  0.89621767  0.87115959  1
  Te  Te108  1  0.39414049  0.21579017  0.18457696  1
  Te  Te109  1  0.43319494  0.26108110  0.57719994  1
  Te  Te110  1  0.39295165  0.24911125  0.92851796  1
  Te  Te111  1  0.40585347  0.58091043  0.25267363  1
  Te  Te112  1  0.41271824  0.59439385  0.57639797  1
  Te  Te113  1  0.41413934  0.58103137  0.91116185  1
  Te  Te114  1  0.43539164  0.90843269  0.27101214  1
  Te  Te115  1  0.41985863  0.92194846  0.59462954  1
  Te  Te116  1  0.38037972  0.94348993  0.91898543  1
  Te  Te117  1  0.73818485  0.26531581  0.25996579  1
  Te  Te118  1  0.74855412  0.25119871  0.58177490  1
  Te  Te119  1  0.74571473  0.25047321  0.91377748  1
  Te  Te120  1  0.73649312  0.58719424  0.25803429  1
  Te  Te121  1  0.74326879  0.59303114  0.62520103  1
  Te  Te122  1  0.75835400  0.59327129  0.92131444  1
  Te  Te123  1  0.74510717  0.90709972  0.25716572  1
  Te  Te124  1  0.73453342  0.88375266  0.55501777  1
  Te  Te125  1  0.75397227  0.91616567  0.91034897  1
  Te  Te126  1  0.28067084  0.27930519  0.10119205  1
  Te  Te127  1  0.24721618  0.26368963  0.41034862  1
  Te  Te128  1  0.27458033  0.22807535  0.76104957  1
  Te  Te129  1  0.25767047  0.58664560  0.07888130  1
  Te  Te130  1  0.25763219  0.58996767  0.40673483  1
  Te  Te131  1  0.26016449  0.57775294  0.76972781  1
  Te  Te132  1  0.28135985  0.92224106  0.04567732  1
  Te  Te133  1  0.27424273  0.91254764  0.44382985  1
  Te  Te134  1  0.22747132  0.90201910  0.73363383  1
  Te  Te135  1  0.58493415  0.25534826  0.08568037  1
  Te  Te136  1  0.55283328  0.27426885  0.36927510  1
  Te  Te137  1  0.58102975  0.25508083  0.74001401  1
  Te  Te138  1  0.60454442  0.58563464  0.06998178  1
  Te  Te139  1  0.57715465  0.59451679  0.42704120  1
  Te  Te140  1  0.58109735  0.59147724  0.73233061  1
  Te  Te141  1  0.55729623  0.92518899  0.09653847  1
  Te  Te142  1  0.57913537  0.89983313  0.42672661  1
  Te  Te143  1  0.56839417  0.92523195  0.75912160  1
  Te  Te144  1  0.90962409  0.23788528  0.05472539  1
  Te  Te145  1  0.91884757  0.23117939  0.41342462  1
  Te  Te146  1  0.91669562  0.25410432  0.75412745  1
  Te  Te147  1  0.89336010  0.55123218  0.08185427  1
  Te  Te148  1  0.89505097  0.57954058  0.44384541  1
  Te  Te149  1  0.93627432  0.60981741  0.73172038  1
  Te  Te150  1  0.92962520  0.91778554  0.08646043  1
  Te  Te151  1  0.88792644  0.87865509  0.40824235  1
  Te  Te152  1  0.90342985  0.91289544  0.76104528  1
  Te  Te153  1  0.26033254  0.09790886  0.24665587  1
  Te  Te154  1  0.24573874  0.08004798  0.58126790  1
  Te  Te155  1  0.26726684  0.07590395  0.92368984  1
  Te  Te156  1  0.26191585  0.39419325  0.28342008  1
  Te  Te157  1  0.24196767  0.41771059  0.56844364  1
  Te  Te158  1  0.26948663  0.42006249  0.92976753  1
  Te  Te159  1  0.25812342  0.75055939  0.25233246  1
  Te  Te160  1  0.25100814  0.76573028  0.58805006  1
  Te  Te161  1  0.25714500  0.76328513  0.87038140  1
  Te  Te162  1  0.55248410  0.07314707  0.25504423  1
  Te  Te163  1  0.59752856  0.09229233  0.58671945  1
  Te  Te164  1  0.57325202  0.07846326  0.92458058  1
  Te  Te165  1  0.55822968  0.38844420  0.24170694  1
  Te  Te166  1  0.58482219  0.41164468  0.55801698  1
  Te  Te167  1  0.58353158  0.41837587  0.90536802  1
  Te  Te168  1  0.58218718  0.75200312  0.26544455  1
  Te  Te169  1  0.57567196  0.73188301  0.54092711  1
  Te  Te170  1  0.59595605  0.75620984  0.93700565  1
  Te  Te171  1  0.92215031  0.07564952  0.25005979  1
  Te  Te172  1  0.90003534  0.04667295  0.56872625  1
  Te  Te173  1  0.89776982  0.07070274  0.92280894  1
  Te  Te174  1  0.92273554  0.41154616  0.24489373  1
  Te  Te175  1  0.91606969  0.44598177  0.55854649  1
  Te  Te176  1  0.91297112  0.43244329  0.91722134  1
  Te  Te177  1  0.88219655  0.73493209  0.24905760  1
  Te  Te178  1  0.93680513  0.73208020  0.60457242  1
  Te  Te179  1  0.92333667  0.74569632  0.91237038  1
