# generated using pymatgen
data_In2Te3
_symmetry_space_group_name_H-M   'P 1'
_cell_length_a   18.78100515
_cell_length_b   18.78434691
_cell_length_c   18.77470318
_cell_angle_alpha   90.01486330
_cell_angle_beta   89.92928483
_cell_angle_gamma   90.02377046
_symmetry_Int_Tables_number   1
_chemical_formula_structural   In2Te3
_chemical_formula_sum   'In72 Te108'
_cell_volume   6623.50134632
_cell_formula_units_Z   36
loop_
 _symmetry_equiv_pos_site_id
 _symmetry_equiv_pos_as_xyz
  1  'x, y, z'
loop_
 _atom_site_type_symbol
 _atom_site_label
 _atom_site_symmetry_multiplicity
 _atom_site_fract_x
 _atom_site_fract_y
 _atom_site_fract_z
 _atom_site_occupancy
  In  In0  1  0.32599523  0.17095628  0.50886733  1
  In  In1  1  0.83076769  0.49393791  0.33174276  1
  In  In2  1  0.15819294  0.69060623  0.83186176  1
  In  In3  1  0.64055822  0.66031730  0.31534327  1
  In  In4  1  0.16054084  0.15212404  -0.00621163  1
  In  In5  1  0.33129516  0.84334275  0.15615872  1
  In  In6  1  0.49017780  0.17044991  0.03421932  1
  In  In7  1  -0.00765592  0.81577248  0.51557062  1
  In  In8  1  0.65548847  0.01362541  0.31847286  1
  In  In9  1  -0.01847694  0.14951757  0.84090245  1
  In  In10  1  0.65869411  0.16293672  0.51570141  1
  In  In11  1  0.34749863  0.16055515  0.84351712  1
  In  In12  1  -0.03351655  0.35786260  -0.00925517  1
  In  In13  1  0.34520845  0.49019054  0.48109407  1
  In  In14  1  0.68279432  0.64567531  0.71373378  1
  In  In15  1  -0.02759830  0.67762338  -0.02679731  1
  In  In16  1  0.81899811  0.16928150  0.32895259  1
  In  In17  1  0.02342998  0.49668699  0.52926565  1
  In  In18  1  -0.00441699  0.00770657  0.68438756  1
  In  In19  1  0.14785503  -0.03366149  0.85400972  1
  In  In20  1  0.52081669  0.34456693  0.50942612  1
  In  In21  1  -0.01360725  0.51754464  0.15670371  1
  In  In22  1  -0.00278525  0.83513555  0.15182362  1
  In  In23  1  0.48330308  0.18517555  0.29972492  1
  In  In24  1  0.17775026  0.31693001  0.15840206  1
  In  In25  1  0.83972343  0.15706052  0.68851914  1
  In  In26  1  -0.01387361  0.18817387  0.51671327  1
  In  In27  1  0.19443668  0.47411224  0.31975075  1
  In  In28  1  0.48685201  0.82765958  0.29039840  1
  In  In29  1  0.00149025  0.65359305  0.35296008  1
  In  In30  1  0.51718082  0.65871107  0.13689366  1
  In  In31  1  0.32883616  0.83752930  0.50622730  1
  In  In32  1  0.48694287  0.65416311  0.86980474  1
  In  In33  1  0.18246415  -0.00122937  0.15555107  1
  In  In34  1  0.16237060  0.52325412  -0.00789618  1
  In  In35  1  0.50836013  -0.00606008  0.82824887  1
  In  In36  1  0.51889668  0.00008701  0.51198396  1
  In  In37  1  0.01564900  0.17647406  0.15670599  1
  In  In38  1  0.81557287  0.33351280  0.15912242  1
  In  In39  1  0.35974526  0.34331445  0.66877193  1
  In  In40  1  0.51361222  0.83190262  -0.00447923  1
  In  In41  1  -0.01447172  -0.01956119  0.33809368  1
  In  In42  1  0.18721177  0.50702986  0.68717347  1
  In  In43  1  0.67081950  0.00952091  -0.00051805  1
  In  In44  1  0.50164853  0.50366456  0.68257932  1
  In  In45  1  0.82670180  0.33137351  0.49462599  1
  In  In46  1  0.82606419  0.69362271  0.52504170  1
  In  In47  1  -0.01060172  0.33038485  0.67814746  1
  In  In48  1  0.67557311  0.47818479  0.51878899  1
  In  In49  1  0.16524714  0.33190230  0.82512630  1
  In  In50  1  0.17659221  0.00593162  0.51250476  1
  In  In51  1  0.85510752  0.83931996  0.31406373  1
  In  In52  1  0.33524222  0.64899245  0.30070371  1
  In  In53  1  0.68557022  0.84615444  0.50092278  1
  In  In54  1  0.34722650  -0.00751537  0.31928289  1
  In  In55  1  0.31264006  0.67896204  0.68751237  1
  In  In56  1  0.36345733  0.34639596  0.00665668  1
  In  In57  1  0.51407298  0.85461021  0.66509998  1
  In  In58  1  0.83951407  -0.01099140  0.13148293  1
  In  In59  1  0.17654899  0.67424522  0.14736785  1
  In  In60  1  0.65973115  0.20600478  0.82162206  1
  In  In61  1  0.17678717  0.13976939  0.32772685  1
  In  In62  1  0.33051533  0.83413784  0.83910080  1
  In  In63  1  0.83132324  -0.00415667  0.84441928  1
  In  In64  1  0.50300958  0.68583078  0.51357642  1
  In  In65  1  0.52496900  0.47241664  0.31696690  1
  In  In66  1  0.65698029  0.35311605  -0.02997931  1
  In  In67  1  0.14746857  0.32091337  0.48889386  1
  In  In68  1  0.14264706  0.66545868  0.51741338  1
  In  In69  1  0.80767666  0.69495495  0.11958880  1
  In  In70  1  0.82758726  0.85524136  0.68699325  1
  In  In71  1  0.64775725  0.49466409  0.14666949  1
  Te  Te72  1  0.06777715  0.06066954  0.07333087  1
  Te  Te73  1  0.06805484  0.08645804  0.42416377  1
  Te  Te74  1  0.09566284  0.08968075  0.76355188  1
  Te  Te75  1  0.08098141  0.41449362  0.08565371  1
  Te  Te76  1  0.07295853  0.42433312  0.40457020  1
  Te  Te77  1  0.07167181  0.43113221  0.75832368  1
  Te  Te78  1  0.08515758  0.75216598  0.05576488  1
  Te  Te79  1  0.08986847  0.76353931  0.40969932  1
  Te  Te80  1  0.06489786  0.74076777  0.73220793  1
  Te  Te81  1  0.40490038  0.07357358  0.10533769  1
  Te  Te82  1  0.42342350  0.08244362  0.41689557  1
  Te  Te83  1  0.42634567  0.08397744  0.74335996  1
  Te  Te84  1  0.45824147  0.43880700  0.07653189  1
  Te  Te85  1  0.42229440  0.39069162  0.39880850  1
  Te  Te86  1  0.41954434  0.42231534  0.77873368  1
  Te  Te87  1  0.40938928  0.74340621  0.07012265  1
  Te  Te88  1  0.40948851  0.75081561  0.40392072  1
  Te  Te89  1  0.44046373  0.74070083  0.74556358  1
  Te  Te90  1  0.74965759  0.09826454  0.08991097  1
  Te  Te91  1  0.74749253  0.07417496  0.42467965  1
  Te  Te92  1  0.73385065  0.07983885  0.76355052  1
  Te  Te93  1  0.75673510  0.43067943  0.05921088  1
  Te  Te94  1  0.72959981  0.40026237  0.39826477  1
  Te  Te95  1  0.76594120  0.44818785  0.78847038  1
  Te  Te96  1  0.73082488  0.77587756  0.02425588  1
  Te  Te97  1  0.74805384  0.74086619  0.39772029  1
  Te  Te98  1  0.77001724  0.74902224  0.78172011  1
  Te  Te99  1  0.08927624  0.25163802  0.26571027  1
  Te  Te100  1  0.09485459  0.24154894  0.60867403  1
  Te  Te101  1  0.07268015  0.25861064  0.92516433  1
  Te  Te102  1  0.09494789  0.57891487  0.25044761  1
  Te  Te103  1  0.06984187  0.59805583  0.63680658  1
  Te  Te104  1  0.06267489  0.58123608  0.89506908  1
  Te  Te105  1  0.08753397  0.91377277  0.24676337  1
  Te  Te106  1  0.07811231  0.91891261  0.59095324  1
  Te  Te107  1  0.05020902  0.90506621  0.94540576  1
  Te  Te108  1  0.39886533  0.28446036  0.23267423  1
  Te  Te109  1  0.43774282  0.24101872  0.58767442  1
  Te  Te110  1  0.44357782  0.25570848  0.91252295  1
  Te  Te111  1  0.43343867  0.56180357  0.22823464  1
  Te  Te112  1  0.40183735  0.58503370  0.58821623  1
  Te  Te113  1  0.44006499  0.53675216  0.96311211  1
  Te  Te114  1  0.44215204  0.95069377  0.20259742  1
  Te  Te115  1  0.40442097  0.93507642  0.59425843  1
  Te  Te116  1  0.41386403  0.92576208  0.92757986  1
  Te  Te117  1  0.72931635  0.24318847  0.23927834  1
  Te  Te118  1  0.75380597  0.24979548  0.59958287  1
  Te  Te119  1  0.75748331  0.25495839  0.92013452  1
  Te  Te120  1  0.74960500  0.58403055  0.23789540  1
  Te  Te121  1  0.75939059  0.57646571  0.60026983  1
  Te  Te122  1  0.77593036  0.56384135  0.88781257  1
  Te  Te123  1  0.75197990  0.91718859  0.23623712  1
  Te  Te124  1  0.73803134  0.93753017  0.60331942  1
  Te  Te125  1  0.74679089  0.89920799  0.92741401  1
  Te  Te126  1  0.26589042  0.23854679  0.06247079  1
  Te  Te127  1  0.25267460  0.25187267  0.40238003  1
  Te  Te128  1  0.26470591  0.24956843  0.74643830  1
  Te  Te129  1  0.26299597  0.57097927  0.08878299  1
  Te  Te130  1  0.24439671  0.59172027  0.42348091  1
  Te  Te131  1  0.27110125  0.57713365  0.79043006  1
  Te  Te132  1  0.24500752  0.90909822  0.05661653  1
  Te  Te133  1  0.24489911  0.91878513  0.40614186  1
  Te  Te134  1  0.23878432  0.90898033  0.75226915  1
  Te  Te135  1  0.57708994  0.28343510  0.08287002  1
  Te  Te136  1  0.57929657  0.24112590  0.41288896  1
  Te  Te137  1  0.57120655  0.28228752  0.73456994  1
  Te  Te138  1  0.61522895  0.59711681  0.04315369  1
  Te  Te139  1  0.58205240  0.57147651  0.43179653  1
  Te  Te140  1  0.59294583  0.55383149  0.79873493  1
  Te  Te141  1  0.58110161  0.92723343  0.08652480  1
  Te  Te142  1  0.57512542  0.89899190  0.40300345  1
  Te  Te143  1  0.60635236  0.89873522  0.76996422  1
  Te  Te144  1  0.90749137  0.24368432  0.07317607  1
  Te  Te145  1  0.92214741  0.26060184  0.39930143  1
  Te  Te146  1  0.89771432  0.26363477  0.78001637  1
  Te  Te147  1  0.88982884  0.57878284  0.05830307  1
  Te  Te148  1  0.90305102  0.57772138  0.44113761  1
  Te  Te149  1  0.87078052  0.56010018  0.77076271  1
  Te  Te150  1  0.92176367  0.89962098  0.03804777  1
  Te  Te151  1  0.89690304  0.91112427  0.44216585  1
  Te  Te152  1  0.93979904  0.90598727  0.78348475  1
  Te  Te153  1  0.27998597  0.09871304  0.22223213  1
  Te  Te154  1  0.25365846  0.08796086  0.60639325  1
  Te  Te155  1  0.25660741  0.06312665  0.91803914  1
  Te  Te156  1  0.28745155  0.39671286  0.23019216  1
  Te  Te157  1  0.24331315  0.41318061  0.57520951  1
  Te  Te158  1  0.24580751  0.41053544  0.92722454  1
  Te  Te159  1  0.24457263  0.76142151  0.25357710  1
  Te  Te160  1  0.22798908  0.76710305  0.59710594  1
  Te  Te161  1  0.26220981  0.73578864  0.92592386  1
  Te  Te162  1  0.58443347  0.10416030  0.22623268  1
  Te  Te163  1  0.58341468  0.08236365  0.61542054  1
  Te  Te164  1  0.57709336  0.10048940  0.91824305  1
  Te  Te165  1  0.58750471  0.37566533  0.22012182  1
  Te  Te166  1  0.60873231  0.39615092  0.63332123  1
  Te  Te167  1  0.55117014  0.43759000  0.90359226  1
  Te  Te168  1  0.60215058  0.76439029  0.21128962  1
  Te  Te169  1  0.61507479  0.74313772  0.59892031  1
  Te  Te170  1  0.60325205  0.73805464  0.91704081  1
  Te  Te171  1  0.91855395  0.08059796  0.24336978  1
  Te  Te172  1  0.90650260  0.07478806  0.57923202  1
  Te  Te173  1  0.89471789  0.08818372  0.94193951  1
  Te  Te174  1  0.92176444  0.40878295  0.24308686  1
  Te  Te175  1  0.90417993  0.42235231  0.59144990  1
  Te  Te176  1  0.89526328  0.43990576  0.88847999  1
  Te  Te177  1  0.92361713  0.72290208  0.23855527  1
  Te  Te178  1  0.92532547  0.74076310  0.63156324  1
  Te  Te179  1  0.88674450  0.76122169  0.88732296  1
