# generated using pymatgen
data_In2Te3
_symmetry_space_group_name_H-M   'P 1'
_cell_length_a   19.05698873
_cell_length_b   19.08871992
_cell_length_c   19.03766230
_cell_angle_alpha   90.07737960
_cell_angle_beta   90.05795269
_cell_angle_gamma   89.67572319
_symmetry_Int_Tables_number   1
_chemical_formula_structural   In2Te3
_chemical_formula_sum   'In72 Te108'
_cell_volume   6925.27671405
_cell_formula_units_Z   36
loop_
 _symmetry_equiv_pos_site_id
 _symmetry_equiv_pos_as_xyz
  1  'x, y, z'
loop_
 _atom_site_type_symbol
 _atom_site_label
 _atom_site_symmetry_multiplicity
 _atom_site_fract_x
 _atom_site_fract_y
 _atom_site_fract_z
 _atom_site_occupancy
  In  In0  1  0.32929415  0.00547573  0.65160697  1
  In  In1  1  0.66296529  0.66328122  0.66958128  1
  In  In2  1  0.15986847  0.67358105  0.51129932  1
  In  In3  1  -0.01068017  0.17862886  0.18103552  1
  In  In4  1  0.50722893  0.27895759  0.21420387  1
  In  In5  1  0.68570295  0.50555472  0.82453386  1
  In  In6  1  0.32981477  0.69175165  0.66389453  1
  In  In7  1  0.49192388  0.13751526  0.00314657  1
  In  In8  1  0.82269703  0.14825857  0.33688197  1
  In  In9  1  0.34209477  0.52388577  0.80701904  1
  In  In10  1  0.18799263  0.00510053  0.48014673  1
  In  In11  1  0.51910849  -0.05801075  0.82617180  1
  In  In12  1  0.82184819  0.66780924  0.15970924  1
  In  In13  1  -0.04399561  0.49713169  0.84305644  1
  In  In14  1  -0.00020161  0.47700046  0.16439217  1
  In  In15  1  0.15218454  0.19249284  0.01489186  1
  In  In16  1  0.34518927  0.68392743  -0.01853068  1
  In  In17  1  0.35425697  0.84211914  0.15865046  1
  In  In18  1  0.16998577  0.68131006  0.12110051  1
  In  In19  1  0.63562938  0.32502430  0.64021799  1
  In  In20  1  0.47644048  0.36060493  0.83870487  1
  In  In21  1  0.51095619  0.48800773  0.62730125  1
  In  In22  1  0.20085572  0.84098006  0.34353208  1
  In  In23  1  0.17600681  0.48070079  0.65175528  1
  In  In24  1  0.66784078  0.30551256  0.34926786  1
  In  In25  1  0.82855601  0.32346097  0.50584052  1
  In  In26  1  0.48580350  0.49195450  0.02096046  1
  In  In27  1  0.51065116  -0.00598304  0.51514943  1
  In  In28  1  0.15195428  0.84661845  0.66902352  1
  In  In29  1  -0.01151300  0.84060458  0.84719404  1
  In  In30  1  0.67502739  0.81002745  0.49345552  1
  In  In31  1  0.18689605  0.86734768  -0.02934966  1
  In  In32  1  0.30514945  0.20304521  0.83513336  1
  In  In33  1  0.00542475  0.85569456  0.47183106  1
  In  In34  1  -0.00982382  0.63835812  0.32619559  1
  In  In35  1  0.82960849  0.46653665  0.66744130  1
  In  In36  1  0.65460193  0.83340589  0.15354577  1
  In  In37  1  0.03039126  0.85066724  0.18638643  1
  In  In38  1  0.33230232  0.02115467  0.01259340  1
  In  In39  1  0.47228628  0.16198325  0.64097949  1
  In  In40  1  0.64712633  0.33685094  0.04138241  1
  In  In41  1  0.01897001  0.16701651  0.50816407  1
  In  In42  1  0.33875705  0.14358382  0.45799471  1
  In  In43  1  0.16012620  0.34261238  0.19007345  1
  In  In44  1  0.35544679  0.67515443  0.33939744  1
  In  In45  1  0.00795870  0.03611043  0.69194205  1
  In  In46  1  0.82020565  0.16524713  0.00699424  1
  In  In47  1  0.15136544  0.50863196  -0.00986997  1
  In  In48  1  -0.00629754  0.02042691  0.00693996  1
  In  In49  1  0.33107216  0.49759616  0.18760208  1
  In  In50  1  0.15787327  0.50125921  0.33597702  1
  In  In51  1  -0.01612741  0.66610071  0.01179429  1
  In  In52  1  0.67715199  -0.01973690  0.33289536  1
  In  In53  1  0.30626236  0.34230276  0.01692850  1
  In  In54  1  0.68735083  0.69017683  0.30707891  1
  In  In55  1  0.81883897  -0.02902000  0.82700720  1
  In  In56  1  0.85615290  0.18930155  0.70184668  1
  In  In57  1  0.83867683  -0.00550322  0.48670262  1
  In  In58  1  0.82899984  0.66330920  0.49560027  1
  In  In59  1  0.82062623  0.79985766  0.66140883  1
  In  In60  1  0.52176451  0.63690693  0.48730101  1
  In  In61  1  0.66776983  0.17840849  0.81504370  1
  In  In62  1  0.32313266  0.31322534  0.61266407  1
  In  In63  1  0.49765756  0.00056796  0.19828022  1
  In  In64  1  0.83522396  0.33032252  0.17195123  1
  In  In65  1  0.49613539  0.65457329  0.16763134  1
  In  In66  1  0.00957016  0.65318518  0.66216408  1
  In  In67  1  0.83681768  0.82911758  0.02604063  1
  In  In68  1  0.66554131  0.01619998  0.00497744  1
  In  In69  1  0.14299996  0.33778405  0.83787763  1
  In  In70  1  0.13863395  0.33891275  0.47961854  1
  In  In71  1  0.33139374  0.84220744  0.80992286  1
  Te  Te72  1  0.08961516  0.08701989  0.10044332  1
  Te  Te73  1  0.07353457  0.06826165  0.41446220  1
  Te  Te74  1  0.06505275  0.14607474  0.76488819  1
  Te  Te75  1  0.08507626  0.39931639  0.06540431  1
  Te  Te76  1  0.05138898  0.41173217  0.38281510  1
  Te  Te77  1  0.07345169  0.44076284  0.75607507  1
  Te  Te78  1  0.08112573  0.78148317  0.05035631  1
  Te  Te79  1  0.08521616  0.74592992  0.39425322  1
  Te  Te80  1  0.07475834  0.75273482  0.75638727  1
  Te  Te81  1  0.40525032  0.09582264  0.11975813  1
  Te  Te82  1  0.47641822  0.09784414  0.41124331  1
  Te  Te83  1  0.38721832  0.10613537  0.75331086  1
  Te  Te84  1  0.41607321  0.39185740  0.11000171  1
  Te  Te85  1  0.47998355  0.48335827  0.47821214  1
  Te  Te86  1  0.39851673  0.41246265  0.71856301  1
  Te  Te87  1  0.44140715  0.75759325  0.06827055  1
  Te  Te88  1  0.43378934  0.74421083  0.43836316  1
  Te  Te89  1  0.42855456  0.74013850  0.76311791  1
  Te  Te90  1  0.75679149  0.07383267  0.10110533  1
  Te  Te91  1  0.72865707  0.08387192  0.43568440  1
  Te  Te92  1  0.75376710  0.07831494  0.74280825  1
  Te  Te93  1  0.74070526  0.42375043  0.10904238  1
  Te  Te94  1  0.77494976  0.39668288  0.39110655  1
  Te  Te95  1  0.73054679  0.38589678  0.74554821  1
  Te  Te96  1  0.72544934  0.73278503  0.06322064  1
  Te  Te97  1  0.78408051  0.76718024  0.39802083  1
  Te  Te98  1  0.73925305  0.74312702  0.76931891  1
  Te  Te99  1  0.09005723  0.24240365  0.26702008  1
  Te  Te100  1  0.06054985  0.28187965  0.59180052  1
  Te  Te101  1  0.06064343  0.22636291  0.89853208  1
  Te  Te102  1  0.10053628  0.58415432  0.21508496  1
  Te  Te103  1  0.07772173  0.55960307  0.56511409  1
  Te  Te104  1  0.06592439  0.59502682  0.90685351  1
  Te  Te105  1  0.12212208  0.93286976  0.26270299  1
  Te  Te106  1  0.07536666  0.93955605  0.57773934  1
  Te  Te107  1  0.07848310  0.94824983  0.90228858  1
  Te  Te108  1  0.41262455  0.22071946  0.31079402  1
  Te  Te109  1  0.44751674  0.27225356  0.54057764  1
  Te  Te110  1  0.41481874  0.25475452  0.93701456  1
  Te  Te111  1  0.43559665  0.56411403  0.27241635  1
  Te  Te112  1  0.39825544  0.58728545  0.58338906  1
  Te  Te113  1  0.43449862  0.58424304  0.91065232  1
  Te  Te114  1  0.39638082  0.92352892  0.27335038  1
  Te  Te115  1  0.43072553  0.91266979  0.60689404  1
  Te  Te116  1  0.39973849  0.92324591  0.92065133  1
  Te  Te117  1  0.74464724  0.23182033  0.23889013  1
  Te  Te118  1  0.75182118  0.23535055  0.60153564  1
  Te  Te119  1  0.72085450  0.25272109  0.93286574  1
  Te  Te120  1  0.76255628  0.57467481  0.25331994  1
  Te  Te121  1  0.75185475  0.57317722  0.58730748  1
  Te  Te122  1  0.81282878  0.52190199  0.89835211  1
  Te  Te123  1  0.75230743  0.90493713  0.23278172  1
  Te  Te124  1  0.75426324  0.90664374  0.57914744  1
  Te  Te125  1  0.74012116  0.90462747  0.93508215  1
  Te  Te126  1  0.25332923  0.24396140  0.11500569  1
  Te  Te127  1  0.22242655  0.23501160  0.41134316  1
  Te  Te128  1  0.23059641  0.27412412  0.72604235  1
  Te  Te129  1  0.27212305  0.57311999  0.06811625  1
  Te  Te130  1  0.24574163  0.59834144  0.41222508  1
  Te  Te131  1  0.23259474  0.59576892  0.73330374  1
  Te  Te132  1  0.24614397  0.92821527  0.09438972  1
  Te  Te133  1  0.29617582  0.92776513  0.41378134  1
  Te  Te134  1  0.23206685  0.94229380  0.75164223  1
  Te  Te135  1  0.58157752  0.21386712  0.09808157  1
  Te  Te136  1  0.59182920  0.28107224  0.47804102  1
  Te  Te137  1  0.55008051  0.25772937  0.75413040  1
  Te  Te138  1  0.58649546  0.56759913  0.09265819  1
  Te  Te139  1  0.64055394  0.59614454  0.40990799  1
  Te  Te140  1  0.57404587  0.56667029  0.74374765  1
  Te  Te141  1  0.56561226  0.93218136  0.08020739  1
  Te  Te142  1  0.58204116  0.89813030  0.41531334  1
  Te  Te143  1  0.62877638  0.87219018  0.75603805  1
  Te  Te144  1  0.92165332  0.25623705  0.07074454  1
  Te  Te145  1  0.91580918  0.23346323  0.41847746  1
  Te  Te146  1  0.92731965  0.27460839  0.79753334  1
  Te  Te147  1  0.90596208  0.56167641  0.08256123  1
  Te  Te148  1  0.92004007  0.56866116  0.43136022  1
  Te  Te149  1  0.89593649  0.58939352  0.73158573  1
  Te  Te150  1  0.92591961  0.92410775  0.10090539  1
  Te  Te151  1  0.92168409  0.93480375  0.38107414  1
  Te  Te152  1  0.91757216  0.90699426  0.72891553  1
  Te  Te153  1  0.28741392  0.12860542  0.31811040  1
  Te  Te154  1  0.24590486  0.10516468  0.57603842  1
  Te  Te155  1  0.23880999  0.10321967  0.92668724  1
  Te  Te156  1  0.26527370  0.40613484  0.28515220  1
  Te  Te157  1  0.25580299  0.42256924  0.53607690  1
  Te  Te158  1  0.25895974  0.42849680  0.90051612  1
  Te  Te159  1  0.26350775  0.73617830  0.22645450  1
  Te  Te160  1  0.24680851  0.78040917  0.57217401  1
  Te  Te161  1  0.24118678  0.74837562  0.89565438  1
  Te  Te162  1  0.58446816  0.08541702  0.28175691  1
  Te  Te163  1  0.58129154  0.06935695  0.61951534  1
  Te  Te164  1  0.57407001  0.07655340  0.88786134  1
  Te  Te165  1  0.57396020  0.39148945  0.27389193  1
  Te  Te166  1  0.62023400  0.42834405  0.53150583  1
  Te  Te167  1  0.58776966  0.42142392  0.91987477  1
  Te  Te168  1  0.56548084  0.75978184  0.25001049  1
  Te  Te169  1  0.57437857  0.74893418  0.58590089  1
  Te  Te170  1  0.55139560  0.79726186  0.86033789  1
  Te  Te171  1  0.92080590  0.07363866  0.25650207  1
  Te  Te172  1  0.90676271  0.08951838  0.58990435  1
  Te  Te173  1  0.89373482  0.07542981  0.90793832  1
  Te  Te174  1  0.92940419  0.39823575  0.26548367  1
  Te  Te175  1  0.93065007  0.38870182  0.59316397  1
  Te  Te176  1  0.89680157  0.37862893  0.90700198  1
  Te  Te177  1  0.93498763  0.74015370  0.23096882  1
  Te  Te178  1  0.94018332  0.75591770  0.56757366  1
  Te  Te179  1  0.89623137  0.74347052  0.91492083  1
