# generated using pymatgen
data_In2Te3
_symmetry_space_group_name_H-M   'P 1'
_cell_length_a   18.95405397
_cell_length_b   18.98530494
_cell_length_c   18.95634020
_cell_angle_alpha   90.00626093
_cell_angle_beta   89.84449179
_cell_angle_gamma   90.04332753
_symmetry_Int_Tables_number   1
_chemical_formula_structural   In2Te3
_chemical_formula_sum   'In72 Te108'
_cell_volume   6821.38336827
_cell_formula_units_Z   36
loop_
 _symmetry_equiv_pos_site_id
 _symmetry_equiv_pos_as_xyz
  1  'x, y, z'
loop_
 _atom_site_type_symbol
 _atom_site_label
 _atom_site_symmetry_multiplicity
 _atom_site_fract_x
 _atom_site_fract_y
 _atom_site_fract_z
 _atom_site_occupancy
  In  In0  1  0.15195233  0.49923484  -0.00201741  1
  In  In1  1  0.13309710  0.85786008  0.33224494  1
  In  In2  1  0.34061079  0.17793067  0.48722726  1
  In  In3  1  0.29765920  0.84609551  0.84300720  1
  In  In4  1  0.01498980  0.67977741  0.70953634  1
  In  In5  1  -0.00671748  0.48862785  0.84516444  1
  In  In6  1  -0.01396974  -0.01882959  0.01181126  1
  In  In7  1  0.50882376  0.51095745  0.01878700  1
  In  In8  1  0.31582913  0.49472959  0.85607486  1
  In  In9  1  0.53347402  0.83292529  -0.03373634  1
  In  In10  1  -0.03993740  0.00757940  0.27879724  1
  In  In11  1  0.33822274  0.81692611  0.51942558  1
  In  In12  1  0.79953488  0.46357388  0.71823811  1
  In  In13  1  0.54108250  0.66142850  0.16725865  1
  In  In14  1  0.67063395  0.01166171  0.63721450  1
  In  In15  1  0.34326463  0.82191134  0.17750700  1
  In  In16  1  0.00215960  0.66083172  0.32114156  1
  In  In17  1  0.52434634  0.68948826  0.82813425  1
  In  In18  1  0.18319861  0.16617896  0.66806051  1
  In  In19  1  0.67937349  0.83841853  0.50409937  1
  In  In20  1  0.31926052  0.01796055  0.33939269  1
  In  In21  1  0.32281639  0.16547304  0.83310922  1
  In  In22  1  0.84454480  0.67596976  0.86844656  1
  In  In23  1  -0.00739447  0.33544491  -0.00803476  1
  In  In24  1  0.65706624  0.81346624  0.83267574  1
  In  In25  1  0.00958975  0.17887120  0.85020105  1
  In  In26  1  0.14969162  0.01517245  0.48815804  1
  In  In27  1  -0.00643490  0.83247371  0.48732589  1
  In  In28  1  -0.01971119  0.51548434  0.16538549  1
  In  In29  1  0.01643734  0.48230651  0.47889028  1
  In  In30  1  0.64891142  0.50196139  0.48230101  1
  In  In31  1  0.18447448  0.29250777  0.13504076  1
  In  In32  1  0.50852020  0.83549374  0.66308150  1
  In  In33  1  0.49823510  0.50990447  0.66199903  1
  In  In34  1  0.34925762  0.48598938  0.50569873  1
  In  In35  1  0.00906141  0.32298401  0.65048095  1
  In  In36  1  0.64140833  0.18734755  0.85045575  1
  In  In37  1  0.65526606  0.32777790  0.01574582  1
  In  In38  1  -0.02050482  0.14841707  0.47998012  1
  In  In39  1  0.15059310  0.66064657  0.14908907  1
  In  In40  1  0.83438562  -0.01098074  0.81980986  1
  In  In41  1  0.66526682  0.01580046  0.00516471  1
  In  In42  1  0.47996711  0.32853301  0.84008997  1
  In  In43  1  0.52659459  0.03303893  0.18776235  1
  In  In44  1  0.34976040  -0.01639274  0.68100794  1
  In  In45  1  0.83560265  0.33582534  0.50509572  1
  In  In46  1  0.19703252  0.65283298  0.51574638  1
  In  In47  1  0.84986818  0.65700717  0.51360292  1
  In  In48  1  0.83935082  0.17078847  0.68282420  1
  In  In49  1  0.53071698  0.84598633  0.32987475  1
  In  In50  1  0.49838639  0.33057174  0.49333140  1
  In  In51  1  0.32647003  0.66485565  0.33825406  1
  In  In52  1  0.69603530  0.16086524  0.47978760  1
  In  In53  1  0.03194556  0.32623264  0.31019056  1
  In  In54  1  0.32695657  0.64746626  0.68281930  1
  In  In55  1  0.82390147  0.68377532  0.15468408  1
  In  In56  1  0.14388549  0.83621572  0.00174439  1
  In  In57  1  0.80979197  0.16759101  0.01334305  1
  In  In58  1  0.16914337  0.48638107  0.65341616  1
  In  In59  1  -0.01463829  -0.00706342  0.66220210  1
  In  In60  1  0.67683854  0.67115582  0.66995567  1
  In  In61  1  0.84227643  0.32701064  0.15892288  1
  In  In62  1  0.31660000  0.05683621  0.01970906  1
  In  In63  1  0.34897592  0.48583145  0.17360520  1
  In  In64  1  0.50647280  0.31512776  0.17314324  1
  In  In65  1  0.16922386  0.00379397  0.15358733  1
  In  In66  1  0.49047659  0.02735223  0.83834264  1
  In  In67  1  0.68382892  0.66195192  0.32544571  1
  In  In68  1  0.81459015  0.86230279  0.30441259  1
  In  In69  1  0.33911918  0.69077521  -0.00759076  1
  In  In70  1  0.66733272  0.33698782  0.31267087  1
  In  In71  1  0.34052091  0.32118442  0.34125157  1
  Te  Te72  1  0.07509856  0.07993616  0.07082470  1
  Te  Te73  1  0.06321060  0.07087603  0.37997389  1
  Te  Te74  1  0.06885161  0.09254236  0.74006801  1
  Te  Te75  1  0.07905110  0.41315462  0.09922802  1
  Te  Te76  1  0.10965577  0.38628820  0.42175441  1
  Te  Te77  1  0.08479413  0.40776338  0.75192009  1
  Te  Te78  1  0.05714253  0.73988433  0.07095988  1
  Te  Te79  1  0.09501629  0.73295911  0.42555382  1
  Te  Te80  1  0.05513122  0.79116484  0.79385794  1
  Te  Te81  1  0.41007501  0.10598828  0.12647526  1
  Te  Te82  1  0.42703321  0.09797934  0.39773175  1
  Te  Te83  1  0.42510218  0.10491227  0.72793364  1
  Te  Te84  1  0.42054593  0.40068578  0.07384145  1
  Te  Te85  1  0.43536151  0.42810599  0.39588577  1
  Te  Te86  1  0.40455869  0.43037592  0.75056971  1
  Te  Te87  1  0.44297824  0.75391505  0.08313014  1
  Te  Te88  1  0.42167981  0.76175389  0.40497866  1
  Te  Te89  1  0.40933647  0.76132439  0.75571583  1
  Te  Te90  1  0.77257398  0.05372211  0.10300089  1
  Te  Te91  1  0.77419469  0.07784888  0.38269404  1
  Te  Te92  1  0.73027909  0.09430597  0.76196555  1
  Te  Te93  1  0.77186713  0.41055141  0.05833613  1
  Te  Te94  1  0.75237385  0.41882927  0.40930767  1
  Te  Te95  1  0.71591982  0.36105794  0.77835176  1
  Te  Te96  1  0.76753721  0.78874918  0.06487617  1
  Te  Te97  1  0.77424746  0.75149507  0.41939789  1
  Te  Te98  1  0.77009847  0.75331064  0.75328823  1
  Te  Te99  1  0.08792295  0.22266858  0.22182757  1
  Te  Te100  1  0.08152096  0.22396079  0.56494648  1
  Te  Te101  1  0.10278457  0.26507287  0.92331155  1
  Te  Te102  1  0.09857686  0.56519357  0.25503347  1
  Te  Te103  1  0.07654140  0.58779166  0.58624060  1
  Te  Te104  1  0.06775302  0.58951233  0.92141230  1
  Te  Te105  1  0.06119265  0.91161739  0.21382155  1
  Te  Te106  1  0.08508213  0.91262339  0.57883912  1
  Te  Te107  1  0.06860647  0.91835118  0.90347198  1
  Te  Te108  1  0.42797919  0.22798904  0.26492413  1
  Te  Te109  1  0.39425335  0.27675817  0.58385723  1
  Te  Te110  1  0.40708985  0.23864514  0.93067621  1
  Te  Te111  1  0.42368773  0.59643788  0.24408258  1
  Te  Te112  1  0.41976817  0.60388632  0.57156105  1
  Te  Te113  1  0.42549985  0.59510970  0.91043318  1
  Te  Te114  1  0.41915990  0.92756200  0.25332295  1
  Te  Te115  1  0.43409836  0.92458852  0.56665727  1
  Te  Te116  1  0.41775419  0.91282731  0.90956009  1
  Te  Te117  1  0.74384821  0.23718051  0.23005845  1
  Te  Te118  1  0.74783924  0.25269518  0.59411964  1
  Te  Te119  1  0.75948003  0.26465475  0.90866936  1
  Te  Te120  1  0.76962716  0.57777687  0.24268482  1
  Te  Te121  1  0.75085230  0.56723143  0.58520299  1
  Te  Te122  1  0.72559943  0.60026990  0.90547075  1
  Te  Te123  1  0.73086119  0.95257859  0.22348644  1
  Te  Te124  1  0.76386682  0.90605443  0.60244384  1
  Te  Te125  1  0.73547312  0.92055223  0.91103149  1
  Te  Te126  1  0.27933609  0.19725290  0.07130892  1
  Te  Te127  1  0.23488669  0.24356357  0.40946122  1
  Te  Te128  1  0.23722843  0.26239008  0.76215822  1
  Te  Te129  1  0.27093267  0.58985755  0.08470340  1
  Te  Te130  1  0.24904575  0.55724450  0.41142464  1
  Te  Te131  1  0.22407889  0.57587552  0.76545582  1
  Te  Te132  1  0.26478623  0.90342191  0.07690517  1
  Te  Te133  1  0.24666644  0.90164166  0.42383715  1
  Te  Te134  1  0.22955290  0.94716297  0.76022578  1
  Te  Te135  1  0.61338601  0.22716684  0.11609881  1
  Te  Te136  1  0.58985777  0.24749651  0.40653901  1
  Te  Te137  1  0.57828813  0.26871646  0.74413912  1
  Te  Te138  1  0.61914961  0.55004026  0.11028482  1
  Te  Te139  1  0.57661772  0.59943320  0.40264380  1
  Te  Te140  1  0.59765020  0.57487675  0.75730120  1
  Te  Te141  1  0.56480582  0.93100296  0.08200383  1
  Te  Te142  1  0.60374662  0.93563946  0.42230956  1
  Te  Te143  1  0.58045983  0.92973514  0.75608200  1
  Te  Te144  1  0.92965498  0.22968540  0.08143333  1
  Te  Te145  1  0.92103729  0.26472277  0.40459219  1
  Te  Te146  1  0.92187919  0.26906029  0.76254438  1
  Te  Te147  1  0.90622033  0.59458261  0.06883243  1
  Te  Te148  1  0.91553384  0.57092235  0.40796555  1
  Te  Te149  1  0.90699682  0.58183087  0.75557433  1
  Te  Te150  1  0.88742474  0.89184433  0.07571607  1
  Te  Te151  1  0.91161473  0.92613501  0.40433535  1
  Te  Te152  1  0.93118797  0.89264998  0.76027429  1
  Te  Te153  1  0.22403750  0.09264784  0.25784179  1
  Te  Te154  1  0.26126843  0.06612899  0.57687470  1
  Te  Te155  1  0.24031870  0.05666386  0.89291914  1
  Te  Te156  1  0.25332413  0.38889203  0.23397877  1
  Te  Te157  1  0.26560485  0.39584426  0.58711578  1
  Te  Te158  1  0.24236270  0.40023911  0.93939365  1
  Te  Te159  1  0.22959715  0.75398124  0.25276933  1
  Te  Te160  1  0.23954333  0.75687457  0.61865733  1
  Te  Te161  1  0.22284239  0.73377739  0.90912533  1
  Te  Te162  1  0.63254295  0.04970710  0.29318524  1
  Te  Te163  1  0.58731471  0.10342362  0.56297634  1
  Te  Te164  1  0.55785432  0.10699377  0.94808893  1
  Te  Te165  1  0.58458893  0.42752761  0.23023868  1
  Te  Te166  1  0.58673887  0.41249706  0.58724779  1
  Te  Te167  1  0.57638442  0.41678939  0.92098090  1
  Te  Te168  1  0.61990474  0.77127424  0.23350258  1
  Te  Te169  1  0.58371856  0.74114445  0.57289784  1
  Te  Te170  1  0.62391890  0.70613330  0.94867772  1
  Te  Te171  1  0.86819870  0.12320438  0.27062173  1
  Te  Te172  1  0.88968266  0.07326801  0.57660151  1
  Te  Te173  1  0.90130865  0.08872521  0.91218623  1
  Te  Te174  1  0.91774065  0.41367475  0.25837629  1
  Te  Te175  1  0.91801143  0.43003479  0.59101927  1
  Te  Te176  1  0.89248933  0.42991235  0.93783187  1
  Te  Te177  1  0.91874567  0.76173200  0.25172760  1
  Te  Te178  1  0.93138930  0.74994861  0.59811622  1
  Te  Te179  1  0.88604515  0.78667063  0.95918852  1
