# generated using pymatgen
data_In2Te3
_symmetry_space_group_name_H-M   'P 1'
_cell_length_a   18.92816667
_cell_length_b   18.91943962
_cell_length_c   18.92974105
_cell_angle_alpha   89.92589376
_cell_angle_beta   90.10741314
_cell_angle_gamma   90.07947484
_symmetry_Int_Tables_number   1
_chemical_formula_structural   In2Te3
_chemical_formula_sum   'In72 Te108'
_cell_volume   6778.91128601
_cell_formula_units_Z   36
loop_
 _symmetry_equiv_pos_site_id
 _symmetry_equiv_pos_as_xyz
  1  'x, y, z'
loop_
 _atom_site_type_symbol
 _atom_site_label
 _atom_site_symmetry_multiplicity
 _atom_site_fract_x
 _atom_site_fract_y
 _atom_site_fract_z
 _atom_site_occupancy
  In  In0  1  0.81261428  0.83464156  0.00599960  1
  In  In1  1  0.47777100  0.12976709  0.65389748  1
  In  In2  1  0.64908174  0.33416114  0.01572503  1
  In  In3  1  0.83537347  0.32850885  0.85227028  1
  In  In4  1  0.18077192  0.33680114  0.18523619  1
  In  In5  1  0.16752264  0.16351146  0.65984741  1
  In  In6  1  0.17458367  0.86563107  0.32099605  1
  In  In7  1  0.18551045  0.47064076  0.32109741  1
  In  In8  1  0.51270574  0.65921025  0.49913386  1
  In  In9  1  0.83461094  0.00437893  0.85003452  1
  In  In10  1  -0.01890043  0.50767206  0.16678026  1
  In  In11  1  0.35445264  0.14056095  0.83243221  1
  In  In12  1  0.17787634  0.16918150  0.32452764  1
  In  In13  1  0.18072931  0.67428237  0.15370857  1
  In  In14  1  0.68687599  0.84081810  0.82658941  1
  In  In15  1  0.79413803  0.47593382  0.33456908  1
  In  In16  1  -0.02243314  0.66862025  0.65750647  1
  In  In17  1  0.00756960  0.84449513  0.18714948  1
  In  In18  1  0.01417867  0.31186962  0.31847928  1
  In  In19  1  0.49662597  -0.00540065  0.17476581  1
  In  In20  1  0.66282655  0.66796703  0.30010284  1
  In  In21  1  0.36654209  0.85364491  0.53735108  1
  In  In22  1  0.83510147  -0.00711784  0.46236451  1
  In  In23  1  0.83058499  0.49326092  0.00908471  1
  In  In24  1  0.54432176  0.48528420  0.29604147  1
  In  In25  1  0.65495814  -0.00409875  0.34136214  1
  In  In26  1  0.03009313  0.52670272  0.82383629  1
  In  In27  1  0.16811329  0.52900814  0.66641988  1
  In  In28  1  0.33820948  0.34910810  0.68065296  1
  In  In29  1  -0.00925954  0.15646882  0.84907757  1
  In  In30  1  0.35253831  0.35966747  0.02653834  1
  In  In31  1  0.48150111  0.67045963  0.85279456  1
  In  In32  1  0.16149315  0.87770361  0.00996104  1
  In  In33  1  0.84740888  0.83004335  0.33173758  1
  In  In34  1  0.36781352  0.80932992  0.15271955  1
  In  In35  1  0.03062565  0.83212955  0.84367793  1
  In  In36  1  0.80979353  0.44382776  0.55704738  1
  In  In37  1  0.64253990  0.33092108  0.65836745  1
  In  In38  1  -0.00777958  0.66128385  0.33349048  1
  In  In39  1  0.19588096  0.85469659  0.67633271  1
  In  In40  1  0.15204458  0.33629176  0.84948362  1
  In  In41  1  0.17313634  0.51169582  0.01716925  1
  In  In42  1  0.32817881  0.17169854  0.17549972  1
  In  In43  1  0.81463985  0.18208640  0.66529504  1
  In  In44  1  0.62984540  0.84208297  0.48526844  1
  In  In45  1  0.33019617  -0.00601712  -0.00668726  1
  In  In46  1  0.17989220  -0.00486238  0.51147938  1
  In  In47  1  -0.01803663  0.16382752  0.49264723  1
  In  In48  1  0.83311963  0.67324674  0.83486418  1
  In  In49  1  0.32405183  0.15704788  0.48132725  1
  In  In50  1  0.50054901  0.32698077  0.47788226  1
  In  In51  1  0.50068594  0.18105612  0.32526467  1
  In  In52  1  0.34402571  0.84414652  0.84711111  1
  In  In53  1  0.49035859  0.49653716  0.67646955  1
  In  In54  1  0.35575337  0.64529932  0.33545888  1
  In  In55  1  0.19539188  0.67999643  0.84102182  1
  In  In56  1  0.80617597  0.18151129  0.31376262  1
  In  In57  1  0.63689036  0.83331295  0.15136081  1
  In  In58  1  0.51394480  0.33260629  0.84325886  1
  In  In59  1  0.64863804  0.00385037  0.65768767  1
  In  In60  1  0.16247780  0.30568607  0.48911908  1
  In  In61  1  0.83431647  0.82576900  0.65355203  1
  In  In62  1  0.81883372  0.65354373  0.50012574  1
  In  In63  1  0.52915665  0.15239656  -0.01836132  1
  In  In64  1  0.59094764  0.66337134  0.04230757  1
  In  In65  1  0.82141129  0.01691091  0.17109377  1
  In  In66  1  0.78536142  0.17606538  0.01933126  1
  In  In67  1  0.01297596  -0.00288376  0.66978623  1
  In  In68  1  0.66525234  0.48752667  0.82057526  1
  In  In69  1  0.35012944  0.48766479  0.49461212  1
  In  In70  1  0.15976567  0.68410307  0.50552159  1
  In  In71  1  -0.03347854  0.32223702  0.02051686  1
  Te  Te72  1  0.13967462  0.03054847  0.03004575  1
  Te  Te73  1  0.09515548  0.08880550  0.42677140  1
  Te  Te74  1  0.09407294  0.08082891  0.76478163  1
  Te  Te75  1  0.07774926  0.41060224  0.09015785  1
  Te  Te76  1  0.08175438  0.41150574  0.41402308  1
  Te  Te77  1  0.08671802  0.41553111  0.73767117  1
  Te  Te78  1  0.08301590  0.76356334  0.08328712  1
  Te  Te79  1  0.08695628  0.76089154  0.39716187  1
  Te  Te80  1  0.08682015  0.73902138  0.73743468  1
  Te  Te81  1  0.41883238  0.09016254  0.07656981  1
  Te  Te82  1  0.42956850  0.08242647  0.41203175  1
  Te  Te83  1  0.44042065  0.03902279  0.76673365  1
  Te  Te84  1  0.46242134  0.45125443  0.06661241  1
  Te  Te85  1  0.42901541  0.42455189  0.38522289  1
  Te  Te86  1  0.41003315  0.43049667  0.78628665  1
  Te  Te87  1  0.44808538  0.71932260  0.06321330  1
  Te  Te88  1  0.41229314  0.74913025  0.42978440  1
  Te  Te89  1  0.41311787  0.75446446  0.75422712  1
  Te  Te90  1  0.70724869  0.08277141  0.10398869  1
  Te  Te91  1  0.73644316  0.09818414  0.42178734  1
  Te  Te92  1  0.74460821  0.08029270  0.75352235  1
  Te  Te93  1  0.75240907  0.40456465  0.09816823  1
  Te  Te94  1  0.73137220  0.39389202  0.44062857  1
  Te  Te95  1  0.75667160  0.39902839  0.74079054  1
  Te  Te96  1  0.72653261  0.73359235  0.08013037  1
  Te  Te97  1  0.74106109  0.75423045  0.41329271  1
  Te  Te98  1  0.74270731  0.73352105  0.72905793  1
  Te  Te99  1  0.08250551  0.22073437  0.21830581  1
  Te  Te100  1  0.06407080  0.24943406  0.59252044  1
  Te  Te101  1  0.07315969  0.24477182  0.94190789  1
  Te  Te102  1  0.09610164  0.57967698  0.24916798  1
  Te  Te103  1  0.06440908  0.58146446  0.56727971  1
  Te  Te104  1  0.09220900  0.60920087  0.93229266  1
  Te  Te105  1  0.09457826  0.95243943  0.23506962  1
  Te  Te106  1  0.08471924  0.89867206  0.58073878  1
  Te  Te107  1  0.04960829  0.94954845  0.93368851  1
  Te  Te108  1  0.43461022  0.26508402  0.22131144  1
  Te  Te109  1  0.40273617  0.25894342  0.57671692  1
  Te  Te110  1  0.41044652  0.25291674  0.92217656  1
  Te  Te111  1  0.45287036  0.59279347  0.23674314  1
  Te  Te112  1  0.40580338  0.58835204  0.59008828  1
  Te  Te113  1  0.40858628  0.60482772  0.96546424  1
  Te  Te114  1  0.43873904  0.88646986  0.25955601  1
  Te  Te115  1  0.41284353  0.96647979  0.61944062  1
  Te  Te116  1  0.44187607  0.91177649  0.93881944  1
  Te  Te117  1  0.74775849  0.27909052  0.21694783  1
  Te  Te118  1  0.74096657  0.26484190  0.56784928  1
  Te  Te119  1  0.71897918  0.25034009  0.90409170  1
  Te  Te120  1  0.75140625  0.57290534  0.23282156  1
  Te  Te121  1  0.74394429  0.56942167  0.59275065  1
  Te  Te122  1  0.74607765  0.57709163  0.91463334  1
  Te  Te123  1  0.73864763  0.90333563  0.25056711  1
  Te  Te124  1  0.75028796  0.91714767  0.56592407  1
  Te  Te125  1  0.72444537  0.94693819  0.94255067  1
  Te  Te126  1  0.24966364  0.25712239  0.07576174  1
  Te  Te127  1  0.27165443  0.26882552  0.39150267  1
  Te  Te128  1  0.25064939  0.24948717  0.75708367  1
  Te  Te129  1  0.28124604  0.59128998  0.08194121  1
  Te  Te130  1  0.24193793  0.58021122  0.42408893  1
  Te  Te131  1  0.26499079  0.57691992  0.76412764  1
  Te  Te132  1  0.27226318  0.91814377  0.11246673  1
  Te  Te133  1  0.27328103  0.91360689  0.42684601  1
  Te  Te134  1  0.23800832  0.93220017  0.79087236  1
  Te  Te135  1  0.54828242  0.25339338  0.08913065  1
  Te  Te136  1  0.60657998  0.26975833  0.38711099  1
  Te  Te137  1  0.56124604  0.23360675  0.74087018  1
  Te  Te138  1  0.57002409  0.54338081  0.13342052  1
  Te  Te139  1  0.60053021  0.57865165  0.40720870  1
  Te  Te140  1  0.57705875  0.59064924  0.75526394  1
  Te  Te141  1  0.55109849  0.91404570  0.06041319  1
  Te  Te142  1  0.54523015  0.94990544  0.43039972  1
  Te  Te143  1  0.58502132  0.89852122  0.73860698  1
  Te  Te144  1  0.88425792  0.24203442  0.11211206  1
  Te  Te145  1  0.90287742  0.26816010  0.41734253  1
  Te  Te146  1  0.92023647  0.25028213  0.75262210  1
  Te  Te147  1  0.92113720  0.59385894  0.06574974  1
  Te  Te148  1  0.90161725  0.56696543  0.40720534  1
  Te  Te149  1  0.90547455  0.57080983  0.74788362  1
  Te  Te150  1  0.90500380  0.91633555  0.09433886  1
  Te  Te151  1  0.94270643  0.92284541  0.39446587  1
  Te  Te152  1  0.91451170  0.90662527  0.75524646  1
  Te  Te153  1  0.26710289  0.07091503  0.26305236  1
  Te  Te154  1  0.27341161  0.07116268  0.60483916  1
  Te  Te155  1  0.24384621  0.09536668  0.92258870  1
  Te  Te156  1  0.28236553  0.43919135  0.21718015  1
  Te  Te157  1  0.24034423  0.41184222  0.57914518  1
  Te  Te158  1  0.25180810  0.42210361  0.92363226  1
  Te  Te159  1  0.26128781  0.74654189  0.26060895  1
  Te  Te160  1  0.26412698  0.74906252  0.59417622  1
  Te  Te161  1  0.25389525  0.76918313  0.94472071  1
  Te  Te162  1  0.59549125  0.09289497  0.23932309  1
  Te  Te163  1  0.59277302  0.10595227  0.56826384  1
  Te  Te164  1  0.62471398  0.06554591  0.91591123  1
  Te  Te165  1  0.62237326  0.36154310  0.25792802  1
  Te  Te166  1  0.57009185  0.42951879  0.56820819  1
  Te  Te167  1  0.57270003  0.44236255  0.93318124  1
  Te  Te168  1  0.56131720  0.77095973  0.26399902  1
  Te  Te169  1  0.57428362  0.75752673  0.59031444  1
  Te  Te170  1  0.60171658  0.74679498  0.91263796  1
  Te  Te171  1  0.90577963  0.08185591  0.27294761  1
  Te  Te172  1  0.90654849  0.07345663  0.59224660  1
  Te  Te173  1  0.89948411  0.09433782  0.95263998  1
  Te  Te174  1  0.91415409  0.40981138  0.25808905  1
  Te  Te175  1  0.93316816  0.36985481  0.53760093  1
  Te  Te176  1  0.93904578  0.42687454  0.90911755  1
  Te  Te177  1  0.90677218  0.73350292  0.23199472  1
  Te  Te178  1  0.92053523  0.75830602  0.54944567  1
  Te  Te179  1  0.91886471  0.76195972  0.92247208  1
