# generated using pymatgen
data_In2Te3
_symmetry_space_group_name_H-M   'P 1'
_cell_length_a   18.76961577
_cell_length_b   18.77320297
_cell_length_c   18.77157766
_cell_angle_alpha   89.86714424
_cell_angle_beta   90.06543089
_cell_angle_gamma   89.97173721
_symmetry_Int_Tables_number   1
_chemical_formula_structural   In2Te3
_chemical_formula_sum   'In72 Te108'
_cell_volume   6614.43919521
_cell_formula_units_Z   36
loop_
 _symmetry_equiv_pos_site_id
 _symmetry_equiv_pos_as_xyz
  1  'x, y, z'
loop_
 _atom_site_type_symbol
 _atom_site_label
 _atom_site_symmetry_multiplicity
 _atom_site_fract_x
 _atom_site_fract_y
 _atom_site_fract_z
 _atom_site_occupancy
  In  In0  1  0.34050453  0.19061338  0.83574896  1
  In  In1  1  0.69189563  0.49788007  0.15688219  1
  In  In2  1  0.49387257  0.14534842  0.32459707  1
  In  In3  1  0.83777818  0.81776610  0.66972743  1
  In  In4  1  0.01617650  0.00180680  0.67504494  1
  In  In5  1  0.13227202  0.65718360  0.17607290  1
  In  In6  1  0.67952394  0.50846386  0.50480271  1
  In  In7  1  0.37225796  0.68799672  0.68402560  1
  In  In8  1  0.65768442  0.16110438  0.50984689  1
  In  In9  1  0.15156138  0.65592342  0.82150522  1
  In  In10  1  -0.02763044  0.52526502  0.48146558  1
  In  In11  1  0.49271378  0.33583153  0.50742162  1
  In  In12  1  0.51468079  0.65909303  0.17514696  1
  In  In13  1  0.32363750  0.49156204  0.84194039  1
  In  In14  1  0.50663877  -0.02703316  0.82522336  1
  In  In15  1  -0.00585739  0.34589436  -0.00366081  1
  In  In16  1  0.84594414  0.16989508  -0.01868164  1
  In  In17  1  0.01077248  0.18877756  0.51371496  1
  In  In18  1  0.51501389  -0.00242585  0.16652680  1
  In  In19  1  0.18540058  0.17117464  0.32260118  1
  In  In20  1  0.33346120  0.48544185  0.16609826  1
  In  In21  1  0.15894596  0.31285918  0.14569443  1
  In  In22  1  0.80561218  0.17986380  0.33299268  1
  In  In23  1  0.82237570  0.35388942  0.49994678  1
  In  In24  1  0.00285037  -0.01733339  0.32039510  1
  In  In25  1  0.65469159  0.82106694  0.85233168  1
  In  In26  1  0.52591289  0.16040556  0.67122647  1
  In  In27  1  0.67991339  0.17226886  0.83297370  1
  In  In28  1  -0.00522689  0.80671767  0.51299084  1
  In  In29  1  0.81629545  -0.00619603  0.49605899  1
  In  In30  1  0.69228759  0.35310391  0.70766774  1
  In  In31  1  0.50047718  0.17969742  0.00318291  1
  In  In32  1  -0.01637528  0.82041680  0.84720253  1
  In  In33  1  0.82769580  0.66190802  0.15278410  1
  In  In34  1  0.15775006  0.18458841  0.00093462  1
  In  In35  1  0.67737307  -0.00216437  0.01259493  1
  In  In36  1  0.19528547  0.01373828  0.49357886  1
  In  In37  1  0.67619575  0.68113192  0.67289961  1
  In  In38  1  0.32728830  0.34467971  0.68053684  1
  In  In39  1  0.16645008  0.01588367  0.80606431  1
  In  In40  1  0.36818410  0.83271890  0.50494336  1
  In  In41  1  0.33229611  0.13885490  0.48739025  1
  In  In42  1  0.16430867  0.82381133  -0.00021163  1
  In  In43  1  0.15928668  0.47844020  0.65941123  1
  In  In44  1  0.68337146  0.35544607  0.34160552  1
  In  In45  1  0.66770305  0.82004192  0.15409644  1
  In  In46  1  -0.02880609  0.37700856  0.30611684  1
  In  In47  1  0.35088441  0.85248021  0.18007614  1
  In  In48  1  -0.01802104  0.85174935  0.15016192  1
  In  In49  1  0.15822539  0.83473308  0.69069712  1
  In  In50  1  0.15737754  0.66701090  0.51330639  1
  In  In51  1  -0.00496737  0.32880759  0.68541797  1
  In  In52  1  0.50726138  0.52567476  0.67256104  1
  In  In53  1  0.00645859  0.15917626  0.15048965  1
  In  In54  1  0.84475138  0.16753414  0.69736619  1
  In  In55  1  0.14636690  0.83123306  0.34724597  1
  In  In56  1  -0.02961521  0.50965034  0.82371653  1
  In  In57  1  0.14666609  0.50326505  0.33442700  1
  In  In58  1  0.15684529  0.48577467  -0.02120758  1
  In  In59  1  0.36347865  -0.00998729  -0.01940937  1
  In  In60  1  0.64860459  0.83017095  0.48034018  1
  In  In61  1  0.49573639  0.32297350  0.14785129  1
  In  In62  1  0.79934156  0.81460500  0.32839102  1
  In  In63  1  0.33803533  -0.00849782  0.64452000  1
  In  In64  1  0.84028321  0.83730662  -0.00545932  1
  In  In65  1  0.33819518  0.65837810  -0.00512703  1
  In  In66  1  0.32519984  0.68784460  0.35080608  1
  In  In67  1  0.52572909  0.51378319  0.35154348  1
  In  In68  1  0.35150534  0.32863475  0.34613979  1
  In  In69  1  0.53373631  0.48588654  -0.02397088  1
  In  In70  1  0.35348696  0.01533653  0.31392196  1
  In  In71  1  0.82529815  -0.01722392  0.15638115  1
  Te  Te72  1  0.09932480  0.07166494  0.07943561  1
  Te  Te73  1  0.08020509  0.08049056  0.41312897  1
  Te  Te74  1  0.06614780  0.11352408  0.75639614  1
  Te  Te75  1  0.07696409  0.43026158  0.09718395  1
  Te  Te76  1  0.06371360  0.41420598  0.42652947  1
  Te  Te77  1  0.08336235  0.41918621  0.77675608  1
  Te  Te78  1  0.05743125  0.74192702  0.07274169  1
  Te  Te79  1  0.06130862  0.72014645  0.40392701  1
  Te  Te80  1  0.05228808  0.73624625  0.73630288  1
  Te  Te81  1  0.41549266  0.08433923  0.08950174  1
  Te  Te82  1  0.44864481  0.04689214  0.43889642  1
  Te  Te83  1  0.41599435  0.08296479  0.75303829  1
  Te  Te84  1  0.41609193  0.42052315  0.05879650  1
  Te  Te85  1  0.41441609  0.44051508  0.42910782  1
  Te  Te86  1  0.43296883  0.42145867  0.75887529  1
  Te  Te87  1  0.41870708  0.74583712  0.09243283  1
  Te  Te88  1  0.44469320  0.74121829  0.41710823  1
  Te  Te89  1  0.46324074  0.75847664  0.78233264  1
  Te  Te90  1  0.75320867  0.10087572  0.09168950  1
  Te  Te91  1  0.72300124  0.07153801  0.40334758  1
  Te  Te92  1  0.73603562  0.07680399  0.73528554  1
  Te  Te93  1  0.79685157  0.43591279  0.06958635  1
  Te  Te94  1  0.78497474  0.45886951  0.38950581  1
  Te  Te95  1  0.78672066  0.44970484  0.77090358  1
  Te  Te96  1  0.73892492  0.73568697  0.04948666  1
  Te  Te97  1  0.76531892  0.73342403  0.44897827  1
  Te  Te98  1  0.76699936  0.74176590  0.78418141  1
  Te  Te99  1  0.06958323  0.25473378  0.26473733  1
  Te  Te100  1  0.09950710  0.27138337  0.59529712  1
  Te  Te101  1  0.05285025  0.23893697  0.91024671  1
  Te  Te102  1  0.04061645  0.57550263  0.25888107  1
  Te  Te103  1  0.06478678  0.58010872  0.59657742  1
  Te  Te104  1  0.06210870  0.59166961  0.92463869  1
  Te  Te105  1  0.10123673  0.91521854  0.22705296  1
  Te  Te106  1  0.09292903  0.91507332  0.56640701  1
  Te  Te107  1  0.09233301  0.91407167  0.89957359  1
  Te  Te108  1  0.40423401  0.23706528  0.23863373  1
  Te  Te109  1  0.41463876  0.23118470  0.58573568  1
  Te  Te110  1  0.43563803  0.27513615  0.90982068  1
  Te  Te111  1  0.40656603  0.58220213  0.25859631  1
  Te  Te112  1  0.41851578  0.59716591  0.57892788  1
  Te  Te113  1  0.43352560  0.58286232  0.90426728  1
  Te  Te114  1  0.45985408  0.90232631  0.27558440  1
  Te  Te115  1  0.44678702  0.89469687  0.61477875  1
  Te  Te116  1  0.42683266  0.87444710  0.90829233  1
  Te  Te117  1  0.74027596  0.26955766  0.23629769  1
  Te  Te118  1  0.74915909  0.25290933  0.59261201  1
  Te  Te119  1  0.74616081  0.26937671  0.92585839  1
  Te  Te120  1  0.72970110  0.60707695  0.25203064  1
  Te  Te121  1  0.76220586  0.56929351  0.61293203  1
  Te  Te122  1  0.70039940  0.54187736  0.88896493  1
  Te  Te123  1  0.72383639  0.92398117  0.25442345  1
  Te  Te124  1  0.73980885  0.90313032  0.58821825  1
  Te  Te125  1  0.75904350  0.93045943  0.90475514  1
  Te  Te126  1  0.26955213  0.25176468  0.07199350  1
  Te  Te127  1  0.24720289  0.25605553  0.43252232  1
  Te  Te128  1  0.23464145  0.26453581  0.76309853  1
  Te  Te129  1  0.23954575  0.57871940  0.08464509  1
  Te  Te130  1  0.24516795  0.57973059  0.42398914  1
  Te  Te131  1  0.25827929  0.58517174  0.73561329  1
  Te  Te132  1  0.26242653  0.91647701  0.07273003  1
  Te  Te133  1  0.26659208  0.90957658  0.40485156  1
  Te  Te134  1  0.26979529  0.91120712  0.75817927  1
  Te  Te135  1  0.60470847  0.26631841  0.06623762  1
  Te  Te136  1  0.57732488  0.25738573  0.40702445  1
  Te  Te137  1  0.57699418  0.26757714  0.76530708  1
  Te  Te138  1  0.59873111  0.58665605  0.07061617  1
  Te  Te139  1  0.59416007  0.60987543  0.43866026  1
  Te  Te140  1  0.60552339  0.58467174  0.76985060  1
  Te  Te141  1  0.57270473  0.89936075  0.06424897  1
  Te  Te142  1  0.55669747  0.92829077  0.41456105  1
  Te  Te143  1  0.60132396  0.90127927  0.73740072  1
  Te  Te144  1  0.90958462  0.25779915  0.09187421  1
  Te  Te145  1  0.91079527  0.25750876  0.41517415  1
  Te  Te146  1  0.91099348  0.26130824  0.78950615  1
  Te  Te147  1  0.91795373  0.55205161  0.10586410  1
  Te  Te148  1  0.86252433  0.59739303  0.41298706  1
  Te  Te149  1  0.86786631  0.57995275  0.74051984  1
  Te  Te150  1  0.93400375  0.96025993  0.04628069  1
  Te  Te151  1  0.91169017  0.90280365  0.41437421  1
  Te  Te152  1  0.91359988  0.92297571  0.75329780  1
  Te  Te153  1  0.24549485  0.07338593  0.23176037  1
  Te  Te154  1  0.23734862  0.10235154  0.60835573  1
  Te  Te155  1  0.25541023  0.07952082  0.91546896  1
  Te  Te156  1  0.24119768  0.40402051  0.25801631  1
  Te  Te157  1  0.26527524  0.42510534  0.57280703  1
  Te  Te158  1  0.24695754  0.38739699  0.91658051  1
  Te  Te159  1  0.24086019  0.74992757  0.23661567  1
  Te  Te160  1  0.25056144  0.76176749  0.58918127  1
  Te  Te161  1  0.24968620  0.74281648  0.90150445  1
  Te  Te162  1  0.59893552  0.10023954  0.23209619  1
  Te  Te163  1  0.58628045  0.05658246  0.58582955  1
  Te  Te164  1  0.57937672  0.07647260  0.91584237  1
  Te  Te165  1  0.57381445  0.42224642  0.24034991  1
  Te  Te166  1  0.59561260  0.40918506  0.59168397  1
  Te  Te167  1  0.64117671  0.40507351  0.90915225  1
  Te  Te168  1  0.60619392  0.73750910  0.26249984  1
  Te  Te169  1  0.57686726  0.75412051  0.58857062  1
  Te  Te170  1  0.54676939  0.73203373  0.90534985  1
  Te  Te171  1  0.90709599  0.08177137  0.25387521  1
  Te  Te172  1  0.91347897  0.08369763  0.57446498  1
  Te  Te173  1  0.90629507  0.05089970  0.92238412  1
  Te  Te174  1  0.87518085  0.44080887  0.20745070  1
  Te  Te175  1  0.92039157  0.42524403  0.58953097  1
  Te  Te176  1  0.89344166  0.44077582  0.93474389  1
  Te  Te177  1  0.91221303  0.75607171  0.24551373  1
  Te  Te178  1  0.89750752  0.71624490  0.57769960  1
  Te  Te179  1  0.90538553  0.72207204  0.92668665  1
