# generated using pymatgen
data_In2Te3
_symmetry_space_group_name_H-M   'P 1'
_cell_length_a   18.81250775
_cell_length_b   18.81491073
_cell_length_c   18.80879314
_cell_angle_alpha   90.08158387
_cell_angle_beta   90.00325976
_cell_angle_gamma   89.99605951
_symmetry_Int_Tables_number   1
_chemical_formula_structural   In2Te3
_chemical_formula_sum   'In72 Te108'
_cell_volume   6657.47190379
_cell_formula_units_Z   36
loop_
 _symmetry_equiv_pos_site_id
 _symmetry_equiv_pos_as_xyz
  1  'x, y, z'
loop_
 _atom_site_type_symbol
 _atom_site_label
 _atom_site_symmetry_multiplicity
 _atom_site_fract_x
 _atom_site_fract_y
 _atom_site_fract_z
 _atom_site_occupancy
  In  In0  1  0.49785008  0.00627221  0.49601326  1
  In  In1  1  -0.02422690  0.31920910  0.70178321  1
  In  In2  1  0.15610650  0.15551637  0.34125139  1
  In  In3  1  0.83559484  0.83087083  0.67689431  1
  In  In4  1  0.00651627  0.48446426  0.83962394  1
  In  In5  1  -0.00066175  0.83937067  0.85609601  1
  In  In6  1  0.83964662  0.50273251  0.30974162  1
  In  In7  1  0.33578864  0.01998323  0.67864941  1
  In  In8  1  0.01823462  0.51300369  0.50344145  1
  In  In9  1  -0.00112235  0.14833613  0.50460822  1
  In  In10  1  0.31604837  0.67390490  0.00762312  1
  In  In11  1  0.32941988  -0.01164596  0.00141384  1
  In  In12  1  0.67370542  0.48366831  0.16386597  1
  In  In13  1  0.83526177  0.67568542  0.83175221  1
  In  In14  1  -0.01714455  0.35101810  0.32680306  1
  In  In15  1  0.50987481  0.67410316  0.17337455  1
  In  In16  1  0.16060848  0.35354445  0.49796536  1
  In  In17  1  0.66835834  0.83521663  0.50757219  1
  In  In18  1  0.68400708  0.17959117  0.51024326  1
  In  In19  1  0.67449398  0.32978598  0.01267223  1
  In  In20  1  0.67942218  0.85931227  0.85892310  1
  In  In21  1  0.16295722  0.82608221  0.67087696  1
  In  In22  1  0.32617505  0.16170386  0.15426308  1
  In  In23  1  0.16822736  0.84145348  0.32057322  1
  In  In24  1  0.48975209  0.66290098  0.49710970  1
  In  In25  1  0.51138507  0.86475441  0.02431236  1
  In  In26  1  0.50094044  0.82579293  0.68541143  1
  In  In27  1  0.68863290  0.67723280  -0.01113022  1
  In  In28  1  0.68860193  0.50039846  0.83023158  1
  In  In29  1  0.31024411  0.67639003  0.32968594  1
  In  In30  1  0.18298398  0.66744591  0.83948874  1
  In  In31  1  -0.01379740  0.84135177  0.14450926  1
  In  In32  1  0.83288305  0.84664646  0.33548917  1
  In  In33  1  0.50434150  0.49301596  0.65247053  1
  In  In34  1  -0.03367869  0.16759637  0.16559657  1
  In  In35  1  0.31257924  0.49017800  0.83433059  1
  In  In36  1  0.16319858  -0.02208285  0.15796314  1
  In  In37  1  0.68456267  -0.01788262  0.68099119  1
  In  In38  1  0.50691567  0.48381552  0.32454819  1
  In  In39  1  0.17128963  0.17554643  0.67981145  1
  In  In40  1  0.67075475  0.14900557  0.85368907  1
  In  In41  1  0.83691016  0.68721343  0.50171876  1
  In  In42  1  -0.01623506  0.83952060  0.49250626  1
  In  In43  1  0.67438928  0.50532999  0.49020230  1
  In  In44  1  0.15432599  -0.00938167  0.83446919  1
  In  In45  1  0.32410395  0.82881703  0.48054460  1
  In  In46  1  -0.01619078  0.32644709  0.00925941  1
  In  In47  1  0.51081842  0.14385676  0.33137224  1
  In  In48  1  -0.02975649  0.02029117  -0.02308079  1
  In  In49  1  0.50009534  0.15930825  0.69659907  1
  In  In50  1  0.82463263  0.32303322  0.49222814  1
  In  In51  1  0.16614759  0.66023596  0.50444208  1
  In  In52  1  0.16038394  0.35381501  0.16406574  1
  In  In53  1  0.35467665  0.33612764  0.33734939  1
  In  In54  1  0.48415087  0.48542789  0.01839542  1
  In  In55  1  0.49877464  0.66395873  0.82025058  1
  In  In56  1  0.15904654  0.17326093  -0.00459562  1
  In  In57  1  0.68007928  0.00065498  0.30663610  1
  In  In58  1  0.17192246  0.33949457  0.84440541  1
  In  In59  1  0.51258314  0.16423003  0.01183335  1
  In  In60  1  0.33154911  0.49341201  0.13733920  1
  In  In61  1  0.79751280  0.17614302  0.29511532  1
  In  In62  1  0.83509954  0.49399003  0.67065021  1
  In  In63  1  0.83234945  0.66933879  0.15516661  1
  In  In64  1  0.03364685  0.63937933  0.29786892  1
  In  In65  1  0.34563762  0.14985056  0.50974688  1
  In  In66  1  0.00162819  0.66973863  0.00106994  1
  In  In67  1  0.49744491  0.86406308  0.27442460  1
  In  In68  1  0.51333333  0.34463036  0.49193421  1
  In  In69  1  0.31486723  0.34326363  0.66495950  1
  In  In70  1  -0.01607865  -0.00507578  0.66604370  1
  In  In71  1  0.50488749  0.30217380  0.84972001  1
  Te  Te72  1  0.07443266  0.08617311  0.08653453  1
  Te  Te73  1  0.07690239  0.05808822  0.41685910  1
  Te  Te74  1  0.07072531  0.08838683  0.75424908  1
  Te  Te75  1  0.06358499  0.43283497  0.08303375  1
  Te  Te76  1  0.09047244  0.43675527  0.39067928  1
  Te  Te77  1  0.09279604  0.41066725  0.73514523  1
  Te  Te78  1  0.08817922  0.75041396  0.09058219  1
  Te  Te79  1  0.07874696  0.74766468  0.41167140  1
  Te  Te80  1  0.07239721  0.74574708  0.76331295  1
  Te  Te81  1  0.42939537  0.05912697  0.10426001  1
  Te  Te82  1  0.39792173  0.06203489  0.39602601  1
  Te  Te83  1  0.41779686  0.07837761  0.78595191  1
  Te  Te84  1  0.42873993  0.38421594  0.10799841  1
  Te  Te85  1  0.40988474  0.43971149  0.43593171  1
  Te  Te86  1  0.42951468  0.40780692  0.75824797  1
  Te  Te87  1  0.41847596  0.75728994  0.08613616  1
  Te  Te88  1  0.43094471  0.76282769  0.39346597  1
  Te  Te89  1  0.39751641  0.74442207  0.75088872  1
  Te  Te90  1  0.74561869  0.05196808  0.06901725  1
  Te  Te91  1  0.75270750  0.08472163  0.41405258  1
  Te  Te92  1  0.76450005  0.07613075  0.76128086  1
  Te  Te93  1  0.77399449  0.42096281  0.07611599  1
  Te  Te94  1  0.74807637  0.41169930  0.39530996  1
  Te  Te95  1  0.77235432  0.39779770  0.76390650  1
  Te  Te96  1  0.74824591  0.77039245  0.08602821  1
  Te  Te97  1  0.73697898  0.74683886  0.40391352  1
  Te  Te98  1  0.72949321  0.75540595  0.75587947  1
  Te  Te99  1  0.08139398  0.24878023  0.24544272  1
  Te  Te100  1  0.07967875  0.25619427  0.58469589  1
  Te  Te101  1  0.06599227  0.24774962  0.90383251  1
  Te  Te102  1  0.09961508  0.55755187  0.19537900  1
  Te  Te103  1  0.08452178  0.59171408  0.60756690  1
  Te  Te104  1  0.09501039  0.57502059  0.92392308  1
  Te  Te105  1  0.05753147  0.92336835  0.25310743  1
  Te  Te106  1  0.08419125  0.91834319  0.57921156  1
  Te  Te107  1  0.08520519  0.92048750  0.95024675  1
  Te  Te108  1  0.42434549  0.23821302  0.24473902  1
  Te  Te109  1  0.42704056  0.25354600  0.58768227  1
  Te  Te110  1  0.40875595  0.24302820  0.94282895  1
  Te  Te111  1  0.41391543  0.58010890  0.24569330  1
  Te  Te112  1  0.40768227  0.58575961  0.59151966  1
  Te  Te113  1  0.41451151  0.58127805  0.92168258  1
  Te  Te114  1  0.39814610  0.94368532  0.20669243  1
  Te  Te115  1  0.41453250  0.91544440  0.58495308  1
  Te  Te116  1  0.42171264  0.91017459  0.91592774  1
  Te  Te117  1  0.71698848  0.27230081  0.21768542  1
  Te  Te118  1  0.77565818  0.24321178  0.60678059  1
  Te  Te119  1  0.76441972  0.23313320  0.93833551  1
  Te  Te120  1  0.73507086  0.59490377  0.24849667  1
  Te  Te121  1  0.75230194  0.59351658  0.58803928  1
  Te  Te122  1  0.78021787  0.57116425  0.92944671  1
  Te  Te123  1  0.76197788  0.91007873  0.22142865  1
  Te  Te124  1  0.77423390  0.92306681  0.57133480  1
  Te  Te125  1  0.75185367  0.95986299  0.95255268  1
  Te  Te126  1  0.24929543  0.26698051  0.07429222  1
  Te  Te127  1  0.25649048  0.24890898  0.42445534  1
  Te  Te128  1  0.27130744  0.24476851  0.77107264  1
  Te  Te129  1  0.22593795  0.59327482  0.09897886  1
  Te  Te130  1  0.24077989  0.57514584  0.40853487  1
  Te  Te131  1  0.24922887  0.58018175  0.73877415  1
  Te  Te132  1  0.24786024  0.88812492  0.07655800  1
  Te  Te133  1  0.24535744  0.93055458  0.41092026  1
  Te  Te134  1  0.25725096  0.91162495  0.75502894  1
  Te  Te135  1  0.61580788  0.22548264  0.10699887  1
  Te  Te136  1  0.59448911  0.24846230  0.40744905  1
  Te  Te137  1  0.60738183  0.25145177  0.75017299  1
  Te  Te138  1  0.58883912  0.58629031  0.07118730  1
  Te  Te139  1  0.58554349  0.59114541  0.40079099  1
  Te  Te140  1  0.59708503  0.58136236  0.73873862  1
  Te  Te141  1  0.62755204  0.95067890  0.07019088  1
  Te  Te142  1  0.58537804  0.91837294  0.40841969  1
  Te  Te143  1  0.57367016  0.92939600  0.77011469  1
  Te  Te144  1  0.87781940  0.23723471  0.07004704  1
  Te  Te145  1  0.91515405  0.23705018  0.40116909  1
  Te  Te146  1  0.91096046  0.20701875  0.76932818  1
  Te  Te147  1  0.92441034  0.57619797  0.08763724  1
  Te  Te148  1  0.91633803  0.58774502  0.41417358  1
  Te  Te149  1  0.92680404  0.58493914  0.75177445  1
  Te  Te150  1  0.89532746  0.94376394  0.08114566  1
  Te  Te151  1  0.90723485  0.94223909  0.42032717  1
  Te  Te152  1  0.90216478  0.92531456  0.77640500  1
  Te  Te153  1  0.24453905  0.07342714  0.24700821  1
  Te  Te154  1  0.23238685  0.07624996  0.57999200  1
  Te  Te155  1  0.24832999  0.08390768  0.91153555  1
  Te  Te156  1  0.25932791  0.42260807  0.25675216  1
  Te  Te157  1  0.24677114  0.44086747  0.58019744  1
  Te  Te158  1  0.24386362  0.42147369  0.94414755  1
  Te  Te159  1  0.24931562  0.76077045  0.22667555  1
  Te  Te160  1  0.26309503  0.74354925  0.58988393  1
  Te  Te161  1  0.25048217  0.77248523  0.91953233  1
  Te  Te162  1  0.59155171  0.08414354  0.22226481  1
  Te  Te163  1  0.58947385  0.08028933  0.59197769  1
  Te  Te164  1  0.58728471  0.05722950  0.93784504  1
  Te  Te165  1  0.58902062  0.38952273  0.24331242  1
  Te  Te166  1  0.61384517  0.40522064  0.58904392  1
  Te  Te167  1  0.58533748  0.42254340  0.91768756  1
  Te  Te168  1  0.60323724  0.77357595  0.23087215  1
  Te  Te169  1  0.58529475  0.73980855  0.59103996  1
  Te  Te170  1  0.57436024  0.75537777  0.92026157  1
  Te  Te171  1  0.89625272  0.07389440  0.25424009  1
  Te  Te172  1  0.89717635  0.09527924  0.59805477  1
  Te  Te173  1  0.89541099  0.12318913  0.90073377  1
  Te  Te174  1  0.90237727  0.40593472  0.21675218  1
  Te  Te175  1  0.92494970  0.41024493  0.57234093  1
  Te  Te176  1  0.90515610  0.40127080  0.90572213  1
  Te  Te177  1  0.92751591  0.74242970  0.26089120  1
  Te  Te178  1  0.93607054  0.74389321  0.60267240  1
  Te  Te179  1  0.89573432  0.76578204  0.93833194  1
