# generated using pymatgen
data_In2Te3
_symmetry_space_group_name_H-M   'P 1'
_cell_length_a   18.76681778
_cell_length_b   18.75862222
_cell_length_c   18.76908870
_cell_angle_alpha   90.00930071
_cell_angle_beta   90.13908903
_cell_angle_gamma   90.01416080
_symmetry_Int_Tables_number   1
_chemical_formula_structural   In2Te3
_chemical_formula_sum   'In72 Te108'
_cell_volume   6607.44356358
_cell_formula_units_Z   36
loop_
 _symmetry_equiv_pos_site_id
 _symmetry_equiv_pos_as_xyz
  1  'x, y, z'
loop_
 _atom_site_type_symbol
 _atom_site_label
 _atom_site_symmetry_multiplicity
 _atom_site_fract_x
 _atom_site_fract_y
 _atom_site_fract_z
 _atom_site_occupancy
  In  In0  1  0.50344429  0.67650711  0.83501103  1
  In  In1  1  0.66760242  0.84494359  0.83360356  1
  In  In2  1  0.15548035  -0.00477397  0.51589569  1
  In  In3  1  0.33939945  0.17864167  0.16686076  1
  In  In4  1  0.48838613  0.00164256  0.50890285  1
  In  In5  1  0.18042298  0.51445073  0.66819064  1
  In  In6  1  0.32901707  0.00782437  0.36394041  1
  In  In7  1  0.83952754  0.51332018  -0.01836891  1
  In  In8  1  0.69886393  0.31341253  0.32023052  1
  In  In9  1  -0.01067150  0.67326506  0.67303611  1
  In  In10  1  0.64428869  0.30721749  0.71210174  1
  In  In11  1  0.80685802  -0.02495879  0.49595482  1
  In  In12  1  0.67959067  0.82056984  0.13681409  1
  In  In13  1  0.15022210  0.67332404  0.14429714  1
  In  In14  1  0.17411705  0.17506550  -0.00146362  1
  In  In15  1  0.32487239  0.66350563  -0.02395321  1
  In  In16  1  0.14682002  0.51142944  0.00399571  1
  In  In17  1  0.35410189  0.35766765  0.65971472  1
  In  In18  1  0.34429705  0.66500839  0.34323442  1
  In  In19  1  0.00343870  -0.01850102  0.66810461  1
  In  In20  1  0.83246425  0.33463773  0.86200674  1
  In  In21  1  0.83278899  0.00451096  0.85073579  1
  In  In22  1  0.17063904  0.49306019  0.33231648  1
  In  In23  1  0.31151629  0.33502549  0.32864597  1
  In  In24  1  -0.02745056  0.15011568  0.84807868  1
  In  In25  1  0.66516210  0.51647144  0.49962422  1
  In  In26  1  0.52656722  0.52234652  0.33689636  1
  In  In27  1  0.80471690  0.66694517  0.83261047  1
  In  In28  1  0.00667574  0.49278409  0.16654727  1
  In  In29  1  0.35976831  0.16318107  0.83378163  1
  In  In30  1  0.14656090  0.84381845  0.33329296  1
  In  In31  1  0.65694551  0.66274226  0.35526315  1
  In  In32  1  0.81931136  0.49895888  0.68501157  1
  In  In33  1  0.49806050  0.32361086  0.14555986  1
  In  In34  1  0.84076537  0.32074202  0.16666960  1
  In  In35  1  0.85707379  0.31502997  0.49270702  1
  In  In36  1  0.86120225  0.81737748  0.31541811  1
  In  In37  1  0.15925532  0.33184439  0.82760943  1
  In  In38  1  0.67617809  0.51286732  0.16403058  1
  In  In39  1  0.66362059  0.15354387  0.50597927  1
  In  In40  1  0.02063456  0.50525659  0.48662354  1
  In  In41  1  0.16786629  0.17772689  0.33517079  1
  In  In42  1  0.48711892  0.82390885  0.35833961  1
  In  In43  1  0.52757742  -0.01148460  0.16928913  1
  In  In44  1  0.33597622  -0.02121128  0.00777622  1
  In  In45  1  0.00270011  0.15498732  0.47335370  1
  In  In46  1  0.81241967  0.14789789  0.66882815  1
  In  In47  1  0.53997193  0.14168030  -0.01856821  1
  In  In48  1  0.83200697  0.51373345  0.31204606  1
  In  In49  1  0.64719677  0.34302306  -0.02284181  1
  In  In50  1  0.83171786  0.65545354  0.50707149  1
  In  In51  1  0.33536938  0.51252933  0.51401735  1
  In  In52  1  0.33083812  0.81492089  0.83747750  1
  In  In53  1  -0.01077345  0.81524081  0.84028895  1
  In  In54  1  0.32357806  0.84368808  0.15668033  1
  In  In55  1  0.34181807  0.51346368  0.81123558  1
  In  In56  1  0.00037265  0.67128356  -0.00856681  1
  In  In57  1  0.64933328  0.83211058  0.53680784  1
  In  In58  1  -0.00392167  0.16948880  0.17278844  1
  In  In59  1  0.16887004  0.15950197  0.65425634  1
  In  In60  1  0.85043306  -0.00663879  0.13151158  1
  In  In61  1  0.34062978  -0.00332309  0.68362771  1
  In  In62  1  0.50845607  0.51965653  0.67343705  1
  In  In63  1  -0.00091839  0.82367285  0.49322579  1
  In  In64  1  0.01401374  0.33518124  0.66462439  1
  In  In65  1  0.50680731  0.65426513  0.15622825  1
  In  In66  1  0.67848180  0.01469018  0.32110433  1
  In  In67  1  0.14939829  -0.01880806  0.16745936  1
  In  In68  1  0.51434785  0.86536809  0.00050891  1
  In  In69  1  0.14933084  -0.03348511  0.85649493  1
  In  In70  1  0.49820803  0.32904182  0.50482194  1
  In  In71  1  0.33859008  0.33662656  0.00816067  1
  Te  Te72  1  0.08204750  0.08054219  0.07302431  1
  Te  Te73  1  0.08983161  0.05835820  0.39298885  1
  Te  Te74  1  0.08390636  0.08407826  0.75643096  1
  Te  Te75  1  0.07393695  0.40303913  0.07069377  1
  Te  Te76  1  0.08487214  0.39877832  0.40936553  1
  Te  Te77  1  0.07848748  0.43996459  0.75544818  1
  Te  Te78  1  0.05161974  0.77442190  0.09167595  1
  Te  Te79  1  0.08015734  0.73490591  0.40808014  1
  Te  Te80  1  0.08910568  0.75203139  0.75114429  1
  Te  Te81  1  0.42273110  0.08425766  0.07686482  1
  Te  Te82  1  0.43421116  0.09856136  0.41131870  1
  Te  Te83  1  0.44253720  0.10494721  0.72233553  1
  Te  Te84  1  0.42330650  0.43300289  0.08350059  1
  Te  Te85  1  0.42318454  0.43099423  0.41745874  1
  Te  Te86  1  0.44938709  0.40183158  0.77089330  1
  Te  Te87  1  0.41755149  0.75803727  0.07224332  1
  Te  Te88  1  0.39966744  0.74978808  0.45706057  1
  Te  Te89  1  0.42483652  0.75760174  0.73826241  1
  Te  Te90  1  0.74541178  0.06491062  0.05247427  1
  Te  Te91  1  0.77097545  0.09720080  0.41313870  1
  Te  Te92  1  0.72979760  0.08992054  0.77875816  1
  Te  Te93  1  0.75395343  0.41350299  0.07769534  1
  Te  Te94  1  0.75729665  0.42587726  0.41809780  1
  Te  Te95  1  0.73132202  0.41538335  0.77690884  1
  Te  Te96  1  0.79067263  0.74747608  0.07331480  1
  Te  Te97  1  0.75268995  0.76329084  0.42220438  1
  Te  Te98  1  0.74274253  0.76051429  0.73619594  1
  Te  Te99  1  0.09269171  0.26118915  0.24112088  1
  Te  Te100  1  0.08795475  0.25031837  0.56169144  1
  Te  Te101  1  0.06758324  0.25107461  0.91781866  1
  Te  Te102  1  0.08150282  0.59334669  0.25375555  1
  Te  Te103  1  0.09074538  0.60350433  0.58021523  1
  Te  Te104  1  0.09726799  0.60452467  0.90123168  1
  Te  Te105  1  0.04581370  0.90317324  0.24059599  1
  Te  Te106  1  0.09532125  0.88154373  0.59850624  1
  Te  Te107  1  0.02625894  0.93027043  0.93310572  1
  Te  Te108  1  0.42836647  0.25591425  0.26282325  1
  Te  Te109  1  0.42005739  0.24230174  0.59462313  1
  Te  Te110  1  0.43759780  0.24914118  0.93121199  1
  Te  Te111  1  0.41351604  0.57113007  0.24422350  1
  Te  Te112  1  0.38823708  0.59719478  0.62683110  1
  Te  Te113  1  0.43156571  0.57075296  0.92223592  1
  Te  Te114  1  0.41413034  0.92140126  0.25313943  1
  Te  Te115  1  0.41787423  0.89787560  0.59548881  1
  Te  Te116  1  0.42399021  0.93177212  0.89219924  1
  Te  Te117  1  0.75833500  0.21351164  0.22986062  1
  Te  Te118  1  0.74819779  0.26489946  0.58853787  1
  Te  Te119  1  0.73635632  0.23911137  0.91982932  1
  Te  Te120  1  0.75152635  0.62306533  0.23984811  1
  Te  Te121  1  0.73292025  0.60011323  0.60906601  1
  Te  Te122  1  0.72088320  0.57415480  0.91538008  1
  Te  Te123  1  0.75624457  0.90913119  0.24062354  1
  Te  Te124  1  0.72890344  0.93217297  0.61408880  1
  Te  Te125  1  0.76224528  0.90379041  0.93573233  1
  Te  Te126  1  0.23560151  0.26985605  0.10168423  1
  Te  Te127  1  0.26578811  0.23700207  0.42814747  1
  Te  Te128  1  0.25692648  0.24904888  0.74421687  1
  Te  Te129  1  0.25702504  0.58106872  0.08563462  1
  Te  Te130  1  0.23918660  0.59385249  0.42801806  1
  Te  Te131  1  0.26058105  0.61777640  0.74197958  1
  Te  Te132  1  0.21879633  0.89491504  0.05764943  1
  Te  Te133  1  0.25476519  0.89423677  0.43495563  1
  Te  Te134  1  0.23655518  0.90556554  0.74967778  1
  Te  Te135  1  0.60452998  0.23607214  0.08407226  1
  Te  Te136  1  0.59211972  0.25088943  0.41216847  1
  Te  Te137  1  0.56102125  0.20098692  0.76966032  1
  Te  Te138  1  0.59865788  0.58761782  0.06209013  1
  Te  Te139  1  0.54982715  0.61774715  0.46165792  1
  Te  Te140  1  0.60200876  0.58648564  0.76670743  1
  Te  Te141  1  0.63024832  0.95681586  0.05913891  1
  Te  Te142  1  0.59285659  0.92094747  0.41325164  1
  Te  Te143  1  0.55642337  0.92886156  0.78009064  1
  Te  Te144  1  0.91952706  0.24420083  0.06653393  1
  Te  Te145  1  0.92288815  0.24232024  0.38400728  1
  Te  Te146  1  0.91133830  0.25109403  0.74108630  1
  Te  Te147  1  0.91385562  0.58928290  0.09266665  1
  Te  Te148  1  0.92450491  0.59493089  0.40391606  1
  Te  Te149  1  0.91647585  0.58038126  0.77009599  1
  Te  Te150  1  0.95184379  0.90064106  0.07358879  1
  Te  Te151  1  0.92102652  0.92497338  0.40940947  1
  Te  Te152  1  0.90242254  0.90717943  0.75076887  1
  Te  Te153  1  0.25639877  0.06952692  0.23739508  1
  Te  Te154  1  0.26957454  0.07921523  0.57326583  1
  Te  Te155  1  0.25313089  0.07917962  0.90628007  1
  Te  Te156  1  0.25632468  0.42825145  0.23008329  1
  Te  Te157  1  0.23897399  0.40874533  0.57427298  1
  Te  Te158  1  0.25697079  0.42083952  0.90594775  1
  Te  Te159  1  0.25001909  0.74841959  0.25031631  1
  Te  Te160  1  0.29464684  0.80755755  0.56221671  1
  Te  Te161  1  0.22453765  0.76061471  0.92770457  1
  Te  Te162  1  0.58285878  0.10048846  0.24748017  1
  Te  Te163  1  0.59913024  0.05566835  0.59565575  1
  Te  Te164  1  0.59088846  0.05240107  0.86899994  1
  Te  Te165  1  0.59642630  0.41471602  0.25263013  1
  Te  Te166  1  0.59387660  0.41348416  0.59185556  1
  Te  Te167  1  0.54365782  0.40942554  0.89720175  1
  Te  Te168  1  0.57568297  0.75758073  0.24760414  1
  Te  Te169  1  0.56482604  0.72167712  0.57760492  1
  Te  Te170  1  0.59212994  0.75284008  0.93664647  1
  Te  Te171  1  0.90360365  0.07634435  0.24242799  1
  Te  Te172  1  0.92088648  0.07965561  0.58264438  1
  Te  Te173  1  0.87986966  0.10532661  0.95868413  1
  Te  Te174  1  0.92545355  0.40517586  0.26386350  1
  Te  Te175  1  0.91470590  0.43310539  0.58316095  1
  Te  Te176  1  0.93701139  0.42365406  0.91590678  1
  Te  Te177  1  0.89067328  0.72220662  0.20655421  1
  Te  Te178  1  0.89723211  0.76482950  0.59123572  1
  Te  Te179  1  0.87436361  0.75609932  0.93928954  1
