# generated using pymatgen
data_In2Te3
_symmetry_space_group_name_H-M   'P 1'
_cell_length_a   18.95404378
_cell_length_b   18.95462092
_cell_length_c   18.97371377
_cell_angle_alpha   89.92516050
_cell_angle_beta   89.98604910
_cell_angle_gamma   89.75662997
_symmetry_Int_Tables_number   1
_chemical_formula_structural   In2Te3
_chemical_formula_sum   'In72 Te108'
_cell_volume   6816.55631298
_cell_formula_units_Z   36
loop_
 _symmetry_equiv_pos_site_id
 _symmetry_equiv_pos_as_xyz
  1  'x, y, z'
loop_
 _atom_site_type_symbol
 _atom_site_label
 _atom_site_symmetry_multiplicity
 _atom_site_fract_x
 _atom_site_fract_y
 _atom_site_fract_z
 _atom_site_occupancy
  In  In0  1  0.21133274  0.69765959  0.50111603  1
  In  In1  1  0.63305743  0.13497805  0.48610366  1
  In  In2  1  0.49384299  0.50854806  0.67418182  1
  In  In3  1  0.68048927  0.17011616  0.81206262  1
  In  In4  1  0.00804754  0.49867620  0.18497491  1
  In  In5  1  0.83971890  0.82164274  -0.01447885  1
  In  In6  1  0.66906507  0.15815175  0.16806624  1
  In  In7  1  0.33013299  0.33384041  0.02947984  1
  In  In8  1  0.34699414  0.50253494  0.18533308  1
  In  In9  1  0.46737769  0.84443771  0.29465403  1
  In  In10  1  0.32247325  0.49323679  0.82228688  1
  In  In11  1  0.01992293  0.66941822  0.34571050  1
  In  In12  1  0.83540894  0.31161132  0.46346892  1
  In  In13  1  0.17041376  0.30067957  0.16963061  1
  In  In14  1  0.36215981  0.66794604  0.00800060  1
  In  In15  1  0.66186521  0.54454983  0.16061716  1
  In  In16  1  0.66994952  0.66250917  0.00386205  1
  In  In17  1  0.03950086  0.88606848  0.49564875  1
  In  In18  1  0.81295323  0.49978189  0.30950924  1
  In  In19  1  0.83428491  0.67333921  0.16167800  1
  In  In20  1  0.83461268  0.16586258  0.65304543  1
  In  In21  1  0.83496193  0.15873193  0.33537049  1
  In  In22  1  0.67707631  -0.00795954  0.00638880  1
  In  In23  1  0.84610555  0.84446877  0.65956043  1
  In  In24  1  0.04027426  -0.00182906  0.68075801  1
  In  In25  1  0.07649519  0.02313305  -0.01555535  1
  In  In26  1  -0.02263336  0.50392886  0.53022218  1
  In  In27  1  0.82552004  0.00505626  0.50276365  1
  In  In28  1  0.16589972  0.32269505  0.50061096  1
  In  In29  1  0.29780515  0.27527631  0.68504875  1
  In  In30  1  0.50506889  0.84365924  0.02325588  1
  In  In31  1  0.18712721  0.50168162  0.01155148  1
  In  In32  1  0.82710667  0.67307741  0.50183286  1
  In  In33  1  0.85933537  0.01677616  0.83205429  1
  In  In34  1  0.34815907  0.48539105  0.50280828  1
  In  In35  1  0.45261830  0.70223740  0.47148289  1
  In  In36  1  0.49171811  0.14563855  0.02506431  1
  In  In37  1  0.89510402  0.30190013  0.87940314  1
  In  In38  1  -0.00317042  0.68271401  0.66605633  1
  In  In39  1  0.02002397  0.85379010  0.15430333  1
  In  In40  1  0.69585992  0.34343820  -0.01833949  1
  In  In41  1  0.83546538  0.83220963  0.34562220  1
  In  In42  1  0.83253204  -0.01787630  0.17820107  1
  In  In43  1  0.51698099  0.33859686  0.17625512  1
  In  In44  1  0.17469862  0.66565747  0.83275170  1
  In  In45  1  0.02112114  0.30925076  0.32874961  1
  In  In46  1  0.84464378  0.51879564  0.66279300  1
  In  In47  1  0.84503586  0.46071969  0.00037704  1
  In  In48  1  0.14930187  0.51021980  0.65962052  1
  In  In49  1  0.69363691  0.51112867  0.82195737  1
  In  In50  1  0.02088405  0.32941220  0.66765243  1
  In  In51  1  0.29835361  0.02897095  0.66509881  1
  In  In52  1  0.66303357  0.32293813  0.33517659  1
  In  In53  1  0.49902801  0.68709784  0.84683369  1
  In  In54  1  0.47266167  0.13917689  0.62862059  1
  In  In55  1  0.29747632  0.14439972  0.15392236  1
  In  In56  1  0.35545038  0.84405972  0.84423836  1
  In  In57  1  0.15028557  0.51628265  0.33066367  1
  In  In58  1  0.47190010  0.85401683  0.66817234  1
  In  In59  1  0.48506621  -0.02324054  0.47166649  1
  In  In60  1  0.21945370  0.07638970  0.83694002  1
  In  In61  1  0.31926266  0.30314047  0.34627241  1
  In  In62  1  0.66848540  0.70873616  0.64900985  1
  In  In63  1  0.49261111  0.31813482  0.52542444  1
  In  In64  1  0.50892042  0.00041724  0.81690512  1
  In  In65  1  0.48376384  0.53813214  0.33711222  1
  In  In66  1  0.46898721  0.13071704  0.30250938  1
  In  In67  1  0.02332829  0.69785721  0.02313733  1
  In  In68  1  0.56095618  0.51377274  -0.00359297  1
  In  In69  1  0.16838067  -0.00186789  0.19025637  1
  In  In70  1  0.67977715  0.34598504  0.66025921  1
  In  In71  1  0.48905013  0.30015402  0.82613456  1
  Te  Te72  1  0.06743987  0.08481649  0.11919857  1
  Te  Te73  1  0.12654882  0.01121985  0.47489002  1
  Te  Te74  1  0.08924709  0.10667884  0.76937321  1
  Te  Te75  1  0.09745991  0.41418823  0.09601766  1
  Te  Te76  1  0.07119348  0.42285576  0.42649449  1
  Te  Te77  1  0.08982933  0.42079363  0.75860942  1
  Te  Te78  1  0.12579942  0.79048772  0.07287768  1
  Te  Te79  1  0.10716002  0.76914088  0.41598232  1
  Te  Te80  1  0.10032756  0.75637560  0.74173937  1
  Te  Te81  1  0.40632248  0.05353665  0.10445056  1
  Te  Te82  1  0.39770367  0.08343909  0.42022760  1
  Te  Te83  1  0.40779615  0.09583958  0.75654453  1
  Te  Te84  1  0.43886478  0.43335081  0.07853827  1
  Te  Te85  1  0.42219772  0.40404181  0.39824668  1
  Te  Te86  1  0.40774784  0.39267882  0.73497944  1
  Te  Te87  1  0.38262470  0.79017251  0.09131680  1
  Te  Te88  1  0.36066153  0.80329168  0.40310853  1
  Te  Te89  1  0.40305794  0.73991161  0.74377180  1
  Te  Te90  1  0.76870377  0.08753671  0.07945710  1
  Te  Te91  1  0.73198651  0.06508752  0.39654742  1
  Te  Te92  1  0.75143508  0.06553242  0.73025210  1
  Te  Te93  1  0.73649874  0.42451173  0.10455064  1
  Te  Te94  1  0.73988142  0.42352709  0.41927584  1
  Te  Te95  1  0.77471080  0.40128103  0.76044197  1
  Te  Te96  1  0.74146556  0.76736736  0.08824389  1
  Te  Te97  1  0.73794516  0.77576300  0.44330543  1
  Te  Te98  1  0.77837552  0.73940173  0.73826468  1
  Te  Te99  1  0.04689637  0.22742861  0.20765563  1
  Te  Te100  1  0.09463402  0.22645991  0.58915010  1
  Te  Te101  1  0.00813804  0.23831429  0.95830265  1
  Te  Te102  1  0.09879590  0.61508471  0.22746209  1
  Te  Te103  1  0.09117481  0.60400383  0.55568259  1
  Te  Te104  1  0.09274010  0.59068679  0.93442066  1
  Te  Te105  1  0.08328835  0.90804461  0.27852656  1
  Te  Te106  1  0.12525964  0.87861324  0.62296497  1
  Te  Te107  1  0.13181569  0.92262818  0.88958015  1
  Te  Te108  1  0.40162947  0.25107294  0.22123680  1
  Te  Te109  1  0.37367603  0.23074253  0.55859708  1
  Te  Te110  1  0.40671985  0.23692806  0.93560426  1
  Te  Te111  1  0.39933589  0.63320665  0.25285319  1
  Te  Te112  1  0.41291154  0.59591686  0.58094616  1
  Te  Te113  1  0.42696709  0.56284224  0.90790758  1
  Te  Te114  1  0.37861796  0.94607533  0.22705741  1
  Te  Te115  1  0.37439857  0.92908488  0.57726708  1
  Te  Te116  1  0.42892464  0.94178694  0.93128641  1
  Te  Te117  1  0.76003284  0.25505164  0.24197149  1
  Te  Te118  1  0.73119861  0.23491201  0.55595826  1
  Te  Te119  1  0.76687118  0.22384529  0.92178579  1
  Te  Te120  1  0.73609756  0.62448559  0.26752160  1
  Te  Te121  1  0.73603587  0.58304079  0.58296092  1
  Te  Te122  1  0.77221273  0.58307890  0.92482274  1
  Te  Te123  1  0.74249965  0.88859951  0.24645844  1
  Te  Te124  1  0.74422222  0.89829305  0.56483068  1
  Te  Te125  1  0.76082019  0.92222012  0.90127795  1
  Te  Te126  1  0.22443744  0.22587169  0.04776377  1
  Te  Te127  1  0.19889694  0.22871890  0.38900929  1
  Te  Te128  1  0.21116779  0.22380558  0.79208171  1
  Te  Te129  1  0.26230330  0.59758068  0.09958436  1
  Te  Te130  1  0.26318630  0.57703542  0.41320153  1
  Te  Te131  1  0.25774443  0.59148241  0.72739684  1
  Te  Te132  1  0.26342748  0.88687587  0.15054143  1
  Te  Te133  1  0.20845484  0.95348554  0.36176287  1
  Te  Te134  1  0.25277744  0.93092908  0.77328263  1
  Te  Te135  1  0.59076909  0.25928685  0.06851580  1
  Te  Te136  1  0.55750838  0.23797716  0.40251554  1
  Te  Te137  1  0.58042870  0.23790157  0.71858648  1
  Te  Te138  1  0.54974802  0.63192058  0.10098714  1
  Te  Te139  1  0.56581251  0.61672814  0.42727295  1
  Te  Te140  1  0.58991879  0.59823020  0.75323476  1
  Te  Te141  1  0.58888288  0.93167523  0.10675209  1
  Te  Te142  1  0.57184124  0.90712842  0.37822536  1
  Te  Te143  1  0.58548028  0.89418172  0.75294456  1
  Te  Te144  1  0.91361095  0.32418498  0.03959009  1
  Te  Te145  1  0.94795767  0.21828824  0.42607660  1
  Te  Te146  1  0.93138750  0.23265027  0.74512891  1
  Te  Te147  1  0.91838887  0.57413878  0.08667933  1
  Te  Te148  1  0.91159176  0.57801656  0.40385177  1
  Te  Te149  1  0.94208099  0.57751777  0.75240312  1
  Te  Te150  1  0.91929222  0.92238927  0.06543020  1
  Te  Te151  1  0.92335602  0.93760620  0.40845968  1
  Te  Te152  1  0.94099555  0.91198121  0.75818125  1
  Te  Te153  1  0.23424564  0.09920088  0.28225987  1
  Te  Te154  1  0.20310645  0.10031758  0.57779728  1
  Te  Te155  1  0.22929825  0.01001101  0.97136680  1
  Te  Te156  1  0.24447512  0.41233617  0.25691232  1
  Te  Te157  1  0.25152398  0.40920208  0.59142862  1
  Te  Te158  1  0.24890612  0.40118249  0.91611940  1
  Te  Te159  1  0.28158394  0.71483047  0.31288391  1
  Te  Te160  1  0.25743606  0.80834659  0.58632096  1
  Te  Te161  1  0.26597747  0.74863624  0.92158694  1
  Te  Te162  1  0.58324268  0.06333783  0.23975147  1
  Te  Te163  1  0.57640285  0.03996314  0.58704918  1
  Te  Te164  1  0.59123498  0.09558452  0.91310744  1
  Te  Te165  1  0.58810058  0.44398189  0.25924235  1
  Te  Te166  1  0.58180257  0.42923779  0.57775264  1
  Te  Te167  1  0.58615684  0.40130205  0.88493390  1
  Te  Te168  1  0.53256664  0.72715211  0.23206888  1
  Te  Te169  1  0.55325620  0.76740738  0.57200875  1
  Te  Te170  1  0.59738875  0.77002023  0.92144527  1
  Te  Te171  1  0.92089111  0.07253264  0.25414512  1
  Te  Te172  1  0.93168572  0.06700920  0.59159237  1
  Te  Te173  1  0.95205093  0.08870454  0.92298917  1
  Te  Te174  1  0.91731073  0.40261595  0.25960190  1
  Te  Te175  1  0.89492379  0.38624234  0.58277179  1
  Te  Te176  1  0.96152728  0.43092618  0.91421516  1
  Te  Te177  1  0.93227393  0.75274398  0.24516945  1
  Te  Te178  1  0.93514436  0.76593831  0.55416432  1
  Te  Te179  1  0.94588071  0.75225958  0.91272575  1
