# generated using pymatgen
data_In2Te3
_symmetry_space_group_name_H-M   'P 1'
_cell_length_a   18.97585737
_cell_length_b   18.99070086
_cell_length_c   18.95597332
_cell_angle_alpha   89.92450297
_cell_angle_beta   90.05005479
_cell_angle_gamma   90.12609919
_symmetry_Int_Tables_number   1
_chemical_formula_structural   In2Te3
_chemical_formula_sum   'In72 Te108'
_cell_volume   6831.04105455
_cell_formula_units_Z   36
loop_
 _symmetry_equiv_pos_site_id
 _symmetry_equiv_pos_as_xyz
  1  'x, y, z'
loop_
 _atom_site_type_symbol
 _atom_site_label
 _atom_site_symmetry_multiplicity
 _atom_site_fract_x
 _atom_site_fract_y
 _atom_site_fract_z
 _atom_site_occupancy
  In  In0  1  0.34130613  0.49230141  0.48707566  1
  In  In1  1  0.50943216  0.18663978  0.65874915  1
  In  In2  1  0.01123519  0.81813463  0.83952557  1
  In  In3  1  0.16975794  -0.01505985  0.50368449  1
  In  In4  1  0.51527310  0.18012311  0.00843541  1
  In  In5  1  0.83371037  0.85264496  0.00506573  1
  In  In6  1  0.32781538  -0.01346021  0.67934741  1
  In  In7  1  0.84973668  0.54669612  0.68883082  1
  In  In8  1  0.33787478  0.33991215  0.32488591  1
  In  In9  1  0.83034790  0.36015832  0.49795655  1
  In  In10  1  0.66275188  0.35048607  0.66763276  1
  In  In11  1  -0.02608258  0.65875088  0.33913905  1
  In  In12  1  0.01654342  0.16300177  0.17234472  1
  In  In13  1  0.18041104  0.52592119  0.00438392  1
  In  In14  1  0.17054905  0.69005302  0.49732404  1
  In  In15  1  0.33022646  0.82842127  0.83003317  1
  In  In16  1  0.18564711  0.15843786  0.66128546  1
  In  In17  1  0.49689223  -0.02028298  0.83390441  1
  In  In18  1  0.52196618  0.64902453  0.82501367  1
  In  In19  1  0.33528463  0.65305249  0.31501576  1
  In  In20  1  -0.00609203  0.52136639  0.46081168  1
  In  In21  1  0.18053180  0.31453234  0.17379648  1
  In  In22  1  0.63758626  0.00578044  0.32748796  1
  In  In23  1  0.50995254  0.84323082  0.65908599  1
  In  In24  1  0.66527005  0.49953585  0.51822821  1
  In  In25  1  0.65463615  0.48738757  0.83354310  1
  In  In26  1  0.81957625  0.33815433  0.18324999  1
  In  In27  1  -0.04253160  0.82919589  0.51423925  1
  In  In28  1  0.66184401  0.48738555  0.16114677  1
  In  In29  1  0.70758134  0.82700098  0.50380638  1
  In  In30  1  0.65477615  0.16663284  0.49285800  1
  In  In31  1  0.31794607  0.15181657  0.16226136  1
  In  In32  1  -0.01479108  0.66888456  -0.02793961  1
  In  In33  1  -0.02151614  0.32161686  0.31931720  1
  In  In34  1  0.16743074  0.46266813  0.32407425  1
  In  In35  1  0.84392794  0.15012679  0.66516104  1
  In  In36  1  0.51491746  0.65504515  0.49126384  1
  In  In37  1  0.19748204  0.36404107  0.84932968  1
  In  In38  1  0.51273549  0.17790613  0.30535598  1
  In  In39  1  0.00570432  0.01489858  0.65872452  1
  In  In40  1  0.33990777  0.81348359  0.16695266  1
  In  In41  1  0.50536066  0.63280986  0.15744632  1
  In  In42  1  0.00250440  0.52187752  0.12953462  1
  In  In43  1  -0.00431857  0.32868971  -0.01217140  1
  In  In44  1  0.81556289  0.32144227  0.86657932  1
  In  In45  1  0.31914084  0.14755503  0.85125711  1
  In  In46  1  0.14106888  -0.01083078  0.15712664  1
  In  In47  1  0.50614727  0.01743565  0.16471418  1
  In  In48  1  0.32290834  0.65177414  0.65957996  1
  In  In49  1  0.00620579  0.15998305  0.82081029  1
  In  In50  1  0.49869800  0.32561163  0.83049885  1
  In  In51  1  0.49941995  0.00783660  0.50718754  1
  In  In52  1  0.49336278  0.80363645  0.34433057  1
  In  In53  1  0.80821616  0.80566705  0.68232223  1
  In  In54  1  0.16207572  0.51611831  0.67572076  1
  In  In55  1  0.81689053  0.51320589  0.33643146  1
  In  In56  1  0.64899382  0.84426217  0.18129634  1
  In  In57  1  -0.04140955  0.83244406  0.18544444  1
  In  In58  1  0.00621409  -0.00736148  -0.00581972  1
  In  In59  1  0.67580059  0.03469234  0.01214261  1
  In  In60  1  0.01219125  0.33927706  0.65021402  1
  In  In61  1  0.31989578  -0.01396059  0.34266438  1
  In  In62  1  0.82585150  0.16547389  0.32790547  1
  In  In63  1  0.83110478  0.53498955  -0.01018855  1
  In  In64  1  0.18644877  0.82572703  0.00514279  1
  In  In65  1  0.14040309  0.68847592  0.15814942  1
  In  In66  1  0.83765620  0.00877399  0.84079347  1
  In  In67  1  0.36069854  0.34294768  0.65869604  1
  In  In68  1  0.65969288  0.69883491  -0.01982221  1
  In  In69  1  0.00247982  -0.01986477  0.35509121  1
  In  In70  1  0.36172736  0.64689592  -0.00663161  1
  In  In71  1  0.18484268  0.29964933  0.49885438  1
  Te  Te72  1  0.09546148  0.09789548  0.06150629  1
  Te  Te73  1  0.08521823  0.07647527  0.42650777  1
  Te  Te74  1  0.11533580  0.06940407  0.76294362  1
  Te  Te75  1  0.08911439  0.40829842  0.08156224  1
  Te  Te76  1  0.07287407  0.39505994  0.42599411  1
  Te  Te77  1  0.08227840  0.41663244  0.75825974  1
  Te  Te78  1  0.05140927  0.77573745  0.06827317  1
  Te  Te79  1  0.05830345  0.75446614  0.41936044  1
  Te  Te80  1  0.07778325  0.69827612  0.78513452  1
  Te  Te81  1  0.41201889  0.08087897  0.06627125  1
  Te  Te82  1  0.43191940  0.07559511  0.38998765  1
  Te  Te83  1  0.41629269  0.09605650  0.74587152  1
  Te  Te84  1  0.47426200  0.48420233  0.13748241  1
  Te  Te85  1  0.43602430  0.42638178  0.39580176  1
  Te  Te86  1  0.41717025  0.42840635  0.76263066  1
  Te  Te87  1  0.43939714  0.74811811  0.07613779  1
  Te  Te88  1  0.39380306  0.73117587  0.43096343  1
  Te  Te89  1  0.42338156  0.74606621  0.73967348  1
  Te  Te90  1  0.75086682  0.13742542  0.08329769  1
  Te  Te91  1  0.74315864  0.07219310  0.41626176  1
  Te  Te92  1  0.75221013  0.10137805  0.76647986  1
  Te  Te93  1  0.76713808  0.42191214  0.06919509  1
  Te  Te94  1  0.72707881  0.41029497  0.40165866  1
  Te  Te95  1  0.77151670  0.41746702  0.75178991  1
  Te  Te96  1  0.74277707  0.76432410  0.08827372  1
  Te  Te97  1  0.77119078  0.74756227  0.39986932  1
  Te  Te98  1  0.74772108  0.73125215  0.79192768  1
  Te  Te99  1  0.09752316  0.23871203  0.27599324  1
  Te  Te100  1  0.07696325  0.22411967  0.57697897  1
  Te  Te101  1  0.09356687  0.25813075  0.89786647  1
  Te  Te102  1  0.08399102  0.57906049  0.25373351  1
  Te  Te103  1  0.08178725  0.58716237  0.56559039  1
  Te  Te104  1  0.08034066  0.57604157  0.90530914  1
  Te  Te105  1  0.07865267  0.89237548  0.25455543  1
  Te  Te106  1  0.07345550  0.90188138  0.58707179  1
  Te  Te107  1  0.10795392  0.91626678  0.91071403  1
  Te  Te108  1  0.41219523  0.25376259  0.22160433  1
  Te  Te109  1  0.42155298  0.25267324  0.56125191  1
  Te  Te110  1  0.40557401  0.24790636  0.92279382  1
  Te  Te111  1  0.44015876  0.55467404  0.27316443  1
  Te  Te112  1  0.42641089  0.57064782  0.58366704  1
  Te  Te113  1  0.42907724  0.55927362  0.89778211  1
  Te  Te114  1  0.42889321  0.90826760  0.24856348  1
  Te  Te115  1  0.40499792  0.90934791  0.57233062  1
  Te  Te116  1  0.39448258  0.92380477  0.92042826  1
  Te  Te117  1  0.73252164  0.26891256  0.27915432  1
  Te  Te118  1  0.75200232  0.25677461  0.57944658  1
  Te  Te119  1  0.75650558  0.22342496  0.95641269  1
  Te  Te120  1  0.74889667  0.58403346  0.22923614  1
  Te  Te121  1  0.72486258  0.58934933  0.62311607  1
  Te  Te122  1  0.74636520  0.60242190  0.88113762  1
  Te  Te123  1  0.73886537  0.93729668  0.24850965  1
  Te  Te124  1  0.75412418  0.91906307  0.60742157  1
  Te  Te125  1  0.73610363  0.92860607  0.91965097  1
  Te  Te126  1  0.24333130  0.23649530  0.06804659  1
  Te  Te127  1  0.27330152  0.23468954  0.40458361  1
  Te  Te128  1  0.25676167  0.26185065  0.74559048  1
  Te  Te129  1  0.25726843  0.60963804  0.10373178  1
  Te  Te130  1  0.23442660  0.57296905  0.40891638  1
  Te  Te131  1  0.26420644  0.56880296  0.76588475  1
  Te  Te132  1  0.26231456  0.92217515  0.09297762  1
  Te  Te133  1  0.24715366  0.88923510  0.42206523  1
  Te  Te134  1  0.23324036  0.88811630  0.73507976  1
  Te  Te135  1  0.57774990  0.30268544  0.06457813  1
  Te  Te136  1  0.55628295  0.25058972  0.42549693  1
  Te  Te137  1  0.60618769  0.24488051  0.76045176  1
  Te  Te138  1  0.59972618  0.57907440  0.04842114  1
  Te  Te139  1  0.61863623  0.59080165  0.41197820  1
  Te  Te140  1  0.59261763  0.56552210  0.72350892  1
  Te  Te141  1  0.58171316  0.92649517  0.07316437  1
  Te  Te142  1  0.57754164  0.90117999  0.42657487  1
  Te  Te143  1  0.59746793  0.91820479  0.74853395  1
  Te  Te144  1  0.92365747  0.25953555  0.10229652  1
  Te  Te145  1  0.90791213  0.24856794  0.43003171  1
  Te  Te146  1  0.92043416  0.26288783  0.74794303  1
  Te  Te147  1  0.90069490  0.62510913  0.09247178  1
  Te  Te148  1  0.86846794  0.60418046  0.44694542  1
  Te  Te149  1  0.95576747  0.60505995  0.77332274  1
  Te  Te150  1  0.90538930  0.94654808  0.09962855  1
  Te  Te151  1  0.88737315  0.90395870  0.40826397  1
  Te  Te152  1  0.93526239  0.92533926  0.76098991  1
  Te  Te153  1  0.22946812  0.06877106  0.25355594  1
  Te  Te154  1  0.27402340  0.07957942  0.57043915  1
  Te  Te155  1  0.21394617  0.05901733  0.89382998  1
  Te  Te156  1  0.26683193  0.43063239  0.21769014  1
  Te  Te157  1  0.23873239  0.41623155  0.57968375  1
  Te  Te158  1  0.27159150  0.42072995  0.96199097  1
  Te  Te159  1  0.23588866  0.75427078  0.25994775  1
  Te  Te160  1  0.23147522  0.75791586  0.61262310  1
  Te  Te161  1  0.25390355  0.72687300  0.91636880  1
  Te  Te162  1  0.61354547  0.11102483  0.21478714  1
  Te  Te163  1  0.59587594  0.07556826  0.60067213  1
  Te  Te164  1  0.57901110  0.08886316  0.90786608  1
  Te  Te165  1  0.57891204  0.37141349  0.20393528  1
  Te  Te166  1  0.56556586  0.40870347  0.57680301  1
  Te  Te167  1  0.59278845  0.39160489  0.92934386  1
  Te  Te168  1  0.58606390  0.72767818  0.25570065  1
  Te  Te169  1  0.59724421  0.75036220  0.57762156  1
  Te  Te170  1  0.55819707  0.76868337  0.90189629  1
  Te  Te171  1  0.92739829  0.07826269  0.25804018  1
  Te  Te172  1  0.90580349  0.06531403  0.56506653  1
  Te  Te173  1  0.92017444  0.10054731  0.93069193  1
  Te  Te174  1  0.92838264  0.44328526  0.24561787  1
  Te  Te175  1  0.91936660  0.44404350  0.58851968  1
  Te  Te176  1  0.91272714  0.43012747  0.91255137  1
  Te  Te177  1  0.87192973  0.75417596  0.28000654  1
  Te  Te178  1  0.91050273  0.72831672  0.61104287  1
  Te  Te179  1  0.88217677  0.75676787  0.89793985  1
