# generated using pymatgen
data_In2Te3
_symmetry_space_group_name_H-M   'P 1'
_cell_length_a   18.93565671
_cell_length_b   18.95267728
_cell_length_c   18.95557635
_cell_angle_alpha   89.81384134
_cell_angle_beta   89.94723425
_cell_angle_gamma   90.11931976
_symmetry_Int_Tables_number   1
_chemical_formula_structural   In2Te3
_chemical_formula_sum   'In72 Te108'
_cell_volume   6802.75001597
_cell_formula_units_Z   36
loop_
 _symmetry_equiv_pos_site_id
 _symmetry_equiv_pos_as_xyz
  1  'x, y, z'
loop_
 _atom_site_type_symbol
 _atom_site_label
 _atom_site_symmetry_multiplicity
 _atom_site_fract_x
 _atom_site_fract_y
 _atom_site_fract_z
 _atom_site_occupancy
  In  In0  1  0.17363933  0.35480233  0.17124821  1
  In  In1  1  0.53058604  0.78861439  -0.02935926  1
  In  In2  1  0.82342931  -0.01273361  0.50420931  1
  In  In3  1  0.81828245  0.85342613  0.33064892  1
  In  In4  1  0.34509394  0.82003462  0.82805466  1
  In  In5  1  0.47768301  0.67702007  0.46216834  1
  In  In6  1  0.83146497  0.34915702  0.50168196  1
  In  In7  1  0.80875022  0.49160175  0.33959281  1
  In  In8  1  0.65157813  0.17926170  0.80115464  1
  In  In9  1  0.82445148  0.17766245  0.34890782  1
  In  In10  1  -0.01860609  0.64857088  0.00007705  1
  In  In11  1  -0.00131220  0.00182870  0.33070467  1
  In  In12  1  0.33762815  0.33309116  -0.00445611  1
  In  In13  1  0.18583953  0.82931474  0.31903929  1
  In  In14  1  0.63479113  0.50812217  0.83775021  1
  In  In15  1  0.34472047  0.66385693  0.00025192  1
  In  In16  1  0.34941422  -0.00355726  0.65254860  1
  In  In17  1  0.34431281  0.16917260  0.17180404  1
  In  In18  1  0.77812617  0.82411012  0.68538828  1
  In  In19  1  0.17563740  0.52591355  0.67383143  1
  In  In20  1  0.49681565  0.50942839  0.33676272  1
  In  In21  1  0.36277590  0.65214922  0.64910292  1
  In  In22  1  0.84543003  0.00259370  0.85163873  1
  In  In23  1  0.16348510  0.49662746  0.34990320  1
  In  In24  1  0.84684101  0.49376788  0.02848488  1
  In  In25  1  -0.00947811  0.00424139  0.66017414  1
  In  In26  1  -0.00882242  0.33718161  0.65804846  1
  In  In27  1  -0.05675068  0.64807453  0.64570748  1
  In  In28  1  0.16427879  -0.00405113  0.83787252  1
  In  In29  1  0.36114243  0.50717319  0.50858348  1
  In  In30  1  0.48556759  -0.01391400  0.82145150  1
  In  In31  1  0.66565004  -0.00884760  -0.01843617  1
  In  In32  1  0.48686413  0.16255571  0.01724051  1
  In  In33  1  0.65357544  0.82538259  0.47505592  1
  In  In34  1  -0.01157754  0.17822458  0.19199674  1
  In  In35  1  0.18011014  0.20626131  0.34368769  1
  In  In36  1  0.81842375  0.82502845  0.01613499  1
  In  In37  1  0.01657788  0.31198986  0.02425159  1
  In  In38  1  0.79924157  0.67777673  0.84933730  1
  In  In39  1  0.34645164  0.00719519  0.31747595  1
  In  In40  1  0.51323332  0.18937062  0.35480826  1
  In  In41  1  -0.00262222  0.48054689  0.83692763  1
  In  In42  1  -0.01001986  0.83583312  0.14229050  1
  In  In43  1  0.82997157  0.34216848  0.18168895  1
  In  In44  1  -0.00850284  0.65838974  0.36652220  1
  In  In45  1  0.16500112  0.16459907  0.66721467  1
  In  In46  1  0.18512215  0.85369331  -0.01321536  1
  In  In47  1  0.21693284  0.33226559  0.82973784  1
  In  In48  1  0.81185419  0.68357676  0.19335372  1
  In  In49  1  0.81462117  0.33254421  0.81819655  1
  In  In50  1  0.16912424  0.80173828  0.65716234  1
  In  In51  1  0.48941463  0.20268015  0.63453211  1
  In  In52  1  0.67798812  0.14130263  0.15788562  1
  In  In53  1  0.17381049  0.47765695  -0.00366596  1
  In  In54  1  0.18075420  0.67687812  0.17338544  1
  In  In55  1  -0.01012609  0.79386510  0.53559540  1
  In  In56  1  0.02411574  0.83944815  0.81921892  1
  In  In57  1  0.16125550  0.14404858  -0.01300635  1
  In  In58  1  0.50525541  0.35391640  0.18397311  1
  In  In59  1  0.67928843  0.16831873  0.49606363  1
  In  In60  1  0.51855325  0.00255906  0.48749336  1
  In  In61  1  0.17490441  0.00460387  0.13059499  1
  In  In62  1  0.16624763  0.34051191  0.49934049  1
  In  In63  1  0.52377851  0.68611517  0.19575718  1
  In  In64  1  0.51371413  -0.02171653  0.16084733  1
  In  In65  1  0.17334294  0.65086660  0.51863582  1
  In  In66  1  0.50650784  0.52042174  0.02292172  1
  In  In67  1  0.64462465  0.37219362  0.64000282  1
  In  In68  1  0.51580937  0.83358016  0.66008186  1
  In  In69  1  0.16348707  0.01083482  0.48110777  1
  In  In70  1  0.67696565  0.33250401  -0.01196929  1
  In  In71  1  0.84572765  0.16428489  0.67678940  1
  Te  Te72  1  0.05844493  0.08976336  0.08766784  1
  Te  Te73  1  0.07553409  0.10750724  0.40621558  1
  Te  Te74  1  0.07109216  0.08693273  0.75833778  1
  Te  Te75  1  0.06740379  0.43418723  0.09685414  1
  Te  Te76  1  0.06924190  0.43802342  0.44648909  1
  Te  Te77  1  0.09751609  0.40731275  0.74776611  1
  Te  Te78  1  0.08789656  0.74460120  0.06990857  1
  Te  Te79  1  0.09869530  0.75759023  0.42821002  1
  Te  Te80  1  0.06274042  0.72586013  0.72902453  1
  Te  Te81  1  0.40201942  0.05824394  0.08734260  1
  Te  Te82  1  0.41589199  0.09334196  0.42181533  1
  Te  Te83  1  0.42772324  0.09481117  0.73408542  1
  Te  Te84  1  0.40562169  0.42436860  0.09356466  1
  Te  Te85  1  0.43545211  0.40478417  0.42917223  1
  Te  Te86  1  0.34640659  0.38441052  0.77385274  1
  Te  Te87  1  0.43445920  0.75059574  0.08437820  1
  Te  Te88  1  0.42703134  0.76051341  0.35272146  1
  Te  Te89  1  0.44268597  0.73656212  0.75127624  1
  Te  Te90  1  0.76167409  0.06653395  0.06480978  1
  Te  Te91  1  0.73755577  0.06269534  0.40427141  1
  Te  Te92  1  0.75305373  0.07230769  0.75326827  1
  Te  Te93  1  0.73113445  0.42281012  0.09615611  1
  Te  Te94  1  0.71946745  0.40142685  0.42065168  1
  Te  Te95  1  0.73686763  0.43653196  0.74575646  1
  Te  Te96  1  0.73550582  0.71277215  0.06846047  1
  Te  Te97  1  0.73984827  0.73937252  0.38790554  1
  Te  Te98  1  0.69991672  0.70826154  0.74083866  1
  Te  Te99  1  0.07515680  0.28018249  0.26246396  1
  Te  Te100  1  0.07445266  0.24260311  0.57502901  1
  Te  Te101  1  0.10467316  0.26295168  0.91287513  1
  Te  Te102  1  0.08627034  0.59766208  0.26380983  1
  Te  Te103  1  0.06289572  0.56907803  0.58036314  1
  Te  Te104  1  0.08562363  0.57504969  0.91680707  1
  Te  Te105  1  0.08846893  0.91896512  0.23921479  1
  Te  Te106  1  0.09248668  0.91974373  0.58480577  1
  Te  Te107  1  0.06021284  0.93230522  0.93827399  1
  Te  Te108  1  0.41219653  0.26426721  0.26568924  1
  Te  Te109  1  0.42678527  0.29779455  0.54316954  1
  Te  Te110  1  0.41105977  0.23601553  0.91631585  1
  Te  Te111  1  0.41890772  0.59390414  0.24318589  1
  Te  Te112  1  0.43377783  0.51691969  0.64273709  1
  Te  Te113  1  0.44298578  0.59665773  0.91365228  1
  Te  Te114  1  0.42969934  0.89918581  0.25801028  1
  Te  Te115  1  0.42597556  0.90489481  0.56024272  1
  Te  Te116  1  0.42518884  0.89838717  0.92803558  1
  Te  Te117  1  0.73187286  0.24776382  0.25159491  1
  Te  Te118  1  0.74676891  0.25531112  0.60704212  1
  Te  Te119  1  0.75038113  0.22706463  0.90760892  1
  Te  Te120  1  0.72571212  0.57968287  0.25409767  1
  Te  Te121  1  0.81867866  0.58988833  0.57742250  1
  Te  Te122  1  0.75224154  0.55509820  0.92463666  1
  Te  Te123  1  0.71867021  0.88409835  0.22697231  1
  Te  Te124  1  0.71569058  0.91907921  0.58387012  1
  Te  Te125  1  0.74990122  0.89581453  0.89866130  1
  Te  Te126  1  0.24051662  0.24361975  0.08774779  1
  Te  Te127  1  0.27496758  0.25586010  0.44390136  1
  Te  Te128  1  0.27735645  0.24679303  0.71854199  1
  Te  Te129  1  0.25159133  0.57654991  0.08488181  1
  Te  Te130  1  0.26652520  0.58662319  0.41993430  1
  Te  Te131  1  0.26146684  0.61590775  0.75062964  1
  Te  Te132  1  0.26382860  0.89308572  0.10290733  1
  Te  Te133  1  0.26311597  0.91987545  0.41335509  1
  Te  Te134  1  0.25028647  0.90977954  0.73973727  1
  Te  Te135  1  0.58390102  0.25276198  0.09018297  1
  Te  Te136  1  0.60446238  0.27916957  0.43066926  1
  Te  Te137  1  0.56531577  0.28803227  0.74059727  1
  Te  Te138  1  0.60243114  0.61352674  0.08883613  1
  Te  Te139  1  0.58906263  0.58317706  0.43107969  1
  Te  Te140  1  0.56818866  0.55542531  0.71242251  1
  Te  Te141  1  0.59515504  0.88982424  0.06914599  1
  Te  Te142  1  0.57898892  0.91544910  0.38428654  1
  Te  Te143  1  0.59290383  0.91942812  0.75018511  1
  Te  Te144  1  0.89763037  0.24236080  0.08730022  1
  Te  Te145  1  0.91710345  0.26782257  0.41554746  1
  Te  Te146  1  0.93110966  0.24867716  0.76799361  1
  Te  Te147  1  0.91526825  0.59048844  0.12176564  1
  Te  Te148  1  0.88898382  0.57784019  0.43733431  1
  Te  Te149  1  0.90399733  0.58339582  0.78047841  1
  Te  Te150  1  0.88185215  0.92626208  0.10276051  1
  Te  Te151  1  0.93278143  0.90811023  0.43197930  1
  Te  Te152  1  0.91062611  0.89596284  0.73074710  1
  Te  Te153  1  0.23067663  0.09099759  0.25076868  1
  Te  Te154  1  0.25747576  0.08720680  0.57264601  1
  Te  Te155  1  0.26430372  0.07164743  0.91252788  1
  Te  Te156  1  0.25888128  0.42077786  0.26802897  1
  Te  Te157  1  0.25220587  0.43078561  0.58632694  1
  Te  Te158  1  0.29044439  0.45566262  0.90082664  1
  Te  Te159  1  0.28415695  0.73048946  0.26744966  1
  Te  Te160  1  0.27874388  0.75208929  0.56729917  1
  Te  Te161  1  0.24193114  0.74109826  0.90640562  1
  Te  Te162  1  0.56738875  0.09036164  0.24809432  1
  Te  Te163  1  0.58546975  0.09410113  0.58932826  1
  Te  Te164  1  0.57685819  0.09333702  0.90937200  1
  Te  Te165  1  0.59910974  0.44431145  0.24995974  1
  Te  Te166  1  0.59528255  0.49471965  0.57044675  1
  Te  Te167  1  0.56236560  0.40801677  0.92666090  1
  Te  Te168  1  0.62245569  0.77884336  0.27222764  1
  Te  Te169  1  0.57670118  0.73011025  0.56602908  1
  Te  Te170  1  0.63727412  0.73176184  0.88346933  1
  Te  Te171  1  0.89289245  0.07668859  0.25415367  1
  Te  Te172  1  0.91577558  0.09345824  0.56241827  1
  Te  Te173  1  0.95867236  0.05938111  0.91844450  1
  Te  Te174  1  0.91642911  0.42151303  0.26723159  1
  Te  Te175  1  0.89026213  0.43302133  0.60992022  1
  Te  Te176  1  0.91187341  0.39368699  0.93124377  1
  Te  Te177  1  0.93310922  0.76285546  0.26384927  1
  Te  Te178  1  0.84619241  0.75066740  0.56885403  1
  Te  Te179  1  0.92378770  0.75973367  0.91368586  1
