# generated using pymatgen
data_In2Te3
_symmetry_space_group_name_H-M   'P 1'
_cell_length_a   18.77098108
_cell_length_b   18.77486861
_cell_length_c   18.77636866
_cell_angle_alpha   89.97275821
_cell_angle_beta   90.05314799
_cell_angle_gamma   90.04388180
_symmetry_Int_Tables_number   1
_chemical_formula_structural   In2Te3
_chemical_formula_sum   'In72 Te108'
_cell_volume   6617.21307245
_cell_formula_units_Z   36
loop_
 _symmetry_equiv_pos_site_id
 _symmetry_equiv_pos_as_xyz
  1  'x, y, z'
loop_
 _atom_site_type_symbol
 _atom_site_label
 _atom_site_symmetry_multiplicity
 _atom_site_fract_x
 _atom_site_fract_y
 _atom_site_fract_z
 _atom_site_occupancy
  In  In0  1  -0.01319968  0.67602543  0.34331309  1
  In  In1  1  0.80976392  0.83632105  0.31564857  1
  In  In2  1  0.52039075  0.66287541  0.16603452  1
  In  In3  1  0.68529935  0.83908448  0.51104836  1
  In  In4  1  -0.00221161  0.32580436  0.67168548  1
  In  In5  1  0.65831988  -0.00688824  0.00817061  1
  In  In6  1  0.50770240  0.33818065  0.47988192  1
  In  In7  1  0.20333726  0.48838994  -0.01593549  1
  In  In8  1  -0.01426834  0.84747618  0.19623741  1
  In  In9  1  0.68912113  0.16501611  0.81412913  1
  In  In10  1  -0.01739399  0.32077674  0.34779342  1
  In  In11  1  -0.05046964  0.13181842  0.21271404  1
  In  In12  1  0.17061600  0.66600224  0.83114188  1
  In  In13  1  -0.02670513  0.65278517  0.66360569  1
  In  In14  1  0.65869799  0.35949479  0.00899648  1
  In  In15  1  0.79328110  0.80891521  0.02464469  1
  In  In16  1  0.51248836  0.83037416  0.34386804  1
  In  In17  1  0.68753738  0.82712039  0.80768697  1
  In  In18  1  0.67552679  0.15824597  0.18120929  1
  In  In19  1  0.32841169  0.01736017  0.67059839  1
  In  In20  1  0.51194704  0.65766919  0.84660320  1
  In  In21  1  0.84035040  0.67063790  0.49239245  1
  In  In22  1  0.17339057  0.83638699  0.00523201  1
  In  In23  1  0.52290417  0.82536199  -0.00257793  1
  In  In24  1  0.51603923  -0.01362379  0.50712310  1
  In  In25  1  0.52309271  0.13999769  0.65186741  1
  In  In26  1  0.33940992  0.81752198  0.16459839  1
  In  In27  1  0.81340224  0.33609440  0.15351878  1
  In  In28  1  0.84868812  0.16754596  -0.00420241  1
  In  In29  1  0.64201264  0.51281887  0.47395503  1
  In  In30  1  0.52256745  0.33491382  0.84996237  1
  In  In31  1  0.32059791  0.17473104  0.50208016  1
  In  In32  1  0.18588325  0.66193609  0.15496118  1
  In  In33  1  0.34268912  0.83697503  0.85790381  1
  In  In34  1  0.83244289  0.14089846  0.63095207  1
  In  In35  1  0.83794294  0.35657888  0.82308735  1
  In  In36  1  0.17879527  0.49340807  0.33876202  1
  In  In37  1  0.17602603  0.50643562  0.66020215  1
  In  In38  1  0.00597039  0.16181367  0.86038390  1
  In  In39  1  0.52478253  0.51581023  0.67770591  1
  In  In40  1  -0.02095606  0.50647102  0.81862164  1
  In  In41  1  -0.02830612  0.84415136  0.49571330  1
  In  In42  1  0.34987555  0.35907414  0.33408603  1
  In  In43  1  -0.04508123  0.86208792  0.80562710  1
  In  In44  1  0.49549432  0.17409323  0.00262590  1
  In  In45  1  0.00190501  0.34355750  -0.02105051  1
  In  In46  1  0.34784889  0.64539393  0.67475724  1
  In  In47  1  0.16989065  0.65546761  0.49609582  1
  In  In48  1  0.17178366  0.33855951  0.52638792  1
  In  In49  1  0.80262506  0.52980989  0.30555499  1
  In  In50  1  0.50041651  0.50467914  0.01554493  1
  In  In51  1  0.17267755  0.02997886  0.83519773  1
  In  In52  1  0.17598555  0.34049476  0.18855219  1
  In  In53  1  -0.00613975  -0.00634797  -0.00093902  1
  In  In54  1  0.32986657  -0.01894448  0.33504756  1
  In  In55  1  -0.02569740  0.66528359  -0.00189212  1
  In  In56  1  0.33593088  0.35243942  0.67161960  1
  In  In57  1  0.82694805  0.31487237  0.49405995  1
  In  In58  1  0.35162477  0.17990138  0.82903961  1
  In  In59  1  0.17521631  0.83651541  0.29659128  1
  In  In60  1  0.13871250  0.14519273  0.35789155  1
  In  In61  1  0.14427694  0.83234529  0.65505374  1
  In  In62  1  0.63332259  0.34445241  0.32190622  1
  In  In63  1  0.14645610  0.16000719  0.66406178  1
  In  In64  1  0.53111162  0.83476272  0.65978648  1
  In  In65  1  0.34015878  0.82104613  0.46835646  1
  In  In66  1  -0.01546650  0.51700294  0.14970774  1
  In  In67  1  0.33889095  0.16759720  0.15379126  1
  In  In68  1  0.15727659  -0.02348455  0.17164777  1
  In  In69  1  0.81735192  0.49224474  0.65602511  1
  In  In70  1  0.52146094  0.16080556  0.32977323  1
  In  In71  1  0.17735070  0.16752095  0.01064288  1
  Te  Te72  1  0.07354929  0.08537702  0.09194810  1
  Te  Te73  1  0.03419620  0.07443101  0.43275056  1
  Te  Te74  1  0.05558510  0.06928628  0.74628843  1
  Te  Te75  1  0.08778949  0.42282158  0.08642700  1
  Te  Te76  1  0.08155319  0.41229063  0.42331227  1
  Te  Te77  1  0.08733060  0.41908348  0.75244772  1
  Te  Te78  1  0.07704913  0.75851344  0.09431457  1
  Te  Te79  1  0.08781392  0.76095187  0.41899905  1
  Te  Te80  1  0.06284600  0.74464863  0.75754983  1
  Te  Te81  1  0.43627648  0.07516399  0.09523872  1
  Te  Te82  1  0.41395106  0.08153024  0.42294782  1
  Te  Te83  1  0.43799116  0.07199280  0.76078793  1
  Te  Te84  1  0.46297710  0.40003705  0.11324636  1
  Te  Te85  1  0.43176821  0.44949636  0.41847284  1
  Te  Te86  1  0.43192070  0.42583683  0.76246165  1
  Te  Te87  1  0.42196627  0.73329700  0.07042503  1
  Te  Te88  1  0.44729081  0.72763500  0.42996101  1
  Te  Te89  1  0.42221924  0.75706859  0.75224583  1
  Te  Te90  1  0.76470767  0.07790991  0.08488003  1
  Te  Te91  1  0.77786982  0.13090971  0.37683604  1
  Te  Te92  1  0.75678366  0.05624736  0.73509386  1
  Te  Te93  1  0.72369352  0.44652889  0.11153231  1
  Te  Te94  1  0.74841597  0.41831383  0.40214965  1
  Te  Te95  1  0.72835104  0.42599509  0.75346022  1
  Te  Te96  1  0.71669619  0.72862250  0.13044288  1
  Te  Te97  1  0.73552086  0.73587707  0.40474238  1
  Te  Te98  1  0.75559087  0.71633971  0.73736285  1
  Te  Te99  1  0.07519378  0.24233306  0.24983370  1
  Te  Te100  1  0.06273688  0.23908374  0.56378550  1
  Te  Te101  1  0.11328472  0.26358294  0.90609685  1
  Te  Te102  1  0.08253989  0.58913754  0.25315958  1
  Te  Te103  1  0.06735267  0.57241943  0.57389697  1
  Te  Te104  1  0.07641829  0.57708418  0.92266482  1
  Te  Te105  1  0.06145200  0.94255994  0.28680654  1
  Te  Te106  1  0.05644170  0.92922427  0.58748971  1
  Te  Te107  1  0.08579309  0.91276345  0.90628440  1
  Te  Te108  1  0.42220052  0.25057712  0.25446229  1
  Te  Te109  1  0.42006776  0.24861206  0.59149235  1
  Te  Te110  1  0.40655434  0.28009674  0.93269928  1
  Te  Te111  1  0.46104942  0.56015540  0.25857565  1
  Te  Te112  1  0.43704949  0.58169520  0.57734494  1
  Te  Te113  1  0.41268249  0.57478062  0.91769943  1
  Te  Te114  1  0.42799227  0.91444862  0.24347891  1
  Te  Te115  1  0.40210140  0.91412838  0.58215376  1
  Te  Te116  1  0.43615676  0.92505561  0.92774570  1
  Te  Te117  1  0.76044710  0.24981514  0.27250221  1
  Te  Te118  1  0.74541319  0.25662631  0.60190157  1
  Te  Te119  1  0.75183657  0.26099363  0.92442761  1
  Te  Te120  1  0.69852192  0.60987522  0.23572183  1
  Te  Te121  1  0.73665035  0.58809671  0.56978844  1
  Te  Te122  1  0.81636274  0.58227883  0.94114698  1
  Te  Te123  1  0.74682937  0.93566090  0.22414643  1
  Te  Te124  1  0.74291702  0.93400651  0.61073258  1
  Te  Te125  1  0.75255950  0.91355564  0.91891704  1
  Te  Te126  1  0.26206783  0.27678911  0.07913532  1
  Te  Te127  1  0.24073065  0.26040532  0.40339530  1
  Te  Te128  1  0.24597352  0.24842478  0.74013916  1
  Te  Te129  1  0.27719267  0.57108247  0.08199135  1
  Te  Te130  1  0.26755936  0.58914659  0.40842520  1
  Te  Te131  1  0.26483429  0.56195239  0.77256444  1
  Te  Te132  1  0.26912159  0.92739816  0.08118439  1
  Te  Te133  1  0.22800295  0.91387777  0.42517024  1
  Te  Te134  1  0.24408052  0.91328400  0.75530834  1
  Te  Te135  1  0.58911550  0.25334247  0.09506623  1
  Te  Te136  1  0.60757515  0.23512267  0.43117579  1
  Te  Te137  1  0.58696564  0.25075607  0.73990223  1
  Te  Te138  1  0.61088030  0.59455118  0.06623281  1
  Te  Te139  1  0.57275047  0.58683520  0.36623400  1
  Te  Te140  1  0.61565322  0.61645010  0.74522513  1
  Te  Te141  1  0.59662070  0.89907540  0.10646349  1
  Te  Te142  1  0.61337029  0.92832151  0.40573392  1
  Te  Te143  1  0.59020180  0.92703963  0.75657411  1
  Te  Te144  1  0.93281797  0.25459158  0.08888389  1
  Te  Te145  1  0.90708485  0.20740460  0.41835092  1
  Te  Te146  1  0.90936671  0.23644211  0.75883031  1
  Te  Te147  1  0.87180360  0.59624436  0.08667812  1
  Te  Te148  1  0.91196243  0.56267538  0.41133200  1
  Te  Te149  1  0.86590263  0.60605963  0.76843992  1
  Te  Te150  1  0.90241645  0.90646136  0.08349124  1
  Te  Te151  1  0.86445980  0.92230186  0.42771632  1
  Te  Te152  1  0.86710083  0.93001586  0.70676409  1
  Te  Te153  1  0.24358966  0.08312517  0.25233980  1
  Te  Te154  1  0.22824401  0.07224904  0.56782599  1
  Te  Te155  1  0.27767586  0.08452985  0.92945960  1
  Te  Te156  1  0.27807742  0.44661161  0.22990750  1
  Te  Te157  1  0.27670046  0.44206870  0.56262475  1
  Te  Te158  1  0.24798413  0.37434239  0.90827121  1
  Te  Te159  1  0.27490992  0.72380389  0.26698472  1
  Te  Te160  1  0.25318276  0.74487893  0.59170345  1
  Te  Te161  1  0.26026126  0.73252923  0.93512775  1
  Te  Te162  1  0.59423304  0.05697463  0.25391449  1
  Te  Te163  1  0.62282894  0.07316182  0.56532648  1
  Te  Te164  1  0.59469260  0.09667865  0.91378832  1
  Te  Te165  1  0.56010689  0.43526131  0.22490959  1
  Te  Te166  1  0.59362758  0.41316455  0.58106558  1
  Te  Te167  1  0.60379422  0.45193509  0.90221501  1
  Te  Te168  1  0.60226844  0.77487122  0.23320318  1
  Te  Te169  1  0.58971689  0.73917824  0.56622647  1
  Te  Te170  1  0.61957391  0.73795306  0.91872723  1
  Te  Te171  1  0.85259407  0.02978905  0.28076975  1
  Te  Te172  1  0.93662769  0.06620870  0.55634372  1
  Te  Te173  1  0.89794483  0.05950074  0.89954644  1
  Te  Te174  1  0.91485423  0.41926363  0.24792468  1
  Te  Te175  1  0.91847369  0.41333068  0.57513045  1
  Te  Te176  1  0.88572256  0.44290227  0.94373524  1
  Te  Te177  1  0.89648889  0.73072932  0.23602358  1
  Te  Te178  1  0.89141377  0.76536745  0.60102056  1
  Te  Te179  1  0.90049948  0.76923014  0.91732739  1
