# generated using pymatgen
data_In2Te3
_symmetry_space_group_name_H-M   'P 1'
_cell_length_a   18.98856394
_cell_length_b   18.95418656
_cell_length_c   18.99546369
_cell_angle_alpha   89.86101580
_cell_angle_beta   90.03738705
_cell_angle_gamma   90.01647418
_symmetry_Int_Tables_number   1
_chemical_formula_structural   In2Te3
_chemical_formula_sum   'In72 Te108'
_cell_volume   6836.68836108
_cell_formula_units_Z   36
loop_
 _symmetry_equiv_pos_site_id
 _symmetry_equiv_pos_as_xyz
  1  'x, y, z'
loop_
 _atom_site_type_symbol
 _atom_site_label
 _atom_site_symmetry_multiplicity
 _atom_site_fract_x
 _atom_site_fract_y
 _atom_site_fract_z
 _atom_site_occupancy
  In  In0  1  -0.02902159  0.35222631  0.30796089  1
  In  In1  1  0.81212825  0.50678015  0.67811572  1
  In  In2  1  0.32479976  0.13983017  0.81993582  1
  In  In3  1  0.34348094  0.83385016  0.18392370  1
  In  In4  1  0.13179800  0.14680393  0.64712270  1
  In  In5  1  0.34148328  0.35377963  0.01267495  1
  In  In6  1  0.82738421  0.17892327  0.31867817  1
  In  In7  1  0.15483136  -0.02745824  0.49756024  1
  In  In8  1  0.17314809  0.82584681  0.31752995  1
  In  In9  1  0.84616527  0.32736043  0.83801776  1
  In  In10  1  0.34771584  0.65183213  0.63433922  1
  In  In11  1  0.14242616  0.18771224  0.31829908  1
  In  In12  1  0.36829033  0.01756584  0.64913596  1
  In  In13  1  -0.00409763  0.66544088  0.35266872  1
  In  In14  1  0.83180645  -0.00683155  0.16373449  1
  In  In15  1  0.66246308  0.79598417  0.83431924  1
  In  In16  1  0.18852341  0.00572777  0.83160703  1
  In  In17  1  0.68027425  0.15428836  0.83877717  1
  In  In18  1  0.51830102  0.17235761  0.64221191  1
  In  In19  1  0.33347733  0.80666740  0.48100932  1
  In  In20  1  -0.02487796  0.33752771  0.01855306  1
  In  In21  1  0.76452034  0.63678007  0.11735384  1
  In  In22  1  0.52265865  0.34150363  0.16075752  1
  In  In23  1  0.66874312  0.65747969  0.30775029  1
  In  In24  1  0.02945782  0.81301782  0.15652253  1
  In  In25  1  0.51642238  0.01048454  0.48692107  1
  In  In26  1  0.33080869  0.19639645  0.49382055  1
  In  In27  1  0.35143283  0.86095269  0.82804657  1
  In  In28  1  0.10053530  0.78117281  0.67185492  1
  In  In29  1  0.66644921  0.82033822  0.50460258  1
  In  In30  1  -0.03335740  0.51086362  0.14000907  1
  In  In31  1  0.50912125  0.18268623  -0.00496465  1
  In  In32  1  0.50761391  -0.00940890  0.15233881  1
  In  In33  1  0.51398440  0.36044843  0.47653184  1
  In  In34  1  0.51888557  0.81086541  0.66131146  1
  In  In35  1  0.82708394  -0.01274568  0.50115689  1
  In  In36  1  0.15999521  0.65644175  0.17018055  1
  In  In37  1  -0.00642124  0.33182387  0.67925659  1
  In  In38  1  0.34285939  0.66743815  0.00753107  1
  In  In39  1  0.16380223  0.51615145  0.67486359  1
  In  In40  1  0.49429663  0.15755290  0.30623867  1
  In  In41  1  -0.01068299  0.82716024  0.85043656  1
  In  In42  1  0.53204143  -0.03287589  0.85976669  1
  In  In43  1  0.18119407  0.81292901  0.01816192  1
  In  In44  1  0.68847666  0.48543202  0.48448161  1
  In  In45  1  0.17462100  0.36400223  0.48985698  1
  In  In46  1  0.63424781  0.51395709  0.84066351  1
  In  In47  1  0.50242906  0.35342935  0.86020078  1
  In  In48  1  0.17853565  0.64538196  0.48397825  1
  In  In49  1  0.30735187  0.35553290  0.69513039  1
  In  In50  1  -0.00117510  0.48836384  0.51984555  1
  In  In51  1  0.50182847  0.81101754  0.34331503  1
  In  In52  1  0.17186507  0.32980202  0.86065301  1
  In  In53  1  0.83144851  0.66962582  0.83101038  1
  In  In54  1  0.80124583  -0.02516221  0.85625675  1
  In  In55  1  -0.02275168  0.01409041  0.35039543  1
  In  In56  1  0.83721660  0.83997911  0.33440944  1
  In  In57  1  0.36470057  0.52320505  0.83516908  1
  In  In58  1  0.68414583  0.29860076  0.66463180  1
  In  In59  1  0.85425538  0.68127200  0.53422824  1
  In  In60  1  0.00222670  0.00002627  0.00575810  1
  In  In61  1  0.84586369  0.16648277  0.01179267  1
  In  In62  1  0.15321383  0.02517828  0.16246247  1
  In  In63  1  0.16041080  0.20988134  0.01169307  1
  In  In64  1  -0.03603948  0.00211814  0.68523735  1
  In  In65  1  -0.00762743  0.49874903  0.88072290  1
  In  In66  1  0.67235138  0.32552732  0.31984074  1
  In  In67  1  0.69235015  0.16273254  0.49036204  1
  In  In68  1  0.49672371  0.48868744  0.31732241  1
  In  In69  1  0.50713674  0.82876445  -0.00816815  1
  In  In70  1  0.34046228  0.50505456  0.18083341  1
  In  In71  1  0.33318835  0.19055654  0.16753151  1
  Te  Te72  1  0.06230620  0.11591025  0.08381782  1
  Te  Te73  1  0.08789985  0.08693126  0.42315653  1
  Te  Te74  1  0.07258877  0.07842466  0.76745664  1
  Te  Te75  1  0.07069127  0.43656729  0.06685135  1
  Te  Te76  1  0.07170850  0.43033910  0.40340495  1
  Te  Te77  1  0.08764027  0.41935445  0.76265933  1
  Te  Te78  1  0.07544347  0.71094076  0.05253894  1
  Te  Te79  1  0.09259442  0.75728597  0.42481605  1
  Te  Te80  1  0.07996894  0.71453667  0.80503080  1
  Te  Te81  1  0.41785767  0.09936107  0.08364348  1
  Te  Te82  1  0.41015419  0.09258658  0.41673338  1
  Te  Te83  1  0.44989671  0.07358373  0.76320174  1
  Te  Te84  1  0.44238529  0.44037084  0.07911274  1
  Te  Te85  1  0.40409260  0.43714821  0.42080688  1
  Te  Te86  1  0.43440986  0.42494679  0.74322976  1
  Te  Te87  1  0.43255615  0.74753751  0.09924356  1
  Te  Te88  1  0.41267598  0.71119950  0.40605934  1
  Te  Te89  1  0.40573140  0.75164429  0.73952631  1
  Te  Te90  1  0.75534257  0.06033724  0.05749281  1
  Te  Te91  1  0.75368937  0.06760365  0.39221498  1
  Te  Te92  1  0.74982635  0.06292160  0.75004749  1
  Te  Te93  1  0.68262134  0.47185373  0.08943843  1
  Te  Te94  1  0.76887906  0.38285367  0.41527637  1
  Te  Te95  1  0.73293771  0.40940759  0.76376227  1
  Te  Te96  1  0.71133374  0.76810794  0.06081587  1
  Te  Te97  1  0.76326352  0.73420293  0.41718646  1
  Te  Te98  1  0.74200985  0.73034214  0.73049599  1
  Te  Te99  1  0.07099020  0.27785452  0.22956924  1
  Te  Te100  1  0.08453873  0.26984053  0.57349910  1
  Te  Te101  1  0.05399018  0.25393138  0.91285273  1
  Te  Te102  1  0.05970719  0.57699605  0.24883255  1
  Te  Te103  1  0.07118276  0.60038909  0.59114422  1
  Te  Te104  1  0.09437672  0.59757211  0.90676651  1
  Te  Te105  1  0.07439248  0.92962949  0.25358264  1
  Te  Te106  1  0.07146679  0.91996003  0.60940650  1
  Te  Te107  1  0.10191390  0.91461157  0.92536982  1
  Te  Te108  1  0.42040322  0.27924539  0.25432631  1
  Te  Te109  1  0.40028152  0.26141612  0.61084755  1
  Te  Te110  1  0.39065109  0.25324666  0.90770513  1
  Te  Te111  1  0.45079595  0.59144489  0.22350230  1
  Te  Te112  1  0.47467616  0.58636561  0.60176438  1
  Te  Te113  1  0.45003426  0.59565058  0.93165772  1
  Te  Te114  1  0.42798235  0.92588097  0.26526177  1
  Te  Te115  1  0.42901444  0.90624316  0.56528160  1
  Te  Te116  1  0.40767424  0.93899438  0.94222975  1
  Te  Te117  1  0.74639841  0.25029406  0.21531727  1
  Te  Te118  1  0.78276791  0.22616111  0.58628404  1
  Te  Te119  1  0.74940788  0.25287302  0.92836130  1
  Te  Te120  1  0.78343203  0.57840540  0.25559785  1
  Te  Te121  1  0.73723622  0.59396918  0.58152867  1
  Te  Te122  1  0.72821505  0.59937428  0.91659820  1
  Te  Te123  1  0.74466539  0.90667181  0.24426399  1
  Te  Te124  1  0.76831541  0.88391677  0.58742823  1
  Te  Te125  1  0.74255970  0.86421451  0.94249738  1
  Te  Te126  1  0.24034979  0.29554598  0.10914884  1
  Te  Te127  1  0.24819042  0.27200186  0.39413842  1
  Te  Te128  1  0.22559109  0.23410625  0.74293350  1
  Te  Te129  1  0.24823267  0.57394082  0.07901133  1
  Te  Te130  1  0.24477655  0.57950832  0.37167224  1
  Te  Te131  1  0.26337871  0.59973369  0.75037612  1
  Te  Te132  1  0.24754540  0.91939611  0.10272180  1
  Te  Te133  1  0.25952956  0.91661410  0.40376650  1
  Te  Te134  1  0.26557165  0.93193450  0.72465973  1
  Te  Te135  1  0.60281090  0.24108500  0.09054858  1
  Te  Te136  1  0.57701692  0.23664015  0.41935538  1
  Te  Te137  1  0.57425455  0.24874391  0.76719040  1
  Te  Te138  1  0.62985323  0.60555643  0.05530576  1
  Te  Te139  1  0.59188894  0.57025176  0.40570939  1
  Te  Te140  1  0.54717151  0.57206369  0.73784690  1
  Te  Te141  1  0.60222229  0.89552299  0.08489432  1
  Te  Te142  1  0.59887660  0.91526364  0.40755983  1
  Te  Te143  1  0.60211241  0.90792830  0.74119543  1
  Te  Te144  1  0.87582664  0.27483033  0.10950129  1
  Te  Te145  1  0.90827525  0.26286937  0.40752776  1
  Te  Te146  1  0.91013966  0.23321842  0.74735281  1
  Te  Te147  1  0.90088839  0.61763615  0.05910646  1
  Te  Te148  1  0.90647678  0.57713498  0.43730536  1
  Te  Te149  1  0.92136565  0.56535367  0.76095647  1
  Te  Te150  1  0.92622246  0.89686540  0.08367012  1
  Te  Te151  1  0.93453948  0.89719012  0.43463923  1
  Te  Te152  1  0.88918484  0.89374448  0.75984142  1
  Te  Te153  1  0.25072882  0.09606382  0.25276909  1
  Te  Te154  1  0.25011345  0.08495351  0.57083530  1
  Te  Te155  1  0.24002648  0.09861240  0.93983742  1
  Te  Te156  1  0.25182298  0.45531452  0.28561023  1
  Te  Te157  1  0.26214861  0.44731487  0.58167586  1
  Te  Te158  1  0.26129150  0.43753897  0.91452381  1
  Te  Te159  1  0.26621220  0.72405238  0.25712534  1
  Te  Te160  1  0.23619901  0.75353305  0.58582375  1
  Te  Te161  1  0.26972187  0.75806099  0.91023107  1
  Te  Te162  1  0.59195782  0.08172111  0.23136767  1
  Te  Te163  1  0.61181701  0.06949346  0.58834998  1
  Te  Te164  1  0.60251134  0.07191906  0.94145804  1
  Te  Te165  1  0.62435106  0.44143744  0.23136383  1
  Te  Te166  1  0.60356980  0.40376184  0.58673870  1
  Te  Te167  1  0.60513025  0.41197268  0.94866597  1
  Te  Te168  1  0.59046674  0.75901351  0.23887489  1
  Te  Te169  1  0.56429124  0.72202381  0.55259815  1
  Te  Te170  1  0.54113625  0.72867406  0.88846854  1
  Te  Te171  1  0.92233288  0.09270474  0.23583153  1
  Te  Te172  1  0.92155188  0.07867593  0.56814605  1
  Te  Te173  1  0.90869252  0.06895376  0.91031481  1
  Te  Te174  1  0.87551584  0.44430791  0.23818983  1
  Te  Te175  1  0.89402532  0.40998851  0.59435736  1
  Te  Te176  1  0.87529023  0.43048785  0.94499522  1
  Te  Te177  1  0.92601835  0.75014970  0.24751827  1
  Te  Te178  1  0.96330087  0.73823842  0.61582600  1
  Te  Te179  1  0.90259464  0.74560562  0.93816546  1
