# generated using pymatgen
data_In2Te3
_symmetry_space_group_name_H-M   'P 1'
_cell_length_a   18.89308738
_cell_length_b   18.90097394
_cell_length_c   18.89673676
_cell_angle_alpha   90.06279485
_cell_angle_beta   90.07266261
_cell_angle_gamma   89.86635728
_symmetry_Int_Tables_number   1
_chemical_formula_structural   In2Te3
_chemical_formula_sum   'In72 Te108'
_cell_volume   6747.95440990
_cell_formula_units_Z   36
loop_
 _symmetry_equiv_pos_site_id
 _symmetry_equiv_pos_as_xyz
  1  'x, y, z'
loop_
 _atom_site_type_symbol
 _atom_site_label
 _atom_site_symmetry_multiplicity
 _atom_site_fract_x
 _atom_site_fract_y
 _atom_site_fract_z
 _atom_site_occupancy
  In  In0  1  0.17189362  0.12511326  0.36598509  1
  In  In1  1  0.60824456  0.28725569  0.67799690  1
  In  In2  1  0.81861552  0.15650175  0.67947133  1
  In  In3  1  0.01832201  0.67276900  0.32815891  1
  In  In4  1  0.80492306  0.32066605  0.82970725  1
  In  In5  1  0.35129597  0.00362754  0.32735276  1
  In  In6  1  0.83566484  0.80666928  0.02846349  1
  In  In7  1  0.33685893  0.30747685  -0.00738048  1
  In  In8  1  0.02903506  -0.01338471  0.68196100  1
  In  In9  1  0.19247524  0.35449608  0.52333806  1
  In  In10  1  0.15968828  0.66970222  0.16706860  1
  In  In11  1  0.17403570  0.82938042  0.64261126  1
  In  In12  1  0.17660307  0.48024098  -0.01062015  1
  In  In13  1  0.48183928  0.66955066  0.82514797  1
  In  In14  1  0.85246346  0.49039505  0.03225391  1
  In  In15  1  0.47886973  0.69921606  0.47167542  1
  In  In16  1  -0.01316485  0.17194460  0.17455053  1
  In  In17  1  0.00080538  0.31288017  0.01641796  1
  In  In18  1  0.49725491  0.83234246  0.01956490  1
  In  In19  1  0.85394587  0.66511756  0.51515643  1
  In  In20  1  0.63457396  -0.00124705  -0.00479438  1
  In  In21  1  0.17013819  0.16063062  -0.01266375  1
  In  In22  1  0.20569352  0.64252276  0.48354637  1
  In  In23  1  0.64846130  0.01097896  0.35471865  1
  In  In24  1  0.48005607  0.50597076  -0.01548272  1
  In  In25  1  0.48864825  0.48672403  0.33375984  1
  In  In26  1  0.31878957  0.84958761  0.82249538  1
  In  In27  1  0.01347628  0.31205901  0.65419417  1
  In  In28  1  0.49047864  0.67995050  0.17333349  1
  In  In29  1  0.64129516  0.32774482  -0.01845926  1
  In  In30  1  0.84893643  0.48833608  0.67982635  1
  In  In31  1  0.65517171  0.16847143  0.50642773  1
  In  In32  1  0.18651932  0.85228377  0.35676036  1
  In  In33  1  0.65495585  0.51015268  0.85886128  1
  In  In34  1  0.02313017  0.66312847  -0.00026362  1
  In  In35  1  0.49649227  0.01682283  0.80781435  1
  In  In36  1  0.32198395  0.14952482  0.51038843  1
  In  In37  1  0.63774217  0.14959233  0.16122839  1
  In  In38  1  0.36833213  0.03174968  0.00987101  1
  In  In39  1  0.67495613  0.86161505  0.82458510  1
  In  In40  1  0.11404516  0.83788877  0.84249840  1
  In  In41  1  0.16702193  0.33687031  0.15576641  1
  In  In42  1  0.64613618  0.84138470  0.50216547  1
  In  In43  1  0.47228245  0.32858404  0.50978681  1
  In  In44  1  -0.00105222  0.51000070  0.84327269  1
  In  In45  1  0.81065219  0.66534867  0.15635799  1
  In  In46  1  0.18643507  0.34779832  0.80781425  1
  In  In47  1  0.02878077  0.50380225  0.52248450  1
  In  In48  1  0.66262314  0.66487701  0.00155839  1
  In  In49  1  0.85550741  0.18219501  0.33514125  1
  In  In50  1  0.03239945  0.08373799  0.84360548  1
  In  In51  1  0.48573244  0.49680583  0.67731531  1
  In  In52  1  0.65265777  0.35320478  0.33522626  1
  In  In53  1  0.00748260  0.33530165  0.36143650  1
  In  In54  1  0.83269314  0.01733417  0.83181738  1
  In  In55  1  0.32703302  0.65581563  0.66375586  1
  In  In56  1  0.86804633  -0.00376524  0.50448209  1
  In  In57  1  0.81044175  0.34281699  0.17498942  1
  In  In58  1  0.82591021  0.00210327  0.17770317  1
  In  In59  1  0.82582078  0.49756306  0.32674610  1
  In  In60  1  0.84225944  0.82937633  0.65792899  1
  In  In61  1  0.81631598  0.85743699  0.35819698  1
  In  In62  1  0.84406445  0.67679014  0.82261042  1
  In  In63  1  0.33070298  0.83282358  0.17087165  1
  In  In64  1  0.34463852  0.50716581  0.16924369  1
  In  In65  1  0.64691182  0.67832513  0.32140135  1
  In  In66  1  0.62054201  0.00600755  0.64093210  1
  In  In67  1  -0.00147911  0.81929586  0.18063169  1
  In  In68  1  0.68890887  0.49316748  0.49931460  1
  In  In69  1  0.32080445  0.15979943  0.81713639  1
  In  In70  1  0.35797635  0.31026754  0.31506163  1
  In  In71  1  0.17226614  -0.00161059  0.15398873  1
  Te  Te72  1  0.07288343  0.08797442  0.08061852  1
  Te  Te73  1  0.09084799  0.03723925  0.44667206  1
  Te  Te74  1  0.10890393  0.10648148  0.72095556  1
  Te  Te75  1  0.06918049  0.42979068  0.08500823  1
  Te  Te76  1  0.11162102  0.43121563  0.41795310  1
  Te  Te77  1  0.07323638  0.42304075  0.74061220  1
  Te  Te78  1  0.09742879  0.77374954  0.07413307  1
  Te  Te79  1  0.10183458  0.74630751  0.42840324  1
  Te  Te80  1  0.08364402  0.75187082  0.72903413  1
  Te  Te81  1  0.43685620  0.13031237  0.09731943  1
  Te  Te82  1  0.42281763  0.10348399  0.41158772  1
  Te  Te83  1  0.38250142  0.05973979  0.71908707  1
  Te  Te84  1  0.41540784  0.40623573  0.08040280  1
  Te  Te85  1  0.38591952  0.42785781  0.43157049  1
  Te  Te86  1  0.39014273  0.38788802  0.70541201  1
  Te  Te87  1  0.39440827  0.73431419  0.06852717  1
  Te  Te88  1  0.37500217  0.79193947  0.42271499  1
  Te  Te89  1  0.40921806  0.76535302  0.73258579  1
  Te  Te90  1  0.74170186  0.07787090  0.07699074  1
  Te  Te91  1  0.76104301  0.08773127  0.42824977  1
  Te  Te92  1  0.71788046  0.06800649  0.74833482  1
  Te  Te93  1  0.72637289  0.42096818  0.07522760  1
  Te  Te94  1  0.77188786  0.39141760  0.42196473  1
  Te  Te95  1  0.73007857  0.42641812  0.75261297  1
  Te  Te96  1  0.70962031  0.76681392  0.10468238  1
  Te  Te97  1  0.74816802  0.73802830  0.42808818  1
  Te  Te98  1  0.74008577  0.75125261  0.74145296  1
  Te  Te99  1  0.08690099  0.25209231  0.25496269  1
  Te  Te100  1  0.10844871  0.24171512  0.56673161  1
  Te  Te101  1  0.09697118  0.26818827  0.90906863  1
  Te  Te102  1  0.10028793  0.57325842  0.26001516  1
  Te  Te103  1  0.12100869  0.59250213  0.59766461  1
  Te  Te104  1  0.11382018  0.58975842  0.90160109  1
  Te  Te105  1  0.09281643  0.91543821  0.25292502  1
  Te  Te106  1  0.09328046  0.92757375  0.55829945  1
  Te  Te107  1  0.07996924  0.96218810  0.91274535  1
  Te  Te108  1  0.43525245  0.22439821  0.22297938  1
  Te  Te109  1  0.38355876  0.25449422  0.60535069  1
  Te  Te110  1  0.42377807  0.24010532  0.89079147  1
  Te  Te111  1  0.40377552  0.60261457  0.27461825  1
  Te  Te112  1  0.43059566  0.59038021  0.57257949  1
  Te  Te113  1  0.38947387  0.58851952  0.90303752  1
  Te  Te114  1  0.43090945  0.92771174  0.22520276  1
  Te  Te115  1  0.49375384  0.95628322  0.56442932  1
  Te  Te116  1  0.42942066  0.91988399  0.91363732  1
  Te  Te117  1  0.73637223  0.23553710  0.25533585  1
  Te  Te118  1  0.73716068  0.25718206  0.59965261  1
  Te  Te119  1  0.73223918  0.23137963  0.91778924  1
  Te  Te120  1  0.72564133  0.57228378  0.24128903  1
  Te  Te121  1  0.75796119  0.58382284  0.59961680  1
  Te  Te122  1  0.77783831  0.58703460  0.92852053  1
  Te  Te123  1  0.72452457  0.91995157  0.25572308  1
  Te  Te124  1  0.74958191  0.92782453  0.58356499  1
  Te  Te125  1  0.75845624  0.91115552  0.94012327  1
  Te  Te126  1  0.25390538  0.22953958  0.09311629  1
  Te  Te127  1  0.25110546  0.25077955  0.40838683  1
  Te  Te128  1  0.25142123  0.24877934  0.71819015  1
  Te  Te129  1  0.24872132  0.58168288  0.07786469  1
  Te  Te130  1  0.30140989  0.56051328  0.40828451  1
  Te  Te131  1  0.23612042  0.55389817  0.71860114  1
  Te  Te132  1  0.26898035  0.92424789  0.06534877  1
  Te  Te133  1  0.28966625  0.92382091  0.44039615  1
  Te  Te134  1  0.25463445  0.93772249  0.71550000  1
  Te  Te135  1  0.55792249  0.24406002  0.07558028  1
  Te  Te136  1  0.56837755  0.25696308  0.41561019  1
  Te  Te137  1  0.53998814  0.20486046  0.77687840  1
  Te  Te138  1  0.56818046  0.58167067  0.08397125  1
  Te  Te139  1  0.58739212  0.57421222  0.41881700  1
  Te  Te140  1  0.58662938  0.59031384  0.74917212  1
  Te  Te141  1  0.55634489  0.93764165  0.10559977  1
  Te  Te142  1  0.54658550  0.92055532  0.42247534  1
  Te  Te143  1  0.56041315  0.89714606  0.73569954  1
  Te  Te144  1  0.88563428  0.24361725  0.08584823  1
  Te  Te145  1  0.94162907  0.23204658  0.44223223  1
  Te  Te146  1  0.91481189  0.24819866  0.75510920  1
  Te  Te147  1  0.93557746  0.59437682  0.10523793  1
  Te  Te148  1  0.92630794  0.57133458  0.41598228  1
  Te  Te149  1  0.93893349  0.59874010  0.73356115  1
  Te  Te150  1  0.92047833  0.91678228  0.09222569  1
  Te  Te151  1  0.94205558  0.90793731  0.41294098  1
  Te  Te152  1  0.91688859  0.91373691  0.76003345  1
  Te  Te153  1  0.25373184  0.08903428  0.24423955  1
  Te  Te154  1  0.26545058  0.05032215  0.60619772  1
  Te  Te155  1  0.25431942  0.06064910  0.91123607  1
  Te  Te156  1  0.26051149  0.40996790  0.25032877  1
  Te  Te157  1  0.27147950  0.44120799  0.61768525  1
  Te  Te158  1  0.28347125  0.41836401  0.90033210  1
  Te  Te159  1  0.24876992  0.74676678  0.26361229  1
  Te  Te160  1  0.28148781  0.75964748  0.55891581  1
  Te  Te161  1  0.22949913  0.76725063  0.90244569  1
  Te  Te162  1  0.55737739  0.10060938  0.27698542  1
  Te  Te163  1  0.53268982  0.10716158  0.57087558  1
  Te  Te164  1  0.57139087  0.10058140  0.90660456  1
  Te  Te165  1  0.56837409  0.41538502  0.23355824  1
  Te  Te166  1  0.58551205  0.41337567  0.58016571  1
  Te  Te167  1  0.54847713  0.40795693  0.88843958  1
  Te  Te168  1  0.55033445  0.77492723  0.26916271  1
  Te  Te169  1  0.57477260  0.73788807  0.57613113  1
  Te  Te170  1  0.58541953  0.75679245  0.90878290  1
  Te  Te171  1  0.92946242  0.06693385  0.26870999  1
  Te  Te172  1  0.93123444  0.08552821  0.60735253  1
  Te  Te173  1  0.91006572  0.10210169  0.92213144  1
  Te  Te174  1  0.92351617  0.40879046  0.25094141  1
  Te  Te175  1  0.92270298  0.40797549  0.57455539  1
  Te  Te176  1  0.91125424  0.40789503  0.91684380  1
  Te  Te177  1  0.89094004  0.74709332  0.26278771  1
  Te  Te178  1  0.94415591  0.76128833  0.57735407  1
  Te  Te179  1  0.93026438  0.75567522  0.91956711  1
