# generated using pymatgen
data_In2Te3
_symmetry_space_group_name_H-M   'P 1'
_cell_length_a   18.99291945
_cell_length_b   18.97988932
_cell_length_c   18.99343025
_cell_angle_alpha   89.95139102
_cell_angle_beta   90.00965955
_cell_angle_gamma   89.90531784
_symmetry_Int_Tables_number   1
_chemical_formula_structural   In2Te3
_chemical_formula_sum   'In72 Te108'
_cell_volume   6846.80647299
_cell_formula_units_Z   36
loop_
 _symmetry_equiv_pos_site_id
 _symmetry_equiv_pos_as_xyz
  1  'x, y, z'
loop_
 _atom_site_type_symbol
 _atom_site_label
 _atom_site_symmetry_multiplicity
 _atom_site_fract_x
 _atom_site_fract_y
 _atom_site_fract_z
 _atom_site_occupancy
  In  In0  1  0.33990110  0.84648546  0.17023777  1
  In  In1  1  0.66839446  0.32774956  0.01025099  1
  In  In2  1  0.54426055  0.02413029  0.84330658  1
  In  In3  1  0.50220793  0.83748455  0.66467801  1
  In  In4  1  0.35112710  0.70704889  0.33474960  1
  In  In5  1  0.16214259  -0.00483191  0.85384518  1
  In  In6  1  0.83180243  0.15476417  -0.01164211  1
  In  In7  1  0.30958011  0.64707823  0.66015365  1
  In  In8  1  0.68083563  0.65126826  0.00596990  1
  In  In9  1  0.49396475  0.34907919  0.17979234  1
  In  In10  1  0.32334989  0.00989728  0.64079335  1
  In  In11  1  0.79770105  0.12675095  0.68940984  1
  In  In12  1  0.52171741  0.16916350  0.35362113  1
  In  In13  1  0.86195649  0.48906562  0.33803415  1
  In  In14  1  0.67175419  0.64833108  0.66267031  1
  In  In15  1  0.30972213  0.48100949  0.16020440  1
  In  In16  1  -0.00226768  0.64239374  0.01152862  1
  In  In17  1  0.82924480  0.32865234  0.82573856  1
  In  In18  1  0.01888708  0.16126287  0.15913036  1
  In  In19  1  0.16959198  0.18068977  0.33799016  1
  In  In20  1  0.51136503  0.51734935  0.31780293  1
  In  In21  1  0.14712776  0.65216925  0.50864346  1
  In  In22  1  0.65547157  0.32299848  0.66936333  1
  In  In23  1  0.51074166  0.68505486  0.82931396  1
  In  In24  1  -0.00660016  0.17037788  0.50468483  1
  In  In25  1  0.50004512  -0.01205945  0.50121960  1
  In  In26  1  0.35969515  -0.00206317  -0.01879221  1
  In  In27  1  0.14212033  0.81547911  0.66074386  1
  In  In28  1  -0.00670270  0.82376645  0.51037385  1
  In  In29  1  0.33991237  0.65614464  0.00566929  1
  In  In30  1  0.65561861  0.84452820  0.83779725  1
  In  In31  1  -0.00638687  0.83453972  0.15404443  1
  In  In32  1  0.85965550  0.64865689  0.17609795  1
  In  In33  1  0.49286538  0.67650616  0.14649274  1
  In  In34  1  0.02795618  0.62002468  0.34334422  1
  In  In35  1  -0.00564778  0.35808659  0.65664603  1
  In  In36  1  0.84480282  0.01566783  0.18695677  1
  In  In37  1  0.17873917  0.83854045  0.31716036  1
  In  In38  1  -0.00884045  0.18590238  0.85063621  1
  In  In39  1  0.51949077  0.15137459  0.65345973  1
  In  In40  1  0.17218968  0.18217224  0.01394629  1
  In  In41  1  -0.00228504  -0.01204930  0.66548531  1
  In  In42  1  0.80845363  0.86974562  0.63903910  1
  In  In43  1  0.82685536  0.66171190  0.84614139  1
  In  In44  1  0.65907722  0.67876120  0.35131104  1
  In  In45  1  0.49926340  0.31886413  0.50140764  1
  In  In46  1  -0.01027440  0.81313522  0.82030340  1
  In  In47  1  0.31824645  0.35893700  0.63658577  1
  In  In48  1  0.50615127  0.32999650  0.85561506  1
  In  In49  1  0.32793700  0.50378078  0.83016742  1
  In  In50  1  0.49948788  0.51535530  0.67493378  1
  In  In51  1  0.18614602  0.16902501  0.67686780  1
  In  In52  1  0.01468810  -0.01869941  0.33216736  1
  In  In53  1  -0.00719994  0.49362714  0.84040160  1
  In  In54  1  0.33511055  0.33754679  -0.01522466  1
  In  In55  1  0.67403057  0.18242967  0.18075039  1
  In  In56  1  0.63300451  0.86048151  0.15130764  1
  In  In57  1  0.66999128  0.48879345  0.17163996  1
  In  In58  1  0.79581221  0.84703498  0.00701923  1
  In  In59  1  0.33121451  0.16269419  0.14825312  1
  In  In60  1  0.17902231  0.80747026  0.00031735  1
  In  In61  1  0.31339600  0.83621120  0.84289484  1
  In  In62  1  0.80353825  0.18266734  0.34781278  1
  In  In63  1  0.01376560  0.33135065  0.02488094  1
  In  In64  1  0.31175360  0.33848093  0.32290244  1
  In  In65  1  0.84140102  0.49071192  0.66252317  1
  In  In66  1  0.81764728  0.82546163  0.35410657  1
  In  In67  1  0.66156159  -0.00877575  0.35535419  1
  In  In68  1  0.33278332  0.01634112  0.32606749  1
  In  In69  1  0.35074089  0.18686022  0.81307588  1
  In  In70  1  0.84664496  0.34760579  0.51865537  1
  In  In71  1  0.33784021  0.51337343  0.49183847  1
  Te  Te72  1  0.07958263  0.07794005  0.05529589  1
  Te  Te73  1  0.08407203  0.08156214  0.42111592  1
  Te  Te74  1  0.08102774  0.08167732  0.75726922  1
  Te  Te75  1  0.06816938  0.43292962  0.11714656  1
  Te  Te76  1  0.11772205  0.31963797  0.37994292  1
  Te  Te77  1  0.08500189  0.42046911  0.75091601  1
  Te  Te78  1  0.08815463  0.73249886  0.09541185  1
  Te  Te79  1  0.08019130  0.75664318  0.40274949  1
  Te  Te80  1  0.08199642  0.72205755  0.75383684  1
  Te  Te81  1  0.42635895  0.05978074  0.09809982  1
  Te  Te82  1  0.41801279  0.09472331  0.43285490  1
  Te  Te83  1  0.41790702  0.06875509  0.74432916  1
  Te  Te84  1  0.42284835  0.42651545  0.07282543  1
  Te  Te85  1  0.42316486  0.41438663  0.40873192  1
  Te  Te86  1  0.42531629  0.40317738  0.74627482  1
  Te  Te87  1  0.41798269  0.77463942  0.05973296  1
  Te  Te88  1  0.45470745  0.78312424  0.40100629  1
  Te  Te89  1  0.39942938  0.74546233  0.74540400  1
  Te  Te90  1  0.74736231  0.08189177  0.09269235  1
  Te  Te91  1  0.76759490  0.06435573  0.42852322  1
  Te  Te92  1  0.71048993  0.05181624  0.78022286  1
  Te  Te93  1  0.76094949  0.39837750  0.10066769  1
  Te  Te94  1  0.76385704  0.42188906  0.42406972  1
  Te  Te95  1  0.73859820  0.42185986  0.74961005  1
  Te  Te96  1  0.74903735  0.74338658  0.10741748  1
  Te  Te97  1  0.73240146  0.75857432  0.45156136  1
  Te  Te98  1  0.74442627  0.75216892  0.75689990  1
  Te  Te99  1  0.09285617  0.26688330  0.23551630  1
  Te  Te100  1  0.08432789  0.24970544  0.59537306  1
  Te  Te101  1  0.09862915  0.26955509  0.91389905  1
  Te  Te102  1  0.05281475  0.56075232  0.21026168  1
  Te  Te103  1  0.06386220  0.55710877  0.57808995  1
  Te  Te104  1  0.08772673  0.57089542  0.92287705  1
  Te  Te105  1  0.09671541  0.92396268  0.21959990  1
  Te  Te106  1  0.09270364  0.92414934  0.56745224  1
  Te  Te107  1  0.07882602  0.89029168  0.92081198  1
  Te  Te108  1  0.41503748  0.24001008  0.25838384  1
  Te  Te109  1  0.41114403  0.24255466  0.59691771  1
  Te  Te110  1  0.42825539  0.22739687  0.93585396  1
  Te  Te111  1  0.40679490  0.58711070  0.23439535  1
  Te  Te112  1  0.42786907  0.60407473  0.57548169  1
  Te  Te113  1  0.43083269  0.58205153  0.90887907  1
  Te  Te114  1  0.42604965  0.92696325  0.25579767  1
  Te  Te115  1  0.39778469  0.89789222  0.57277591  1
  Te  Te116  1  0.43498688  0.91494622  0.88122744  1
  Te  Te117  1  0.77092164  0.27599150  0.24038064  1
  Te  Te118  1  0.76117917  0.24330193  0.59783176  1
  Te  Te119  1  0.73811085  0.23813970  0.90425189  1
  Te  Te120  1  0.74674890  0.58748795  0.25920716  1
  Te  Te121  1  0.75358254  0.56500586  0.57345776  1
  Te  Te122  1  0.76552708  0.55631288  0.92993019  1
  Te  Te123  1  0.74938739  0.91031392  0.24373881  1
  Te  Te124  1  0.72674278  0.96259976  0.56007367  1
  Te  Te125  1  0.74830503  0.94175545  0.90323414  1
  Te  Te126  1  0.24979567  0.28060491  0.09826095  1
  Te  Te127  1  0.25318576  0.26308967  0.43812225  1
  Te  Te128  1  0.25062548  0.28186703  0.75450638  1
  Te  Te129  1  0.23885401  0.56505795  0.06192959  1
  Te  Te130  1  0.25811865  0.61341079  0.41011134  1
  Te  Te131  1  0.23068101  0.54451320  0.72702088  1
  Te  Te132  1  0.25700510  0.91980746  0.06434455  1
  Te  Te133  1  0.25275551  0.92403493  0.40781077  1
  Te  Te134  1  0.23583291  0.92004916  0.74139927  1
  Te  Te135  1  0.56806659  0.24882391  0.09480471  1
  Te  Te136  1  0.61059959  0.24714110  0.43825977  1
  Te  Te137  1  0.58273749  0.23168416  0.76509989  1
  Te  Te138  1  0.57750112  0.56930436  0.08098222  1
  Te  Te139  1  0.57460378  0.58649283  0.42813720  1
  Te  Te140  1  0.59788860  0.57471182  0.77366435  1
  Te  Te141  1  0.56679233  0.94921392  0.05756288  1
  Te  Te142  1  0.56977972  0.88750926  0.41256525  1
  Te  Te143  1  0.59859402  0.93576897  0.72767308  1
  Te  Te144  1  0.91097577  0.23991692  0.08712588  1
  Te  Te145  1  0.91619905  0.26239739  0.41259816  1
  Te  Te146  1  0.91270287  0.24221000  0.73411138  1
  Te  Te147  1  0.87814168  0.56543218  0.05495664  1
  Te  Te148  1  0.90666665  0.60277005  0.41953870  1
  Te  Te149  1  0.91664167  0.58896073  0.74789985  1
  Te  Te150  1  0.90540970  0.92990379  0.07750743  1
  Te  Te151  1  0.91256311  0.92063559  0.42541683  1
  Te  Te152  1  0.90034002  0.91634074  0.75499306  1
  Te  Te153  1  0.23483690  0.08593702  0.23309334  1
  Te  Te154  1  0.24163921  0.09946321  0.56130553  1
  Te  Te155  1  0.25971660  0.09862935  0.90717501  1
  Te  Te156  1  0.22744236  0.44908038  0.27789186  1
  Te  Te157  1  0.22758937  0.43514876  0.55096542  1
  Te  Te158  1  0.24148842  0.43675195  0.92944463  1
  Te  Te159  1  0.24881506  0.73923430  0.22667488  1
  Te  Te160  1  0.24469953  0.75072375  0.57045756  1
  Te  Te161  1  0.24346469  0.71586952  0.89869443  1
  Te  Te162  1  0.58962752  0.07771015  0.25492685  1
  Te  Te163  1  0.60960366  0.06802534  0.56828331  1
  Te  Te164  1  0.57529391  0.07771080  0.97392169  1
  Te  Te165  1  0.59846140  0.40088625  0.27480319  1
  Te  Te166  1  0.57773523  0.42117226  0.58443257  1
  Te  Te167  1  0.59374148  0.42187843  0.92508184  1
  Te  Te168  1  0.57732470  0.75485139  0.24236787  1
  Te  Te169  1  0.60098880  0.75730360  0.59251489  1
  Te  Te170  1  0.58900262  0.75321561  0.93914290  1
  Te  Te171  1  0.93336536  0.10083572  0.27398427  1
  Te  Te172  1  0.90490467  0.07911683  0.58935773  1
  Te  Te173  1  0.93005945  0.07225440  0.91694402  1
  Te  Te174  1  0.95153443  0.44532145  0.22665127  1
  Te  Te175  1  0.97247203  0.44174387  0.53229872  1
  Te  Te176  1  0.91374533  0.39776726  0.92742261  1
  Te  Te177  1  0.92201080  0.75791727  0.26233198  1
  Te  Te178  1  0.90038448  0.76136986  0.60342338  1
  Te  Te179  1  0.90427717  0.75596052  0.93902696  1
