# generated using pymatgen
data_In2Te3
_symmetry_space_group_name_H-M   'P 1'
_cell_length_a   18.91446923
_cell_length_b   18.91342302
_cell_length_c   18.92284419
_cell_angle_alpha   90.02686126
_cell_angle_beta   89.97737352
_cell_angle_gamma   89.87195401
_symmetry_Int_Tables_number   1
_chemical_formula_structural   In2Te3
_chemical_formula_sum   'In72 Te108'
_cell_volume   6769.39010416
_cell_formula_units_Z   36
loop_
 _symmetry_equiv_pos_site_id
 _symmetry_equiv_pos_as_xyz
  1  'x, y, z'
loop_
 _atom_site_type_symbol
 _atom_site_label
 _atom_site_symmetry_multiplicity
 _atom_site_fract_x
 _atom_site_fract_y
 _atom_site_fract_z
 _atom_site_occupancy
  In  In0  1  0.82375763  -0.01022123  0.16080182  1
  In  In1  1  0.01937020  -0.01515708  0.30948320  1
  In  In2  1  0.64630924  -0.01361157  -0.00349678  1
  In  In3  1  0.32233537  0.47602163  0.17393307  1
  In  In4  1  0.02084872  0.66175956  0.32614859  1
  In  In5  1  0.63161881  0.80286585  0.52489483  1
  In  In6  1  0.84652428  0.32762124  0.18056914  1
  In  In7  1  0.85491704  0.81722560  0.33051745  1
  In  In8  1  0.16030356  -0.00287331  0.81931337  1
  In  In9  1  0.48452688  -0.00509444  0.16925671  1
  In  In10  1  0.51789646  0.68403041  0.16619003  1
  In  In11  1  0.18123672  0.17652093  0.01870267  1
  In  In12  1  0.35863010  0.82779228  0.48960098  1
  In  In13  1  0.64067123  -0.01501470  0.67119885  1
  In  In14  1  0.80022456  0.80740568  0.01728584  1
  In  In15  1  0.17525710  0.65982159  0.16247231  1
  In  In16  1  0.18763105  0.00340202  0.16900501  1
  In  In17  1  -0.02041701  0.16954767  0.85576403  1
  In  In18  1  0.34445335  0.84130921  0.17132128  1
  In  In19  1  0.85778824  0.64488679  0.81127488  1
  In  In20  1  0.66544682  0.50253859  0.19527414  1
  In  In21  1  0.32160118  -0.01577196  0.63663852  1
  In  In22  1  0.48838674  0.67740704  0.82949657  1
  In  In23  1  0.80383373  -0.01311977  0.51354758  1
  In  In24  1  0.84237363  0.15479163  0.34181692  1
  In  In25  1  0.32673298  0.52939843  0.84352250  1
  In  In26  1  0.18700208  -0.02466877  0.47772897  1
  In  In27  1  0.50836149  0.17455375  0.03401707  1
  In  In28  1  0.34868903  0.34231024  0.69002798  1
  In  In29  1  0.65831501  0.66933696  0.32108545  1
  In  In30  1  0.83092858  0.34243210  0.52368735  1
  In  In31  1  0.49399105  0.84149029  -0.00592592  1
  In  In32  1  0.65665268  0.15581007  0.84061883  1
  In  In33  1  0.65487466  0.51615728  0.82850528  1
  In  In34  1  0.65970209  0.32567942  0.31825051  1
  In  In35  1  0.00508305  0.35860279  0.63996273  1
  In  In36  1  -0.00779374  -0.01187794  0.64071391  1
  In  In37  1  0.02352249  0.68395756  -0.00911566  1
  In  In38  1  0.67853260  0.52138581  0.51513055  1
  In  In39  1  0.15937662  0.12182055  0.62498139  1
  In  In40  1  0.01067173  0.48896496  0.14974721  1
  In  In41  1  0.82654943  0.32614564  0.84678089  1
  In  In42  1  -0.00330122  0.18203865  0.48970853  1
  In  In43  1  0.33356125  0.82697903  0.84261217  1
  In  In44  1  0.16244614  0.68267233  0.82497730  1
  In  In45  1  0.82042559  0.53133465  0.33453209  1
  In  In46  1  0.00289178  0.82243678  0.49285207  1
  In  In47  1  0.64106676  -0.01319914  0.33340267  1
  In  In48  1  0.16784003  0.52675672  0.66441311  1
  In  In49  1  0.43989593  0.15794372  0.33300682  1
  In  In50  1  0.17394122  0.32522198  0.80090604  1
  In  In51  1  0.84006000  0.67629148  0.52024084  1
  In  In52  1  0.82654270  0.51176045  0.00436017  1
  In  In53  1  0.33208331  0.32562531  0.02798600  1
  In  In54  1  0.00876811  0.83454547  0.81289345  1
  In  In55  1  0.66230114  0.34310530  0.67267122  1
  In  In56  1  0.50944729  0.48533938  0.32204260  1
  In  In57  1  0.80287168  0.18612067  0.67249194  1
  In  In58  1  0.51374839  0.34512208  0.48992803  1
  In  In59  1  0.49937486  0.35938277  0.84600268  1
  In  In60  1  0.81098056  0.15295612  -0.00531055  1
  In  In61  1  0.32937255  0.15335047  0.83337059  1
  In  In62  1  0.00894697  -0.01128372  0.00284181  1
  In  In63  1  0.15960689  0.48789307  -0.00427969  1
  In  In64  1  -0.00227643  0.34818476  0.01776016  1
  In  In65  1  0.48530101  0.15219220  0.64887558  1
  In  In66  1  0.33657973  0.65141060  0.35783675  1
  In  In67  1  0.66254232  0.81294275  0.81673943  1
  In  In68  1  0.17974704  0.17300389  0.32036395  1
  In  In69  1  0.18233555  0.67437949  0.49827172  1
  In  In70  1  0.34171530  0.52380045  0.52383757  1
  In  In71  1  0.11561393  0.34707184  0.35810427  1
  Te  Te72  1  0.07997661  0.09059812  0.08974437  1
  Te  Te73  1  0.07889676  0.07488779  0.42051303  1
  Te  Te74  1  0.06565509  0.09418944  0.74781655  1
  Te  Te75  1  0.11700008  0.38673222  0.10163375  1
  Te  Te76  1  0.10731191  0.46274491  0.44771084  1
  Te  Te77  1  0.07997542  0.43143331  0.75054086  1
  Te  Te78  1  0.09632759  0.76243682  0.09152399  1
  Te  Te79  1  0.10638517  0.76403329  0.39975700  1
  Te  Te80  1  0.06668621  0.73177343  0.72285417  1
  Te  Te81  1  0.40224159  0.08791763  0.08679221  1
  Te  Te82  1  0.41509279  0.07399406  0.45396511  1
  Te  Te83  1  0.40619855  0.06131600  0.74045726  1
  Te  Te84  1  0.41762797  0.43753987  0.06712740  1
  Te  Te85  1  0.40889285  0.42893147  0.42009794  1
  Te  Te86  1  0.42802474  0.45299544  0.75017315  1
  Te  Te87  1  0.41168233  0.74211347  0.07533777  1
  Te  Te88  1  0.44628265  0.73883138  0.40538580  1
  Te  Te89  1  0.43981834  0.79190444  0.73995757  1
  Te  Te90  1  0.72172455  0.07883625  0.09192243  1
  Te  Te91  1  0.73403014  0.07997816  0.41611579  1
  Te  Te92  1  0.74725474  0.07297201  0.75330228  1
  Te  Te93  1  0.75497757  0.41942445  0.10113519  1
  Te  Te94  1  0.73679733  0.42104682  0.40981618  1
  Te  Te95  1  0.75964244  0.42466226  0.75231924  1
  Te  Te96  1  0.72319626  0.72126841  0.10643847  1
  Te  Te97  1  0.74586694  0.75288830  0.42375558  1
  Te  Te98  1  0.75508893  0.72690811  0.73684677  1
  Te  Te99  1  0.06819984  0.24906008  0.26006772  1
  Te  Te100  1  0.09711652  0.25644272  0.57484906  1
  Te  Te101  1  0.09021002  0.25645252  0.91452125  1
  Te  Te102  1  0.10279393  0.55805220  0.24832775  1
  Te  Te103  1  0.07791769  0.61169630  0.58320122  1
  Te  Te104  1  0.08066571  0.57517944  0.90162085  1
  Te  Te105  1  0.09585506  0.89774891  0.22119598  1
  Te  Te106  1  0.10225509  0.90337974  0.58124097  1
  Te  Te107  1  0.09817982  0.89949560  0.91791699  1
  Te  Te108  1  0.38445297  0.26499609  0.24246776  1
  Te  Te109  1  0.41468910  0.26534176  0.57670449  1
  Te  Te110  1  0.41278776  0.25053943  0.91403084  1
  Te  Te111  1  0.42055056  0.58163743  0.24245896  1
  Te  Te112  1  0.42339201  0.63616781  0.57401084  1
  Te  Te113  1  0.43566538  0.57841057  0.92702597  1
  Te  Te114  1  0.40526553  0.92827562  0.27717463  1
  Te  Te115  1  0.43926797  0.94193194  0.55116589  1
  Te  Te116  1  0.40017297  0.93050969  0.92417424  1
  Te  Te117  1  0.75022688  0.22872724  0.24388571  1
  Te  Te118  1  0.71805705  0.25099088  0.56277822  1
  Te  Te119  1  0.72112314  0.25890362  0.93231973  1
  Te  Te120  1  0.76901479  0.62518695  0.22299449  1
  Te  Te121  1  0.74029949  0.61373643  0.61313152  1
  Te  Te122  1  0.75034716  0.60268444  0.91195272  1
  Te  Te123  1  0.74955937  0.90352575  0.26060330  1
  Te  Te124  1  0.73681983  0.88718844  0.60257971  1
  Te  Te125  1  0.74300865  0.90426974  0.91491618  1
  Te  Te126  1  0.28650903  0.21542293  0.12048878  1
  Te  Te127  1  0.23747234  0.27733656  0.40897195  1
  Te  Te128  1  0.24753826  0.21745781  0.72086742  1
  Te  Te129  1  0.25843383  0.57413904  0.06863474  1
  Te  Te130  1  0.22776278  0.54810797  0.41086606  1
  Te  Te131  1  0.26888149  0.61631500  0.73512949  1
  Te  Te132  1  0.27160853  0.92602482  0.07485804  1
  Te  Te133  1  0.27879032  0.90409015  0.38622443  1
  Te  Te134  1  0.24206220  0.90218539  0.73644111  1
  Te  Te135  1  0.58502579  0.27122302  0.10666566  1
  Te  Te136  1  0.56127677  0.23921587  0.39457886  1
  Te  Te137  1  0.57053843  0.24903922  0.75103073  1
  Te  Te138  1  0.60759412  0.59041112  0.09167147  1
  Te  Te139  1  0.57969852  0.58211032  0.41696266  1
  Te  Te140  1  0.57595187  0.60038624  0.73511489  1
  Te  Te141  1  0.58439562  0.90011173  0.10378021  1
  Te  Te142  1  0.57490283  0.91793582  0.44786968  1
  Te  Te143  1  0.55800934  0.90809502  0.76696780  1
  Te  Te144  1  0.91209582  0.23813945  0.07465346  1
  Te  Te145  1  0.90771644  0.27628573  0.41038656  1
  Te  Te146  1  0.92347993  0.26156423  0.74013230  1
  Te  Te147  1  0.93118347  0.59436379  0.07684609  1
  Te  Te148  1  0.92471487  0.59297820  0.42404289  1
  Te  Te149  1  0.90806919  0.54349680  0.71810021  1
  Te  Te150  1  0.91169179  0.89896708  0.07811757  1
  Te  Te151  1  0.91396893  0.93238718  0.42161897  1
  Te  Te152  1  0.91336010  0.92401207  0.74427971  1
  Te  Te153  1  0.26858932  0.06327340  0.27912348  1
  Te  Te154  1  0.27872930  0.09496758  0.52786163  1
  Te  Te155  1  0.24134224  0.07261719  0.92531395  1
  Te  Te156  1  0.27365474  0.37074954  0.26776729  1
  Te  Te157  1  0.25647871  0.42108340  0.59788541  1
  Te  Te158  1  0.25712567  0.40218620  0.90292435  1
  Te  Te159  1  0.26537253  0.73828011  0.25587521  1
  Te  Te160  1  0.28498683  0.73943438  0.58448772  1
  Te  Te161  1  0.25370785  0.73600716  0.92556160  1
  Te  Te162  1  0.56135350  0.09174508  0.25778973  1
  Te  Te163  1  0.59984022  0.09283018  0.58024220  1
  Te  Te164  1  0.55490171  0.07693663  0.91672097  1
  Te  Te165  1  0.55907475  0.38244037  0.21498576  1
  Te  Te166  1  0.57564727  0.43840837  0.59220551  1
  Te  Te167  1  0.59866276  0.42486025  0.92975073  1
  Te  Te168  1  0.55903488  0.77115890  0.27874573  1
  Te  Te169  1  0.54079097  0.72930313  0.61829334  1
  Te  Te170  1  0.58754880  0.74245523  0.92747712  1
  Te  Te171  1  0.92169344  0.07751277  0.23746303  1
  Te  Te172  1  0.89871844  0.10302637  0.57717352  1
  Te  Te173  1  0.90012533  0.05716040  0.91666057  1
  Te  Te174  1  0.91649728  0.43716008  0.25877086  1
  Te  Te175  1  0.90281981  0.45703143  0.58751235  1
  Te  Te176  1  0.91871574  0.42583666  0.91595006  1
  Te  Te177  1  0.93716246  0.74289514  0.23574100  1
  Te  Te178  1  0.92310154  0.76630757  0.60224574  1
  Te  Te179  1  0.91322689  0.75534505  0.91230898  1
