# generated using pymatgen
data_In2Te3
_symmetry_space_group_name_H-M   'P 1'
_cell_length_a   18.76643633
_cell_length_b   18.76376970
_cell_length_c   18.76422585
_cell_angle_alpha   89.99075061
_cell_angle_beta   90.02066833
_cell_angle_gamma   89.98736667
_symmetry_Int_Tables_number   1
_chemical_formula_structural   In2Te3
_chemical_formula_sum   'In72 Te108'
_cell_volume   6607.42908466
_cell_formula_units_Z   36
loop_
 _symmetry_equiv_pos_site_id
 _symmetry_equiv_pos_as_xyz
  1  'x, y, z'
loop_
 _atom_site_type_symbol
 _atom_site_label
 _atom_site_symmetry_multiplicity
 _atom_site_fract_x
 _atom_site_fract_y
 _atom_site_fract_z
 _atom_site_occupancy
  In  In0  1  -0.01594046  0.82862056  0.15470999  1
  In  In1  1  0.83475555  0.83042155  0.67690126  1
  In  In2  1  0.33244407  0.51871909  0.51657727  1
  In  In3  1  0.17061032  0.81532328  0.69604598  1
  In  In4  1  0.33064853  0.35572325  0.33127366  1
  In  In5  1  0.51317894  0.16961804  0.68863015  1
  In  In6  1  0.16561238  0.64655081  0.50988661  1
  In  In7  1  0.33749406  0.51407631  0.14464012  1
  In  In8  1  0.16898991  0.50016246  0.34986260  1
  In  In9  1  0.36103497  0.82892013  0.48027239  1
  In  In10  1  0.52757283  0.32785622  0.49930929  1
  In  In11  1  0.14003921  0.32627491  0.14014016  1
  In  In12  1  0.48737539  0.16629741  -0.00828116  1
  In  In13  1  0.15276181  0.16324820  -0.00003784  1
  In  In14  1  0.49900115  -0.02636981  0.16655613  1
  In  In15  1  0.35426459  0.13953426  0.16787918  1
  In  In16  1  0.82420149  0.51721341  -0.00869771  1
  In  In17  1  0.01663059  0.64952189  -0.03738191  1
  In  In18  1  -0.01000182  0.17656850  0.83781253  1
  In  In19  1  0.67106181  0.49350589  0.49312134  1
  In  In20  1  0.51581629  -0.01978675  0.51649183  1
  In  In21  1  0.32838167  0.34738146  -0.00940332  1
  In  In22  1  0.68722500  -0.00656151  0.31878958  1
  In  In23  1  0.81773240  0.66534110  0.16914536  1
  In  In24  1  0.17843593  0.17636337  0.30386423  1
  In  In25  1  -0.03237832  0.62754402  0.36143256  1
  In  In26  1  0.33677997  0.00159211  0.31070023  1
  In  In27  1  0.14847417  0.37090426  0.49863922  1
  In  In28  1  0.50513602  0.80173936  0.66514379  1
  In  In29  1  0.68079138  0.17667723  0.18830931  1
  In  In30  1  0.66011760  0.81494293  0.82590344  1
  In  In31  1  0.18639017  0.83427383  -0.01980795  1
  In  In32  1  -0.00009245  0.82490049  0.51457202  1
  In  In33  1  0.50258774  0.36208131  0.16572206  1
  In  In34  1  0.66152101  0.35460933  -0.00084252  1
  In  In35  1  0.78569535  0.80253278  0.33416298  1
  In  In36  1  0.66275931  0.51685878  0.16790732  1
  In  In37  1  0.01023823  -0.00513926  0.32506113  1
  In  In38  1  0.32219005  0.50804135  0.83009831  1
  In  In39  1  0.33651287  0.16865283  0.82765547  1
  In  In40  1  0.48994201  0.66513139  0.84547224  1
  In  In41  1  0.17728639  0.65334854  0.15493294  1
  In  In42  1  0.83297305  0.16472050  0.66152958  1
  In  In43  1  0.01951550  0.37683942  0.68780224  1
  In  In44  1  0.67600817  0.00483014  0.66146881  1
  In  In45  1  -0.00720265  0.36085436  -0.00353482  1
  In  In46  1  0.84372762  -0.00537540  0.82286851  1
  In  In47  1  0.67158685  0.66624421  0.65161111  1
  In  In48  1  0.33951881  0.35081357  0.67968140  1
  In  In49  1  0.81605311  0.35221554  0.84754791  1
  In  In50  1  0.82914909  0.16338907  0.00407165  1
  In  In51  1  0.31704755  0.15589857  0.51080938  1
  In  In52  1  0.84029741  0.17283853  0.33301284  1
  In  In53  1  -0.01044438  0.64573805  0.69516910  1
  In  In54  1  0.83239251  0.35939499  0.51811578  1
  In  In55  1  0.16382997  0.00315365  0.50651071  1
  In  In56  1  0.15978187  -0.01389400  0.84086157  1
  In  In57  1  0.17168694  0.16973402  0.66515234  1
  In  In58  1  0.51501239  0.18366459  0.36103480  1
  In  In59  1  0.17297844  0.80866033  0.30939509  1
  In  In60  1  0.51495833  0.52281942  0.31848610  1
  In  In61  1  0.67314071  0.34731750  0.67652600  1
  In  In62  1  0.51555135  0.80528634  0.30682091  1
  In  In63  1  0.33867546  0.65922979  0.67450579  1
  In  In64  1  -0.02906977  0.15632891  0.52068226  1
  In  In65  1  0.00544706  0.15993948  0.16183175  1
  In  In66  1  0.67740760  0.51313337  0.83503833  1
  In  In67  1  0.64646562  -0.00397388  -0.00043278  1
  In  In68  1  0.82960670  -0.00382727  0.49830742  1
  In  In69  1  -0.02031842  0.48064066  0.18254356  1
  In  In70  1  0.47093457  -0.03988829  0.86857974  1
  In  In71  1  0.84883301  0.81007153  0.00334604  1
  Te  Te72  1  0.08039635  0.06299472  0.07914555  1
  Te  Te73  1  0.08045075  0.09690325  0.41714738  1
  Te  Te74  1  0.07748214  0.08677527  0.75125116  1
  Te  Te75  1  0.08796642  0.45231211  0.07309926  1
  Te  Te76  1  0.05278766  0.42422771  0.39974118  1
  Te  Te77  1  0.10304276  0.45130395  0.78467158  1
  Te  Te78  1  0.08134487  0.74098255  0.07150457  1
  Te  Te79  1  0.08181416  0.74005525  0.41409963  1
  Te  Te80  1  0.07501801  0.73772936  0.78080843  1
  Te  Te81  1  0.41398311  0.05101714  0.06041245  1
  Te  Te82  1  0.41445163  0.07528625  0.42239377  1
  Te  Te83  1  0.42529615  0.06643363  0.75794288  1
  Te  Te84  1  0.43689444  0.43697231  0.05317028  1
  Te  Te85  1  0.42634705  0.42737957  0.42364266  1
  Te  Te86  1  0.43017091  0.43538138  0.75785383  1
  Te  Te87  1  0.48537644  0.73935393  0.10554650  1
  Te  Te88  1  0.43912530  0.72732309  0.40910817  1
  Te  Te89  1  0.39686023  0.76704512  0.76752180  1
  Te  Te90  1  0.74217903  0.07397966  0.09234447  1
  Te  Te91  1  0.74197593  0.09333894  0.42074345  1
  Te  Te92  1  0.74320209  0.09622984  0.76418497  1
  Te  Te93  1  0.76138872  0.42077100  0.09054199  1
  Te  Te94  1  0.77822483  0.43607251  0.39443350  1
  Te  Te95  1  0.77780464  0.44769176  0.72930095  1
  Te  Te96  1  0.73558362  0.74791353  0.07809880  1
  Te  Te97  1  0.71139666  0.72105261  0.42938585  1
  Te  Te98  1  0.76323331  0.72375240  0.76117597  1
  Te  Te99  1  0.06429156  0.26716392  0.25879907  1
  Te  Te100  1  0.07524342  0.25693214  0.58480232  1
  Te  Te101  1  0.08490858  0.26883007  0.91350697  1
  Te  Te102  1  0.07789284  0.58753531  0.25276859  1
  Te  Te103  1  0.06671337  0.56886679  0.58860706  1
  Te  Te104  1  0.11510020  0.58306032  0.87064950  1
  Te  Te105  1  0.09317257  0.91056488  0.22834059  1
  Te  Te106  1  0.08630585  0.91301001  0.60182422  1
  Te  Te107  1  0.06929719  0.90835758  0.92768550  1
  Te  Te108  1  0.41767690  0.25351936  0.25397635  1
  Te  Te109  1  0.41518812  0.24913632  0.58298382  1
  Te  Te110  1  0.42567662  0.27064013  0.89939146  1
  Te  Te111  1  0.41309134  0.59716998  0.24116999  1
  Te  Te112  1  0.43664104  0.60110915  0.58073026  1
  Te  Te113  1  0.38596020  0.60131820  0.93354615  1
  Te  Te114  1  0.39725315  0.88394000  0.23790164  1
  Te  Te115  1  0.41144539  0.91020042  0.59892290  1
  Te  Te116  1  0.37606203  0.87025470  0.95709605  1
  Te  Te117  1  0.78044274  0.27440952  0.23926780  1
  Te  Te118  1  0.74070261  0.25119641  0.57709805  1
  Te  Te119  1  0.73282278  0.24408920  0.91714142  1
  Te  Te120  1  0.75398616  0.57734510  0.26985251  1
  Te  Te121  1  0.76812854  0.57847927  0.57460145  1
  Te  Te122  1  0.72547127  0.61126522  0.93639982  1
  Te  Te123  1  0.75192162  0.89795657  0.22759354  1
  Te  Te124  1  0.74085448  0.89763796  0.57344750  1
  Te  Te125  1  0.74595309  0.91502556  0.91050785  1
  Te  Te126  1  0.26462351  0.24678593  0.08991005  1
  Te  Te127  1  0.24449752  0.26105421  0.42313608  1
  Te  Te128  1  0.23970254  0.26668752  0.76049765  1
  Te  Te129  1  0.26095968  0.59684551  0.04420626  1
  Te  Te130  1  0.26780038  0.60090211  0.40365595  1
  Te  Te131  1  0.22580308  0.59780239  0.75154721  1
  Te  Te132  1  0.28232409  0.90474068  0.07008189  1
  Te  Te133  1  0.24401332  0.91603643  0.40936733  1
  Te  Te134  1  0.26116976  0.91270648  0.76054240  1
  Te  Te135  1  0.57905625  0.24431783  0.08927146  1
  Te  Te136  1  0.62560003  0.27166547  0.40364875  1
  Te  Te137  1  0.58807108  0.26823774  0.76817658  1
  Te  Te138  1  0.55585940  0.59831843  0.10284073  1
  Te  Te139  1  0.60722723  0.60349544  0.40703504  1
  Te  Te140  1  0.57744686  0.58950349  0.74489332  1
  Te  Te141  1  0.58001102  0.88602761  0.07660574  1
  Te  Te142  1  0.58294214  0.91294170  0.39848528  1
  Te  Te143  1  0.57969040  0.91743415  0.74297720  1
  Te  Te144  1  0.91716617  0.26029969  0.08328964  1
  Te  Te145  1  0.91797341  0.26335129  0.42825795  1
  Te  Te146  1  0.91108818  0.27013831  0.74391256  1
  Te  Te147  1  0.92632200  0.59380125  0.08323392  1
  Te  Te148  1  0.87259036  0.56266527  0.45479394  1
  Te  Te149  1  0.89875675  0.55359709  0.77005454  1
  Te  Te150  1  0.90397856  0.92553101  0.07839252  1
  Te  Te151  1  0.91670942  0.90631574  0.41000084  1
  Te  Te152  1  0.93679088  0.90063322  0.75778431  1
  Te  Te153  1  0.23025300  0.06281651  0.21808599  1
  Te  Te154  1  0.26164489  0.05743286  0.61263095  1
  Te  Te155  1  0.25450365  0.08110919  0.92170649  1
  Te  Te156  1  0.23721184  0.41974083  0.22852783  1
  Te  Te157  1  0.23659355  0.43743885  0.60310078  1
  Te  Te158  1  0.22765504  0.41858407  0.90882571  1
  Te  Te159  1  0.27451668  0.73851110  0.22891854  1
  Te  Te160  1  0.25329566  0.75600280  0.57294058  1
  Te  Te161  1  0.28533941  0.75667221  0.89906918  1
  Te  Te162  1  0.56992340  0.08248317  0.25028995  1
  Te  Te163  1  0.59057705  0.09947347  0.57503106  1
  Te  Te164  1  0.57227455  0.08012905  0.89832759  1
  Te  Te165  1  0.60144348  0.40714316  0.26843478  1
  Te  Te166  1  0.57393710  0.43441173  0.59687117  1
  Te  Te167  1  0.57644211  0.44386483  0.91936940  1
  Te  Te168  1  0.59303993  0.71927304  0.20763722  1
  Te  Te169  1  0.59882843  0.75845250  0.55766191  1
  Te  Te170  1  0.57058355  0.75745764  0.93051144  1
  Te  Te171  1  0.90747424  0.07081092  0.24130699  1
  Te  Te172  1  0.91829101  0.04711542  0.61217039  1
  Te  Te173  1  0.92587747  0.07265327  0.92863412  1
  Te  Te174  1  0.87457275  0.41813171  0.26318147  1
  Te  Te175  1  0.94605700  0.44458999  0.57482547  1
  Te  Te176  1  0.92970792  0.45342437  0.88952681  1
  Te  Te177  1  0.92020882  0.74347315  0.26733207  1
  Te  Te178  1  0.90846779  0.73037752  0.58634813  1
  Te  Te179  1  0.91828222  0.73728469  0.89507139  1
