# generated using pymatgen
data_In2Te3
_symmetry_space_group_name_H-M   'P 1'
_cell_length_a   18.93267589
_cell_length_b   18.94250994
_cell_length_c   18.96048753
_cell_angle_alpha   89.90835337
_cell_angle_beta   89.98818553
_cell_angle_gamma   90.06597481
_symmetry_Int_Tables_number   1
_chemical_formula_structural   In2Te3
_chemical_formula_sum   'In72 Te108'
_cell_volume   6799.83181641
_cell_formula_units_Z   36
loop_
 _symmetry_equiv_pos_site_id
 _symmetry_equiv_pos_as_xyz
  1  'x, y, z'
loop_
 _atom_site_type_symbol
 _atom_site_label
 _atom_site_symmetry_multiplicity
 _atom_site_fract_x
 _atom_site_fract_y
 _atom_site_fract_z
 _atom_site_occupancy
  In  In0  1  0.83404651  0.51069298  -0.00213985  1
  In  In1  1  0.82803161  0.17934058  0.68301502  1
  In  In2  1  0.47517573  -0.01514991  0.51705599  1
  In  In3  1  0.85882822  0.46092098  0.65444303  1
  In  In4  1  0.33725448  0.66321937  0.04295732  1
  In  In5  1  0.82638130  0.01367138  0.48240201  1
  In  In6  1  0.14829861  0.49913099  0.31339928  1
  In  In7  1  0.12677761  -0.01039121  0.50476470  1
  In  In8  1  0.49918050  0.51227386  0.36227205  1
  In  In9  1  0.27979689  0.83193675  0.50371509  1
  In  In10  1  0.83057566  0.16308159  0.33681412  1
  In  In11  1  0.67158185  0.55761869  0.16497866  1
  In  In12  1  0.13376435  0.17655371  0.68270593  1
  In  In13  1  0.00814546  0.50891685  0.84593295  1
  In  In14  1  0.66930591  0.14850583  0.16315276  1
  In  In15  1  0.71239566  0.54586021  0.47282965  1
  In  In16  1  0.12394314  0.53517569  0.66217078  1
  In  In17  1  0.81897566  -0.02730742  0.17938428  1
  In  In18  1  0.14854643  0.33937700  0.82992017  1
  In  In19  1  0.00760404  0.51348471  0.16180212  1
  In  In20  1  0.51777092  0.00489413  0.83876374  1
  In  In21  1  0.13859802  0.65284495  0.49265450  1
  In  In22  1  0.16977922  0.50307245  -0.00732735  1
  In  In23  1  -0.01717393  0.66545217  0.64182174  1
  In  In24  1  0.16490689  0.67145295  0.83452745  1
  In  In25  1  0.54729743  0.35907532  0.50179307  1
  In  In26  1  0.51519593  0.66056276  0.86182601  1
  In  In27  1  0.33556504  0.33833475  0.65819818  1
  In  In28  1  0.34153320  0.85583027  0.87210830  1
  In  In29  1  0.15827386  0.33199290  0.16047741  1
  In  In30  1  0.69712129  0.67307108  0.70369075  1
  In  In31  1  0.69858611  0.31999035  -0.02089226  1
  In  In32  1  0.35019325  0.70028661  0.32913572  1
  In  In33  1  0.50672507  0.65028997  0.51055154  1
  In  In34  1  0.51047189  0.00069446  0.16540267  1
  In  In35  1  0.52548170  0.32888492  0.17261842  1
  In  In36  1  0.52047563  0.47516429  0.02569496  1
  In  In37  1  0.35214057  0.49487814  0.19143160  1
  In  In38  1  0.11303420  0.85611538  0.67243031  1
  In  In39  1  0.51415739  0.85230295  -0.01547260  1
  In  In40  1  0.54312646  0.49711485  0.61210800  1
  In  In41  1  0.68025340  0.00892358  0.63722339  1
  In  In42  1  0.34394977  0.46227087  0.85380976  1
  In  In43  1  0.70329691  0.81472218  0.47855259  1
  In  In44  1  0.06929627  0.02573821  0.83507778  1
  In  In45  1  0.00174499  -0.00005372  0.33830450  1
  In  In46  1  0.00520591  0.83096524  0.17830739  1
  In  In47  1  0.57214017  0.85033948  0.29936425  1
  In  In48  1  0.69379276  0.49299299  0.81667075  1
  In  In49  1  0.69679315  0.86331108  0.81303916  1
  In  In50  1  0.32859240  0.85882131  0.15122817  1
  In  In51  1  0.70235246  0.01162326  -0.02885360  1
  In  In52  1  0.16053537  0.31360166  0.51066170  1
  In  In53  1  0.32591415  0.15739645  0.86358673  1
  In  In54  1  0.49297971  0.81474700  0.64644736  1
  In  In55  1  0.67927683  0.34935166  0.34183915  1
  In  In56  1  0.31946189  0.24829203  0.28265896  1
  In  In57  1  0.34976194  0.15457850  0.51804967  1
  In  In58  1  0.53623559  0.16331880  0.67966315  1
  In  In59  1  0.32484747  0.66762089  0.69668135  1
  In  In60  1  0.33499258  0.01949836  0.29341793  1
  In  In61  1  0.14628713  0.16622614  -0.01046625  1
  In  In62  1  0.83740329  0.69674244  0.17981759  1
  In  In63  1  0.32069535  0.49047645  0.48407878  1
  In  In64  1  0.85191952  0.33224773  0.13968800  1
  In  In65  1  0.49612629  0.29841264  0.83705550  1
  In  In66  1  0.00719112  0.18175012  0.14768128  1
  In  In67  1  0.15521836  0.83707588  0.33076925  1
  In  In68  1  0.14380915  0.85526589  0.01042373  1
  In  In69  1  -0.02037628  0.31672390  0.35387247  1
  In  In70  1  0.28929306  0.00696844  0.70510475  1
  In  In71  1  0.85458795  0.69071596  0.86034015  1
  Te  Te72  1  0.06170069  0.07354089  0.06608360  1
  Te  Te73  1  0.06223482  0.09679070  0.43076389  1
  Te  Te74  1  0.03218357  0.06143572  0.68912636  1
  Te  Te75  1  0.07133692  0.41239293  0.06620200  1
  Te  Te76  1  0.08514604  0.40888973  0.41742292  1
  Te  Te77  1  0.05972131  0.41713177  0.73475411  1
  Te  Te78  1  0.09219601  0.74743243  0.09411815  1
  Te  Te79  1  0.06334998  0.75966322  0.42007086  1
  Te  Te80  1  0.05695546  0.73970084  0.75342426  1
  Te  Te81  1  0.42044484  0.06479178  0.07192750  1
  Te  Te82  1  0.42083679  0.07685515  0.40922777  1
  Te  Te83  1  0.41455775  0.08566893  0.74648549  1
  Te  Te84  1  0.40985973  0.39831672  0.09055149  1
  Te  Te85  1  0.41926156  0.39716443  0.42025893  1
  Te  Te86  1  0.43664732  0.41200900  0.74517499  1
  Te  Te87  1  0.43529014  0.77009097  0.08749056  1
  Te  Te88  1  0.40619411  0.75484162  0.45763521  1
  Te  Te89  1  0.42564338  0.75946122  0.77790648  1
  Te  Te90  1  0.77868902  0.08372004  0.08149236  1
  Te  Te91  1  0.72575245  0.07466301  0.39178720  1
  Te  Te92  1  0.75463307  0.06400836  0.75391622  1
  Te  Te93  1  0.73805930  0.42572385  0.08594399  1
  Te  Te94  1  0.78038025  0.42341793  0.41968987  1
  Te  Te95  1  0.80272659  0.40072427  0.77919451  1
  Te  Te96  1  0.72747886  0.77528686  0.11681371  1
  Te  Te97  1  0.78803135  0.73109331  0.39158147  1
  Te  Te98  1  0.80102807  0.77550793  0.74334846  1
  Te  Te99  1  0.08078718  0.24892768  0.26232050  1
  Te  Te100  1  0.04953806  0.26426360  0.59653800  1
  Te  Te101  1  0.05818017  0.23677981  0.88831322  1
  Te  Te102  1  0.04983690  0.59845443  0.27438185  1
  Te  Te103  1  0.03186918  0.55621516  0.54379311  1
  Te  Te104  1  0.07350422  0.60923462  0.93908792  1
  Te  Te105  1  0.09736473  0.94057407  0.23754024  1
  Te  Te106  1  0.02767522  0.88608926  0.55186153  1
  Te  Te107  1  0.04652947  0.89096333  0.90416368  1
  Te  Te108  1  0.44735137  0.21354921  0.22061235  1
  Te  Te109  1  0.44173931  0.25441116  0.59019543  1
  Te  Te110  1  0.42391584  0.22968106  0.94388756  1
  Te  Te111  1  0.43806654  0.60391310  0.25295339  1
  Te  Te112  1  0.40143043  0.57114395  0.59155055  1
  Te  Te113  1  0.40697668  0.57608751  0.93282626  1
  Te  Te114  1  0.42531038  0.89715192  0.27011373  1
  Te  Te115  1  0.36992168  0.91521918  0.60382534  1
  Te  Te116  1  0.41101363  0.97051133  0.95182083  1
  Te  Te117  1  0.75668765  0.25963667  0.23666868  1
  Te  Te118  1  0.70962012  0.24353553  0.61742997  1
  Te  Te119  1  0.79775178  0.22554822  0.92570101  1
  Te  Te120  1  0.78916532  0.57253956  0.25135647  1
  Te  Te121  1  0.77139406  0.57783752  0.60982876  1
  Te  Te122  1  0.74250014  0.59856127  0.91393155  1
  Te  Te123  1  0.71250709  0.88625173  0.24259761  1
  Te  Te124  1  0.77178896  0.90302529  0.58053504  1
  Te  Te125  1  0.79796723  0.90850044  0.91464378  1
  Te  Te126  1  0.23800947  0.23137945  0.08719943  1
  Te  Te127  1  0.25790660  0.23558036  0.42741445  1
  Te  Te128  1  0.25691785  0.24934985  0.75276997  1
  Te  Te129  1  0.24212902  0.56660689  0.11167911  1
  Te  Te130  1  0.25292375  0.59657100  0.39879754  1
  Te  Te131  1  0.24392513  0.55433264  0.77514806  1
  Te  Te132  1  0.23936054  0.94555655  0.07516783  1
  Te  Te133  1  0.24476443  0.94477797  0.40640859  1
  Te  Te134  1  0.23069453  0.88236965  0.76660105  1
  Te  Te135  1  0.59990919  0.24455308  0.06745006  1
  Te  Te136  1  0.58556885  0.25709440  0.40539868  1
  Te  Te137  1  0.61779507  0.25585392  0.76165496  1
  Te  Te138  1  0.57783979  0.60398650  0.06333723  1
  Te  Te139  1  0.60210941  0.61890175  0.39674300  1
  Te  Te140  1  0.57516848  0.58211758  0.74480529  1
  Te  Te141  1  0.60734419  0.93626885  0.06633322  1
  Te  Te142  1  0.57984034  0.89615498  0.44431782  1
  Te  Te143  1  0.57753790  0.91917612  0.72374103  1
  Te  Te144  1  0.91882831  0.24319112  0.04265689  1
  Te  Te145  1  0.88248095  0.25040060  0.44829568  1
  Te  Te146  1  0.93689669  0.22138182  0.77938487  1
  Te  Te147  1  0.91566973  0.60460483  0.08248357  1
  Te  Te148  1  0.84558820  0.58802422  0.40850741  1
  Te  Te149  1  0.91280845  0.58920973  0.75912422  1
  Te  Te150  1  0.90917285  0.89982145  0.08512353  1
  Te  Te151  1  0.88795857  0.91783234  0.38489025  1
  Te  Te152  1  0.97306510  0.93454076  0.75918116  1
  Te  Te153  1  0.25237734  0.12479013  0.23437042  1
  Te  Te154  1  0.23068489  0.09053435  0.59136163  1
  Te  Te155  1  0.21073274  0.06557943  0.88786295  1
  Te  Te156  1  0.26006714  0.39957662  0.26730709  1
  Te  Te157  1  0.23198146  0.43016173  0.59444573  1
  Te  Te158  1  0.24730870  0.38252326  0.93766395  1
  Te  Te159  1  0.24551398  0.75795646  0.23797205  1
  Te  Te160  1  0.21839913  0.72888360  0.59887666  1
  Te  Te161  1  0.26255583  0.73836501  0.93279944  1
  Te  Te162  1  0.59642407  0.06962576  0.26448198  1
  Te  Te163  1  0.58096266  0.08819967  0.55611040  1
  Te  Te164  1  0.60879948  0.10050845  0.89941440  1
  Te  Te165  1  0.58722434  0.44225891  0.25415725  1
  Te  Te166  1  0.65054068  0.38796408  0.60794157  1
  Te  Te167  1  0.59083351  0.41630401  0.90632304  1
  Te  Te168  1  0.62326696  0.73546872  0.21944742  1
  Te  Te169  1  0.61405777  0.73363457  0.59049474  1
  Te  Te170  1  0.61270300  0.76989011  0.90219158  1
  Te  Te171  1  0.91577162  0.08763548  0.23663432  1
  Te  Te172  1  0.90258485  0.09022353  0.58456932  1
  Te  Te173  1  0.87124275  0.10743248  0.85344763  1
  Te  Te174  1  0.92830035  0.40985785  0.24448807  1
  Te  Te175  1  0.90689756  0.35195234  0.56912212  1
  Te  Te176  1  0.90974442  0.41792008  0.91089009  1
  Te  Te177  1  0.90512450  0.78492266  0.28303604  1
  Te  Te178  1  0.93726482  0.75864134  0.53809474  1
  Te  Te179  1  0.87357419  0.78407030  0.97379611  1
