# generated using pymatgen
data_In2Te3
_symmetry_space_group_name_H-M   'P 1'
_cell_length_a   18.98503966
_cell_length_b   19.00091261
_cell_length_c   18.99870497
_cell_angle_alpha   89.94945255
_cell_angle_beta   90.28915815
_cell_angle_gamma   90.08910175
_symmetry_Int_Tables_number   1
_chemical_formula_structural   In2Te3
_chemical_formula_sum   'In72 Te108'
_cell_volume   6853.36316585
_cell_formula_units_Z   36
loop_
 _symmetry_equiv_pos_site_id
 _symmetry_equiv_pos_as_xyz
  1  'x, y, z'
loop_
 _atom_site_type_symbol
 _atom_site_label
 _atom_site_symmetry_multiplicity
 _atom_site_fract_x
 _atom_site_fract_y
 _atom_site_fract_z
 _atom_site_occupancy
  In  In0  1  0.35988398  0.29561443  0.67033813  1
  In  In1  1  0.50881892  0.64328062  0.18609611  1
  In  In2  1  -0.00263565  0.81749758  0.84260009  1
  In  In3  1  0.68203265  0.50105855  0.84755280  1
  In  In4  1  -0.02892158  0.29242308  0.00539456  1
  In  In5  1  -0.02265158  0.15543263  0.82586159  1
  In  In6  1  0.33828733  0.00767721  0.67231642  1
  In  In7  1  0.50681308  0.00118150  0.84248046  1
  In  In8  1  0.14991885  0.51392732  0.30913560  1
  In  In9  1  0.50360508  0.47702119  0.65759472  1
  In  In10  1  -0.02241273  0.34607367  0.34990972  1
  In  In11  1  0.52575485  0.01050586  0.50241844  1
  In  In12  1  0.50228705  0.49445626  -0.00977698  1
  In  In13  1  0.33881193  0.02246402  0.00778243  1
  In  In14  1  0.68040865  0.15720078  0.17329463  1
  In  In15  1  0.18067669  0.70077611  0.49210145  1
  In  In16  1  0.31840067  0.49654897  0.84228092  1
  In  In17  1  0.65333097  0.01187609  0.67632216  1
  In  In18  1  0.66444687  0.49646690  0.16188277  1
  In  In19  1  0.84217649  0.02913771  0.48432592  1
  In  In20  1  0.82192766  0.83889936  0.00607133  1
  In  In21  1  0.67336570  0.86177756  0.17113896  1
  In  In22  1  0.19854584  0.33011809  0.82408523  1
  In  In23  1  0.36023691  0.82420279  0.51793059  1
  In  In24  1  0.53997477  0.31193724  0.81061981  1
  In  In25  1  0.00759190  0.67636545  0.31451175  1
  In  In26  1  0.14810655  0.85787532  0.34044667  1
  In  In27  1  0.13673710  0.67051175  0.83211760  1
  In  In28  1  0.01057554  0.32467290  0.66381276  1
  In  In29  1  0.51529144  0.82220694  -0.02506189  1
  In  In30  1  0.51948433  0.16040053  0.00678489  1
  In  In31  1  0.68857067  0.49618570  0.51508486  1
  In  In32  1  0.82956017  0.31257553  0.52191664  1
  In  In33  1  0.39057272  0.69449888  0.69389629  1
  In  In34  1  0.16893468  0.81334444  0.00939545  1
  In  In35  1  -0.02857402  0.68700119  0.67775060  1
  In  In36  1  -0.00185959  0.49086587  0.49461978  1
  In  In37  1  0.30574456  0.00865695  0.31927927  1
  In  In38  1  0.69113112  0.67361722  0.33936745  1
  In  In39  1  0.69282339  0.01557835  0.33722964  1
  In  In40  1  0.50462698  0.64667432  0.51541619  1
  In  In41  1  0.48040965  0.83989971  0.34080598  1
  In  In42  1  0.51683399  0.18114689  0.32680665  1
  In  In43  1  -0.00766528  0.03321741  -0.03097238  1
  In  In44  1  0.81480501  0.85200248  0.68014652  1
  In  In45  1  0.33711122  0.51660494  0.14757874  1
  In  In46  1  0.66520810  0.01173193  0.01125531  1
  In  In47  1  0.82661283  0.49629369  0.29995452  1
  In  In48  1  -0.03029183  0.14716338  0.19338939  1
  In  In49  1  0.68487897  0.80461251  0.49871527  1
  In  In50  1  0.17488502  -0.00717640  0.81599432  1
  In  In51  1  0.78786510  0.30949064  0.84335443  1
  In  In52  1  0.15111431  0.31497796  0.16088558  1
  In  In53  1  0.14431950  0.13498556  0.35573027  1
  In  In54  1  0.81957998  0.00826159  0.84545436  1
  In  In55  1  0.11705962  0.51017012  -0.01912118  1
  In  In56  1  0.31923812  0.47705707  0.48272152  1
  In  In57  1  0.13169214  0.50513665  0.65829973  1
  In  In58  1  0.31587892  0.83086328  0.16234369  1
  In  In59  1  -0.00200073  -0.00747668  0.63859096  1
  In  In60  1  0.65661345  0.67038694  0.69024643  1
  In  In61  1  0.17645519  0.30529406  0.51572709  1
  In  In62  1  0.00300955  0.84706296  0.16383181  1
  In  In63  1  0.67182957  0.32382308  0.31161983  1
  In  In64  1  0.16996826  0.16189911  -0.01150205  1
  In  In65  1  0.85317725  0.50169319  0.02485119  1
  In  In66  1  0.36435083  0.31886850  -0.00433738  1
  In  In67  1  0.35411719  0.33551943  0.32415694  1
  In  In68  1  0.32566457  0.66814454  0.00568665  1
  In  In69  1  0.13287325  0.68154328  0.17792927  1
  In  In70  1  0.84416992  0.68227441  0.50281901  1
  In  In71  1  0.33997580  0.15241103  0.50597519  1
  Te  Te72  1  0.06736822  0.10247315  0.08064090  1
  Te  Te73  1  0.07854153  0.03230151  0.43900650  1
  Te  Te74  1  0.07757868  0.08104215  0.74101929  1
  Te  Te75  1  0.06405955  0.39657898  0.06793281  1
  Te  Te76  1  0.10616516  0.41281389  0.41983600  1
  Te  Te77  1  0.08336406  0.41201983  0.76797867  1
  Te  Te78  1  0.04997934  0.73418708  0.06119173  1
  Te  Te79  1  0.06112282  0.76719197  0.42462205  1
  Te  Te80  1  0.08679089  0.77126362  0.72898689  1
  Te  Te81  1  0.41840810  0.10584466  0.09799219  1
  Te  Te82  1  0.42118728  0.06962387  0.40734200  1
  Te  Te83  1  0.43979399  0.08824401  0.74412647  1
  Te  Te84  1  0.43247751  0.41124748  0.09562137  1
  Te  Te85  1  0.43325405  0.41514219  0.41817979  1
  Te  Te86  1  0.41254507  0.40396992  0.76873227  1
  Te  Te87  1  0.42123537  0.74408379  0.09477057  1
  Te  Te88  1  0.41710695  0.72569490  0.41765951  1
  Te  Te89  1  0.47483525  0.78140096  0.77983214  1
  Te  Te90  1  0.76899348  0.05816039  0.10570945  1
  Te  Te91  1  0.72610055  0.11258357  0.44353555  1
  Te  Te92  1  0.77213828  0.08502803  0.72740002  1
  Te  Te93  1  0.75011465  0.41257946  0.08055559  1
  Te  Te94  1  0.77158078  0.41555299  0.41682147  1
  Te  Te95  1  0.74330067  0.41340540  0.74465142  1
  Te  Te96  1  0.72571507  0.75906803  0.08305198  1
  Te  Te97  1  0.78914204  0.77688112  0.39318547  1
  Te  Te98  1  0.76427559  0.74204021  0.76459293  1
  Te  Te99  1  0.07295256  0.24593533  0.27048262  1
  Te  Te100  1  0.06535797  0.22637755  0.56776222  1
  Te  Te101  1  0.08205296  0.24657700  0.89770091  1
  Te  Te102  1  0.03699258  0.55674819  0.21438630  1
  Te  Te103  1  0.07458436  0.60614728  0.56070663  1
  Te  Te104  1  0.02444868  0.59009619  0.89261153  1
  Te  Te105  1  0.09325542  0.93944974  0.23218564  1
  Te  Te106  1  0.11990966  0.95190847  0.56805780  1
  Te  Te107  1  0.08868758  0.91819749  0.92460585  1
  Te  Te108  1  0.42067291  0.24244221  0.23404451  1
  Te  Te109  1  0.42967718  0.26004088  0.54927102  1
  Te  Te110  1  0.43776825  0.23394173  0.89872131  1
  Te  Te111  1  0.40397559  0.57708210  0.26180626  1
  Te  Te112  1  0.39721636  0.57102098  0.59172715  1
  Te  Te113  1  0.41423154  0.59038979  0.91137297  1
  Te  Te114  1  0.40834758  0.92348353  0.23840927  1
  Te  Te115  1  0.44157872  0.92386683  0.59417859  1
  Te  Te116  1  0.40695336  0.91617998  0.92490014  1
  Te  Te117  1  0.77482521  0.23462441  0.25855675  1
  Te  Te118  1  0.72561252  0.29489021  0.62711218  1
  Te  Te119  1  0.72211467  0.21173104  0.93371836  1
  Te  Te120  1  0.75910109  0.60677933  0.22420972  1
  Te  Te121  1  0.76020953  0.60097485  0.59787095  1
  Te  Te122  1  0.76899381  0.58185265  0.93262914  1
  Te  Te123  1  0.77725758  0.94832533  0.23447525  1
  Te  Te124  1  0.74004853  0.92666389  0.57042793  1
  Te  Te125  1  0.72564021  0.91306730  0.91298780  1
  Te  Te126  1  0.25761704  0.24616437  0.07890094  1
  Te  Te127  1  0.25671191  0.24069413  0.40374120  1
  Te  Te128  1  0.24056359  0.23316173  0.72418527  1
  Te  Te129  1  0.21432687  0.59010753  0.07666169  1
  Te  Te130  1  0.23837021  0.58540158  0.41076953  1
  Te  Te131  1  0.22830716  0.57783637  0.75332724  1
  Te  Te132  1  0.23772455  0.92904685  0.07880855  1
  Te  Te133  1  0.27002395  0.90145264  0.41970300  1
  Te  Te134  1  0.27041145  0.90464151  0.75216362  1
  Te  Te135  1  0.61372657  0.24885030  0.07740828  1
  Te  Te136  1  0.61449242  0.23976172  0.42029527  1
  Te  Te137  1  0.61069326  0.23140970  0.71089900  1
  Te  Te138  1  0.58627258  0.59286633  0.06845287  1
  Te  Te139  1  0.60270161  0.58163238  0.42096558  1
  Te  Te140  1  0.57007883  0.56686233  0.75817601  1
  Te  Te141  1  0.56535605  0.92019804  0.07956049  1
  Te  Te142  1  0.59665388  0.90618412  0.41359909  1
  Te  Te143  1  0.58758160  0.90739682  0.75881747  1
  Te  Te144  1  0.88859180  0.24727219  0.11969469  1
  Te  Te145  1  0.93303435  0.24213132  0.44356240  1
  Te  Te146  1  0.90321823  0.26060551  0.74941683  1
  Te  Te147  1  0.94718211  0.59437691  0.09250682  1
  Te  Te148  1  0.91342309  0.58222341  0.40619909  1
  Te  Te149  1  0.95097326  0.56963168  0.75762716  1
  Te  Te150  1  0.92581563  0.93241320  0.06305215  1
  Te  Te151  1  0.94331331  0.95571835  0.40644525  1
  Te  Te152  1  0.92539064  0.92859100  0.76563347  1
  Te  Te153  1  0.22206450  0.09522675  0.23772697  1
  Te  Te154  1  0.24139722  0.06316450  0.57047851  1
  Te  Te155  1  0.26246194  0.09119277  0.89483666  1
  Te  Te156  1  0.24301645  0.42011288  0.23380694  1
  Te  Te157  1  0.24363611  0.41307338  0.59945485  1
  Te  Te158  1  0.24579064  0.41850164  0.94912884  1
  Te  Te159  1  0.23538616  0.75178141  0.26223294  1
  Te  Te160  1  0.26701945  0.74681705  0.60658719  1
  Te  Te161  1  0.25197101  0.74887576  0.90154190  1
  Te  Te162  1  0.58081260  0.06819197  0.25053209  1
  Te  Te163  1  0.56674883  0.11137014  0.60433440  1
  Te  Te164  1  0.61933058  0.10304185  0.89433481  1
  Te  Te165  1  0.58279418  0.42735134  0.26103378  1
  Te  Te166  1  0.59288686  0.39869195  0.57260373  1
  Te  Te167  1  0.59588200  0.39819282  0.92101658  1
  Te  Te168  1  0.58365537  0.75699165  0.26188098  1
  Te  Te169  1  0.57730280  0.75560214  0.59145715  1
  Te  Te170  1  0.57035943  0.72496707  0.88287879  1
  Te  Te171  1  0.91307721  0.06246409  0.29820645  1
  Te  Te172  1  0.89516240  0.09397794  0.60654247  1
  Te  Te173  1  0.87219517  0.12212573  0.93539230  1
  Te  Te174  1  0.91027121  0.39860503  0.23072275  1
  Te  Te175  1  0.91345285  0.42254885  0.59521449  1
  Te  Te176  1  0.89270219  0.38824898  0.92153977  1
  Te  Te177  1  0.91355209  0.76081814  0.24082036  1
  Te  Te178  1  0.91520023  0.79045369  0.58252382  1
  Te  Te179  1  0.87753290  0.75195753  0.89744016  1
