# generated using pymatgen
data_In2Te3
_symmetry_space_group_name_H-M   'P 1'
_cell_length_a   18.86996543
_cell_length_b   18.87338270
_cell_length_c   18.89756352
_cell_angle_alpha   90.05356287
_cell_angle_beta   90.08908494
_cell_angle_gamma   89.93634886
_symmetry_Int_Tables_number   1
_chemical_formula_structural   In2Te3
_chemical_formula_sum   'In72 Te108'
_cell_volume   6730.16454893
_cell_formula_units_Z   36
loop_
 _symmetry_equiv_pos_site_id
 _symmetry_equiv_pos_as_xyz
  1  'x, y, z'
loop_
 _atom_site_type_symbol
 _atom_site_label
 _atom_site_symmetry_multiplicity
 _atom_site_fract_x
 _atom_site_fract_y
 _atom_site_fract_z
 _atom_site_occupancy
  In  In0  1  0.01429464  0.17122574  0.86169299  1
  In  In1  1  0.47629828  -0.02951445  0.19049638  1
  In  In2  1  0.65176349  0.48365296  0.83162409  1
  In  In3  1  0.51092339  0.01790391  0.50372496  1
  In  In4  1  0.84751800  0.47448567  0.00369794  1
  In  In5  1  0.31433784  0.46265041  0.53330276  1
  In  In6  1  -0.01793629  0.14196403  0.17943922  1
  In  In7  1  0.79651076  0.34296013  0.18042557  1
  In  In8  1  0.32968073  0.16664654  0.51629841  1
  In  In9  1  0.35754579  0.32241131  0.00276696  1
  In  In10  1  0.32927325  0.31313450  0.32763287  1
  In  In11  1  0.50084953  0.30377086  0.80658416  1
  In  In12  1  0.00777081  0.50074333  0.16667616  1
  In  In13  1  0.52474537  0.45931800  0.31016874  1
  In  In14  1  -0.02378653  0.74514066  0.33309206  1
  In  In15  1  0.34088838  0.85683308  0.82994674  1
  In  In16  1  0.67905939  0.84328640  0.18800680  1
  In  In17  1  -0.01665669  0.67549401  0.67844732  1
  In  In18  1  0.79419363  0.51816875  0.35070394  1
  In  In19  1  0.65780294  -0.00036096  0.66590486  1
  In  In20  1  0.81241922  0.14617665  0.04835549  1
  In  In21  1  0.82214760  0.18319480  0.62583088  1
  In  In22  1  0.19079778  0.17667909  0.00201369  1
  In  In23  1  0.48341965  0.64065551  0.86693156  1
  In  In24  1  0.16906661  0.02212098  0.17004456  1
  In  In25  1  0.48690615  0.67633899  0.14552863  1
  In  In26  1  -0.00462154  0.34385132  0.66194124  1
  In  In27  1  0.49358240  0.32328295  0.50323995  1
  In  In28  1  0.15336708  0.30353919  0.14503801  1
  In  In29  1  0.23361888  0.50878370  -0.03426433  1
  In  In30  1  0.16797917  0.50375069  0.35317831  1
  In  In31  1  0.52007788  0.11540759  0.00710842  1
  In  In32  1  0.02174328  0.81577520  0.84447522  1
  In  In33  1  0.18454629  0.68007440  0.19412566  1
  In  In34  1  0.84446696  0.66644047  0.82502652  1
  In  In35  1  0.80989215  0.90263668  0.04003370  1
  In  In36  1  0.48926827  0.84763640  -0.00396558  1
  In  In37  1  0.15015643  0.69495913  0.46541504  1
  In  In38  1  0.19527150  0.35591007  0.53864135  1
  In  In39  1  0.81846753  0.16807787  0.32712427  1
  In  In40  1  0.63738951  0.32370629  -0.00382900  1
  In  In41  1  -0.01274461  0.51039860  0.50282942  1
  In  In42  1  0.32497915  0.69006565  0.31815277  1
  In  In43  1  0.83023585  0.30793571  0.84019196  1
  In  In44  1  0.18339454  0.67315630  0.83500210  1
  In  In45  1  0.00944230  -0.01236144  0.65960741  1
  In  In46  1  0.50804419  0.18519142  0.34017096  1
  In  In47  1  0.01099152  0.66986967  -0.01298478  1
  In  In48  1  0.00690780  0.31090319  -0.00656882  1
  In  In49  1  0.00016775  0.31998909  0.30780633  1
  In  In50  1  0.66548352  0.45352276  0.52256291  1
  In  In51  1  0.16880161  0.01303295  0.50174964  1
  In  In52  1  0.17195630  -0.01190778  0.82890525  1
  In  In53  1  0.66168516  0.83101334  0.49045302  1
  In  In54  1  0.82474867  0.68529067  0.18990872  1
  In  In55  1  0.00523170  0.16159221  0.48711979  1
  In  In56  1  0.33937122  0.67888409  0.66084228  1
  In  In57  1  0.64812373  0.67279972  0.34077203  1
  In  In58  1  0.35123290  0.15607579  0.79347762  1
  In  In59  1  0.66851437  0.84921115  0.80588098  1
  In  In60  1  0.65114928  0.65110962  -0.00126718  1
  In  In61  1  0.33591391  0.85944723  0.48399833  1
  In  In62  1  0.82418269  0.67673028  0.50392537  1
  In  In63  1  0.80880698  0.47813446  0.68098975  1
  In  In64  1  0.48784976  0.65637091  0.50103578  1
  In  In65  1  0.83225849  0.83444488  0.64770296  1
  In  In66  1  0.66618842  0.01249523  0.34837022  1
  In  In67  1  0.33219314  0.48663891  0.17299819  1
  In  In68  1  0.17236699  0.86899100  0.01642485  1
  In  In69  1  0.51269358  0.85144784  0.65692486  1
  In  In70  1  0.17579945  0.49287567  0.65275954  1
  In  In71  1  0.84026193  0.02180742  0.82262710  1
  Te  Te72  1  0.07687717  0.10145981  0.06698309  1
  Te  Te73  1  0.06810181  0.05897359  0.40010230  1
  Te  Te74  1  0.07897755  0.08481101  0.75427778  1
  Te  Te75  1  0.09067675  0.42111870  0.06856086  1
  Te  Te76  1  0.06783693  0.41018995  0.41909827  1
  Te  Te77  1  0.09345469  0.41461258  0.74533068  1
  Te  Te78  1  0.10335077  0.74593292  0.07850078  1
  Te  Te79  1  0.11010478  0.80928069  0.37710781  1
  Te  Te80  1  0.10199378  0.75329288  0.73245740  1
  Te  Te81  1  0.40758230  0.05993008  0.09131042  1
  Te  Te82  1  0.41238615  0.09081066  0.41253763  1
  Te  Te83  1  0.42981297  0.04491920  0.73395296  1
  Te  Te84  1  0.43223591  0.40545906  0.10123968  1
  Te  Te85  1  0.40321650  0.41869078  0.41126688  1
  Te  Te86  1  0.43343025  0.41035280  0.72904137  1
  Te  Te87  1  0.39519654  0.76777225  0.07708513  1
  Te  Te88  1  0.42655055  0.76040766  0.40999691  1
  Te  Te89  1  0.43541712  0.75405135  0.75233795  1
  Te  Te90  1  0.77925669  0.02472449  0.12640426  1
  Te  Te91  1  0.72632243  0.11846901  0.43421668  1
  Te  Te92  1  0.74850572  0.10327796  0.73588132  1
  Te  Te93  1  0.72455477  0.42707890  0.07598656  1
  Te  Te94  1  0.73179984  0.39403891  0.40208120  1
  Te  Te95  1  0.72176037  0.37096021  0.75229674  1
  Te  Te96  1  0.74129996  0.74890323  0.07585774  1
  Te  Te97  1  0.75900229  0.76207395  0.39578183  1
  Te  Te98  1  0.74836573  0.73937281  0.73171972  1
  Te  Te99  1  0.10146669  0.21407320  0.26156785  1
  Te  Te100  1  0.08442251  0.25302080  0.57916617  1
  Te  Te101  1  0.12179070  0.27063701  0.90135733  1
  Te  Te102  1  0.07984191  0.59286728  0.26449298  1
  Te  Te103  1  0.09165419  0.59473903  0.57501152  1
  Te  Te104  1  0.09762664  0.57384990  0.91061370  1
  Te  Te105  1  0.06061887  0.92606954  0.20015456  1
  Te  Te106  1  0.10401692  0.90681963  0.58350467  1
  Te  Te107  1  0.06663338  0.93405130  0.92648121  1
  Te  Te108  1  0.43869121  0.27020878  0.23942070  1
  Te  Te109  1  0.44527120  0.21627177  0.59982365  1
  Te  Te110  1  0.43078500  0.21574033  0.91794475  1
  Te  Te111  1  0.41873803  0.58251132  0.25740976  1
  Te  Te112  1  0.41609206  0.56466351  0.59607323  1
  Te  Te113  1  0.37317422  0.56475015  0.92376027  1
  Te  Te114  1  0.36217578  0.92331469  0.27398308  1
  Te  Te115  1  0.40784587  0.94493504  0.59512966  1
  Te  Te116  1  0.40822094  0.94816937  0.92383846  1
  Te  Te117  1  0.71593252  0.22987661  0.23368566  1
  Te  Te118  1  0.74699985  0.30505049  0.59522539  1
  Te  Te119  1  0.74444574  0.23028679  0.93703532  1
  Te  Te120  1  0.71954561  0.58438565  0.23621060  1
  Te  Te121  1  0.74307381  0.57629475  0.58201657  1
  Te  Te122  1  0.76079230  0.56997693  0.90998837  1
  Te  Te123  1  0.76524355  0.92722276  0.27480341  1
  Te  Te124  1  0.75051980  0.93120259  0.56374950  1
  Te  Te125  1  0.73105879  0.94801426  0.91111782  1
  Te  Te126  1  0.28375822  0.23179564  0.10994934  1
  Te  Te127  1  0.23663327  0.25305409  0.43079712  1
  Te  Te128  1  0.24648413  0.22591562  0.71453532  1
  Te  Te129  1  0.25945407  0.59360654  0.09365796  1
  Te  Te130  1  0.26328911  0.59326618  0.42830227  1
  Te  Te131  1  0.26273848  0.57814561  0.74538565  1
  Te  Te132  1  0.27087623  0.96479566  0.07473176  1
  Te  Te133  1  0.26446539  0.95711575  0.39498367  1
  Te  Te134  1  0.24066014  0.90195842  0.73168205  1
  Te  Te135  1  0.58695036  0.22062825  0.08770242  1
  Te  Te136  1  0.60269444  0.24402400  0.43816821  1
  Te  Te137  1  0.56153097  0.19279507  0.72946163  1
  Te  Te138  1  0.55474783  0.56855076  0.07055154  1
  Te  Te139  1  0.58043186  0.56294316  0.42246260  1
  Te  Te140  1  0.57733489  0.59179088  0.76617988  1
  Te  Te141  1  0.58432862  0.91688008  0.09464460  1
  Te  Te142  1  0.56461751  0.91237873  0.40848567  1
  Te  Te143  1  0.55162191  0.95522554  0.77509156  1
  Te  Te144  1  0.91149660  0.26450672  0.10322263  1
  Te  Te145  1  0.91173735  0.25828185  0.41237899  1
  Te  Te146  1  0.92365044  0.23181289  0.74600603  1
  Te  Te147  1  0.91187819  0.58922910  0.08374863  1
  Te  Te148  1  0.91581031  0.59928327  0.40121257  1
  Te  Te149  1  0.92348557  0.55862321  0.74988700  1
  Te  Te150  1  0.94226136  0.93099291  0.10042007  1
  Te  Te151  1  0.96882640  0.86455066  0.41725595  1
  Te  Te152  1  0.91213305  0.90048961  0.76022690  1
  Te  Te153  1  0.23735973  0.13226349  0.24167539  1
  Te  Te154  1  0.23278214  0.09942912  0.60830490  1
  Te  Te155  1  0.26071026  0.08876113  0.89983654  1
  Te  Te156  1  0.22053379  0.40560184  0.24913629  1
  Te  Te157  1  0.31003850  0.35456078  0.65131019  1
  Te  Te158  1  0.28782271  0.39309744  0.89302700  1
  Te  Te159  1  0.26684579  0.80030184  0.23364295  1
  Te  Te160  1  0.25434780  0.75687513  0.56233042  1
  Te  Te161  1  0.25293378  0.77240520  0.92332246  1
  Te  Te162  1  0.57016449  0.07608110  0.25020139  1
  Te  Te163  1  0.58514068  0.11525677  0.59496775  1
  Te  Te164  1  0.61144383  0.05047408  0.91254973  1
  Te  Te165  1  0.63531316  0.37051920  0.26755508  1
  Te  Te166  1  0.55381401  0.41110994  0.61056919  1
  Te  Te167  1  0.54679386  0.41073693  0.91113703  1
  Te  Te168  1  0.56671651  0.76038869  0.24763029  1
  Te  Te169  1  0.58724862  0.73810668  0.58412536  1
  Te  Te170  1  0.59206528  0.76074207  0.90859942  1
  Te  Te171  1  0.92770288  0.06968823  0.29718220  1
  Te  Te172  1  0.91629638  0.07098962  0.57316827  1
  Te  Te173  1  0.90780628  0.09407069  0.93758931  1
  Te  Te174  1  0.90264795  0.43389809  0.25494550  1
  Te  Te175  1  0.89333787  0.41196220  0.56937147  1
  Te  Te176  1  0.93151905  0.40562196  0.89818568  1
  Te  Te177  1  0.93012490  0.79111978  0.19879742  1
  Te  Te178  1  0.93796610  0.76326208  0.56211756  1
  Te  Te179  1  0.90394011  0.76266405  0.92761322  1
