# generated using pymatgen
data_In2Te3
_symmetry_space_group_name_H-M   'P 1'
_cell_length_a   18.92231092
_cell_length_b   18.91419862
_cell_length_c   18.90133200
_cell_angle_alpha   89.90843950
_cell_angle_beta   89.85660105
_cell_angle_gamma   89.96455757
_symmetry_Int_Tables_number   1
_chemical_formula_structural   In2Te3
_chemical_formula_sum   'In72 Te108'
_cell_volume   6764.76217994
_cell_formula_units_Z   36
loop_
 _symmetry_equiv_pos_site_id
 _symmetry_equiv_pos_as_xyz
  1  'x, y, z'
loop_
 _atom_site_type_symbol
 _atom_site_label
 _atom_site_symmetry_multiplicity
 _atom_site_fract_x
 _atom_site_fract_y
 _atom_site_fract_z
 _atom_site_occupancy
  In  In0  1  0.69700961  0.85129829  0.47492823  1
  In  In1  1  0.84826922  0.00074983  0.53040286  1
  In  In2  1  0.65859191  0.00947771  0.27629309  1
  In  In3  1  0.17046143  0.80491596  0.34490148  1
  In  In4  1  0.82348183  0.83027045  0.00720424  1
  In  In5  1  0.35032250  0.01418374  0.01877283  1
  In  In6  1  0.00137702  0.66378537  0.00365706  1
  In  In7  1  0.48219620  0.48849642  0.00482056  1
  In  In8  1  0.31552868  0.16878533  0.49980172  1
  In  In9  1  0.84663292  0.50021699  0.68844100  1
  In  In10  1  0.84100238  0.15727048  0.34524519  1
  In  In11  1  0.68069578  0.34814847  0.01893607  1
  In  In12  1  0.00175768  0.49920764  0.17984893  1
  In  In13  1  0.52349792  0.89117546  0.03864002  1
  In  In14  1  0.64318276  0.19428220  0.16048115  1
  In  In15  1  0.68148345  0.64076595  0.04068395  1
  In  In16  1  0.00505687  0.00185383  0.32040630  1
  In  In17  1  0.65671395  0.84796344  0.86197146  1
  In  In18  1  0.52001021  0.48205449  0.67454847  1
  In  In19  1  0.64964695  0.36686942  0.30762028  1
  In  In20  1  0.65892396  0.17704783  0.50287547  1
  In  In21  1  0.31571252  0.83707914  0.82948287  1
  In  In22  1  0.00489473  0.49786287  0.83842355  1
  In  In23  1  0.14805010  0.33643106  0.13805971  1
  In  In24  1  0.83529741  0.16212029  0.68619804  1
  In  In25  1  0.48462354  0.70444939  0.84633457  1
  In  In26  1  0.49168617  0.33543757  0.47711359  1
  In  In27  1  0.28548609  0.61420689  0.60429886  1
  In  In28  1  0.48904423  0.83251441  0.69165035  1
  In  In29  1  0.48960649  0.32703783  0.83899329  1
  In  In30  1  0.66213573  0.69404496  0.65128708  1
  In  In31  1  0.16747431  0.15757172  -0.01283537  1
  In  In32  1  0.18054273  0.50348158  0.36058471  1
  In  In33  1  0.00612350  0.01386047  0.70133087  1
  In  In34  1  0.68393659  0.52056501  0.82427265  1
  In  In35  1  0.65452412  0.50898891  0.49988919  1
  In  In36  1  0.48393264  0.16196065  0.67098679  1
  In  In37  1  0.47644687  0.65665843  0.18145436  1
  In  In38  1  0.15680790  0.17878239  0.67620316  1
  In  In39  1  0.11638159  0.68930841  0.67124273  1
  In  In40  1  0.49171505  0.02054355  0.84190695  1
  In  In41  1  0.30767333  0.49835247  0.81403522  1
  In  In42  1  -0.01976111  0.83324300  0.49376663  1
  In  In43  1  0.48862002  -0.00426736  0.51514297  1
  In  In44  1  0.15362174  -0.00704371  0.50669154  1
  In  In45  1  0.86352635  0.83833310  0.69131620  1
  In  In46  1  0.50668149  0.82377209  0.33199799  1
  In  In47  1  0.84195214  0.66172859  0.84552733  1
  In  In48  1  0.87880606  0.64648558  0.45598686  1
  In  In49  1  0.16814287  -0.01407367  0.16061524  1
  In  In50  1  0.15699630  0.32178050  0.83497734  1
  In  In51  1  0.49805286  0.66215116  0.50024287  1
  In  In52  1  0.85410726  0.78407909  0.30900583  1
  In  In53  1  0.85141890  0.34362144  0.83672468  1
  In  In54  1  -0.00019849  0.32963311  0.65033544  1
  In  In55  1  0.32877595  0.31799871  -0.00822676  1
  In  In56  1  0.01099157  -0.02124193  -0.02226825  1
  In  In57  1  0.03217681  0.33517330  0.33663285  1
  In  In58  1  0.65587084  0.15668015  0.84171141  1
  In  In59  1  0.84720235  0.31036364  0.15162665  1
  In  In60  1  0.31915932  0.67423376  0.00641549  1
  In  In61  1  0.83121982  -0.00815898  0.16307689  1
  In  In62  1  0.17958306  0.18262461  0.33132575  1
  In  In63  1  0.13968070  0.65444639  0.16493943  1
  In  In64  1  0.83301713  0.34392575  0.48071406  1
  In  In65  1  0.84935085  0.15419996  0.00376802  1
  In  In66  1  0.31307863  0.82214910  0.15774150  1
  In  In67  1  0.36049016  0.00690310  0.33349642  1
  In  In68  1  0.35499446  0.31703493  0.30334035  1
  In  In69  1  0.33629919  0.49920623  0.16596220  1
  In  In70  1  0.33774687  0.83067946  0.51640622  1
  In  In71  1  0.68795085  0.63271103  0.29463167  1
  Te  Te72  1  0.07657642  0.07269159  0.07818307  1
  Te  Te73  1  0.08501036  0.09051523  0.41355077  1
  Te  Te74  1  0.10893674  0.08329704  0.77967792  1
  Te  Te75  1  0.06300155  0.43131878  0.06510866  1
  Te  Te76  1  0.09365882  0.41460661  0.44600964  1
  Te  Te77  1  0.08642135  0.41815844  0.73873490  1
  Te  Te78  1  0.09482784  0.75687758  0.07085065  1
  Te  Te79  1  0.07434553  0.73414617  0.43435410  1
  Te  Te80  1  0.08103292  0.80410679  0.76221660  1
  Te  Te81  1  0.41924874  0.09189540  0.12180205  1
  Te  Te82  1  0.43132331  0.10393008  0.42493250  1
  Te  Te83  1  0.39137732  0.08298092  0.75424173  1
  Te  Te84  1  0.41598768  0.38835356  0.09767096  1
  Te  Te85  1  0.42198659  0.42337693  0.38050961  1
  Te  Te86  1  0.40397579  0.40667634  0.74023583  1
  Te  Te87  1  0.43103902  0.75412912  0.07324884  1
  Te  Te88  1  0.40404933  0.74386881  0.41104993  1
  Te  Te89  1  0.38919935  0.72850443  0.73344100  1
  Te  Te90  1  0.74402399  0.09535762  0.09388544  1
  Te  Te91  1  0.74971799  0.07479661  0.43409060  1
  Te  Te92  1  0.74062598  0.07363711  0.75401604  1
  Te  Te93  1  0.76192382  0.42872196  0.11504278  1
  Te  Te94  1  0.74658495  0.43958132  0.39952104  1
  Te  Te95  1  0.74380991  0.40456771  0.74610648  1
  Te  Te96  1  0.75112161  0.74973760  0.10864650  1
  Te  Te97  1  0.74614098  0.72066268  0.41297231  1
  Te  Te98  1  0.74461994  0.75332274  0.76523197  1
  Te  Te99  1  0.07860769  0.23561435  0.23158865  1
  Te  Te100  1  0.10439092  0.26572682  0.56841810  1
  Te  Te101  1  0.06721629  0.25389014  0.93285109  1
  Te  Te102  1  0.06653287  0.58656437  0.29333654  1
  Te  Te103  1  0.08286716  0.60589170  0.54932874  1
  Te  Te104  1  0.09046988  0.59228050  0.91144147  1
  Te  Te105  1  0.08707016  0.89397676  0.25180462  1
  Te  Te106  1  0.05912143  0.91386547  0.59359592  1
  Te  Te107  1  0.09972416  0.91291524  0.87473179  1
  Te  Te108  1  0.41750078  0.20867266  0.22650007  1
  Te  Te109  1  0.40834752  0.25948417  0.57923192  1
  Te  Te110  1  0.41277899  0.22658360  0.91309028  1
  Te  Te111  1  0.40126646  0.57258078  0.27659277  1
  Te  Te112  1  0.42714330  0.55201416  0.57590284  1
  Te  Te113  1  0.40782568  0.57867766  0.90749023  1
  Te  Te114  1  0.41492883  0.90241140  0.23790780  1
  Te  Te115  1  0.39676698  0.92880123  0.61584459  1
  Te  Te116  1  0.42561301  0.90050646  0.91822820  1
  Te  Te117  1  0.75092798  0.24754567  0.26180757  1
  Te  Te118  1  0.76457396  0.25221264  0.58110042  1
  Te  Te119  1  0.75623190  0.25517237  0.91995777  1
  Te  Te120  1  0.78031070  0.56049462  0.20504524  1
  Te  Te121  1  0.74558510  0.57887975  0.59873472  1
  Te  Te122  1  0.77185489  0.56594323  0.94080238  1
  Te  Te123  1  0.75871090  0.89584927  0.25664210  1
  Te  Te124  1  0.75330775  0.90809461  0.60277992  1
  Te  Te125  1  0.74002966  0.93398519  0.94359979  1
  Te  Te126  1  0.24940815  0.23397390  0.09118163  1
  Te  Te127  1  0.25716061  0.28110763  0.41591198  1
  Te  Te128  1  0.25684300  0.25810989  0.74933458  1
  Te  Te129  1  0.23552156  0.57013657  0.07834801  1
  Te  Te130  1  0.24621155  0.60039556  0.45430625  1
  Te  Te131  1  0.21808097  0.59735666  0.74706466  1
  Te  Te132  1  0.24315723  0.90739382  0.05498394  1
  Te  Te133  1  0.25350327  0.92095107  0.41334025  1
  Te  Te134  1  0.20380469  0.90533495  0.75684091  1
  Te  Te135  1  0.57224411  0.25148033  0.04433903  1
  Te  Te136  1  0.58698468  0.25234998  0.39315180  1
  Te  Te137  1  0.58295384  0.25054086  0.74628089  1
  Te  Te138  1  0.57459759  0.55064825  0.11193468  1
  Te  Te139  1  0.57734843  0.58593212  0.39524834  1
  Te  Te140  1  0.57546476  0.60536281  0.74667156  1
  Te  Te141  1  0.60764711  0.94162412  0.14624127  1
  Te  Te142  1  0.58156445  0.93618077  0.40292596  1
  Te  Te143  1  0.58385713  0.92869021  0.75620688  1
  Te  Te144  1  0.94400832  0.25788913  0.05211680  1
  Te  Te145  1  0.93405449  0.24723531  0.42189339  1
  Te  Te146  1  0.93798481  0.24500606  0.76184190  1
  Te  Te147  1  0.90865060  0.61422313  0.12457076  1
  Te  Te148  1  0.93141935  0.54856730  0.36288376  1
  Te  Te149  1  0.93864008  0.60610317  0.74330399  1
  Te  Te150  1  0.92960579  0.90651741  0.08881461  1
  Te  Te151  1  0.90151211  0.92268185  0.40034888  1
  Te  Te152  1  0.89504476  0.95074016  0.78101917  1
  Te  Te153  1  0.25162969  0.07472687  0.25131023  1
  Te  Te154  1  0.24562902  0.07372475  0.59253538  1
  Te  Te155  1  0.26927732  0.07829434  0.91455900  1
  Te  Te156  1  0.22919218  0.41441202  0.24290283  1
  Te  Te157  1  0.18982413  0.50057352  0.56818130  1
  Te  Te158  1  0.23881691  0.41874441  0.92331829  1
  Te  Te159  1  0.25119954  0.71849393  0.24920949  1
  Te  Te160  1  0.23132266  0.76129423  0.59299297  1
  Te  Te161  1  0.23531566  0.74033215  0.90707109  1
  Te  Te162  1  0.54695902  0.10260310  0.23589215  1
  Te  Te163  1  0.58825601  0.07801566  0.59447855  1
  Te  Te164  1  0.57223811  0.08998565  0.94410452  1
  Te  Te165  1  0.56657692  0.42258253  0.20322896  1
  Te  Te166  1  0.59368209  0.39298356  0.57591960  1
  Te  Te167  1  0.58864180  0.43212461  0.90759936  1
  Te  Te168  1  0.59136289  0.73863084  0.23930639  1
  Te  Te169  1  0.57039586  0.78117630  0.56523317  1
  Te  Te170  1  0.60153152  0.72695979  0.93733722  1
  Te  Te171  1  0.92123822  0.09357168  0.23299129  1
  Te  Te172  1  0.93903423  0.10211348  0.58978701  1
  Te  Te173  1  0.91750272  0.06869657  0.90362773  1
  Te  Te174  1  0.91862572  0.39713967  0.25789896  1
  Te  Te175  1  0.91770685  0.43311079  0.57241042  1
  Te  Te176  1  0.90542850  0.44047592  0.93247067  1
  Te  Te177  1  0.95620361  0.72378038  0.22405988  1
  Te  Te178  1  0.89249595  0.74275339  0.57847104  1
  Te  Te179  1  0.92487287  0.76593013  0.91329082  1
