# generated using pymatgen
data_In2Te3
_symmetry_space_group_name_H-M   'P 1'
_cell_length_a   18.99275099
_cell_length_b   18.99115336
_cell_length_c   18.97477532
_cell_angle_alpha   90.20154068
_cell_angle_beta   89.86435079
_cell_angle_gamma   90.05841907
_symmetry_Int_Tables_number   1
_chemical_formula_structural   In2Te3
_chemical_formula_sum   'In72 Te108'
_cell_volume   6844.02727052
_cell_formula_units_Z   36
loop_
 _symmetry_equiv_pos_site_id
 _symmetry_equiv_pos_as_xyz
  1  'x, y, z'
loop_
 _atom_site_type_symbol
 _atom_site_label
 _atom_site_symmetry_multiplicity
 _atom_site_fract_x
 _atom_site_fract_y
 _atom_site_fract_z
 _atom_site_occupancy
  In  In0  1  0.50800776  0.28802034  0.16108047  1
  In  In1  1  0.00513715  0.51806446  0.84964984  1
  In  In2  1  0.31195337  0.33777996  0.33770834  1
  In  In3  1  0.66812410  -0.00677273  0.30035034  1
  In  In4  1  0.49723659  0.82174125  0.30848872  1
  In  In5  1  0.83176399  0.67748277  0.14315307  1
  In  In6  1  0.50544744  0.64193784  0.50622778  1
  In  In7  1  0.31313396  0.49548490  0.52118760  1
  In  In8  1  0.69683034  0.34286812  -0.00093932  1
  In  In9  1  0.83747585  0.50187236  0.32788975  1
  In  In10  1  0.65164566  0.68170406  0.32278676  1
  In  In11  1  0.83164987  0.50547876  0.66295665  1
  In  In12  1  0.68077803  0.48824502  0.52228642  1
  In  In13  1  0.15347432  0.00419248  0.49519952  1
  In  In14  1  0.65483676  -0.01325778  0.66344153  1
  In  In15  1  0.49679283  0.28080442  0.48844485  1
  In  In16  1  0.16166165  0.80936354  -0.01676142  1
  In  In17  1  0.81752445  -0.00586341  0.83836035  1
  In  In18  1  0.68922913  0.18951709  0.49760729  1
  In  In19  1  0.50165607  0.13654402  -0.02285145  1
  In  In20  1  0.16422323  0.35213128  0.19840629  1
  In  In21  1  0.55174162  0.88598290  -0.02933923  1
  In  In22  1  0.86092693  -0.02547525  0.13570403  1
  In  In23  1  -0.00634957  0.83056631  0.53115991  1
  In  In24  1  0.65782901  0.49248300  0.14288314  1
  In  In25  1  0.50879739  0.33418381  0.82591202  1
  In  In26  1  0.16679632  0.16727787  0.34172105  1
  In  In27  1  0.70152356  0.15536631  0.17546958  1
  In  In28  1  0.48932262  0.15582769  0.65589862  1
  In  In29  1  0.14665966  0.19517463  0.65523843  1
  In  In30  1  0.48724429  0.51878931  -0.01985909  1
  In  In31  1  -0.01136598  0.67531022  0.36824109  1
  In  In32  1  0.30651692  0.15984407  0.16545109  1
  In  In33  1  0.33291250  0.02013819  0.65385469  1
  In  In34  1  0.65069866  0.13918400  0.82840317  1
  In  In35  1  0.48049423  0.82762142  0.70609524  1
  In  In36  1  0.34249704  0.47329089  0.19106046  1
  In  In37  1  0.47876210  0.01722972  0.46982427  1
  In  In38  1  0.14895885  -0.00304862  0.16637929  1
  In  In39  1  0.34604909  -0.01366274  0.01006369  1
  In  In40  1  0.14939651  0.51471540  0.00491649  1
  In  In41  1  0.00235541  0.00925897  0.69773736  1
  In  In42  1  -0.02924679  0.80712668  0.83707545  1
  In  In43  1  0.69734992  0.53901860  0.84158295  1
  In  In44  1  0.71412061  0.78114964  0.82826877  1
  In  In45  1  0.30616540  0.64938764  -0.03550294  1
  In  In46  1  -0.00857916  0.18465668  0.83968142  1
  In  In47  1  -0.02040158  0.15216913  0.14808134  1
  In  In48  1  0.00528384  0.47797753  0.47824526  1
  In  In49  1  0.16507127  0.85027494  0.33196583  1
  In  In50  1  0.65060770  0.82821570  0.51728282  1
  In  In51  1  0.49238135  0.66776176  0.15730086  1
  In  In52  1  -0.00090575  0.66625324  0.66884144  1
  In  In53  1  0.83272751  0.16345361  -0.00589646  1
  In  In54  1  0.81897878  0.83081153  0.35407541  1
  In  In55  1  0.33804589  0.36672454  -0.01738667  1
  In  In56  1  0.16619158  0.67067075  0.15927658  1
  In  In57  1  0.29857142  0.83667499  0.57546039  1
  In  In58  1  0.32011278  0.66738969  0.35610187  1
  In  In59  1  0.51342607  0.46066702  0.31958837  1
  In  In60  1  0.51425018  0.49117674  0.67524113  1
  In  In61  1  0.83941877  0.18190953  0.33348287  1
  In  In62  1  0.16003123  0.19299948  -0.00376996  1
  In  In63  1  0.18900342  -0.01442564  0.84862695  1
  In  In64  1  0.39431548  0.85565264  0.14572448  1
  In  In65  1  0.32733729  0.15884095  0.80070314  1
  In  In66  1  -0.00812526  0.52724177  0.18130934  1
  In  In67  1  0.31369749  0.50755082  0.80486876  1
  In  In68  1  0.85236103  0.35919746  0.82870797  1
  In  In69  1  0.14189990  0.50006338  0.66626294  1
  In  In70  1  0.84984304  0.33172392  0.49628529  1
  In  In71  1  0.85052155  0.01629475  0.50958054  1
  Te  Te72  1  0.08094012  0.08004584  0.05925819  1
  Te  Te73  1  0.07080091  0.07062942  0.39541936  1
  Te  Te74  1  0.10697418  0.09100683  0.77254609  1
  Te  Te75  1  0.07625717  0.42360628  0.09844973  1
  Te  Te76  1  0.11426643  0.39636368  0.42455987  1
  Te  Te77  1  0.05531729  0.41960790  0.75197573  1
  Te  Te78  1  0.06817624  0.76146097  0.09248131  1
  Te  Te79  1  0.09204406  0.76432293  0.43418747  1
  Te  Te80  1  0.08211699  0.76198196  0.74701418  1
  Te  Te81  1  0.42133053  0.08682449  0.09669653  1
  Te  Te82  1  0.42008633  0.15122851  0.45022831  1
  Te  Te83  1  0.43623673  0.06317333  0.76242707  1
  Te  Te84  1  0.44455930  0.41562547  0.08973274  1
  Te  Te85  1  0.41127567  0.42091544  0.42266028  1
  Te  Te86  1  0.40590025  0.40400686  0.74095871  1
  Te  Te87  1  0.39868405  0.73113688  0.05843098  1
  Te  Te88  1  0.43123533  0.74583550  0.42235662  1
  Te  Te89  1  0.38649866  0.74588664  0.78107369  1
  Te  Te90  1  0.75106495  0.05994787  0.07023372  1
  Te  Te91  1  0.75110523  0.06968098  0.40710450  1
  Te  Te92  1  0.75275231  0.08030130  0.73224281  1
  Te  Te93  1  0.77610423  0.44544520  0.06818539  1
  Te  Te94  1  0.75032191  0.41027974  0.41195781  1
  Te  Te95  1  0.73831507  0.42289966  0.75156350  1
  Te  Te96  1  0.78791609  0.77924210  0.04170486  1
  Te  Te97  1  0.73770431  0.73230152  0.43616631  1
  Te  Te98  1  0.77745804  0.72480428  0.70480259  1
  Te  Te99  1  0.08211152  0.23243526  0.23407501  1
  Te  Te100  1  0.04094350  0.21401964  0.55542952  1
  Te  Te101  1  0.06469171  0.27708304  0.92751920  1
  Te  Te102  1  0.08530770  0.60634006  0.27123395  1
  Te  Te103  1  0.07238773  0.58752128  0.56248841  1
  Te  Te104  1  0.09758511  0.61446045  0.91369084  1
  Te  Te105  1  0.05943965  0.90630127  0.24379336  1
  Te  Te106  1  0.08690913  0.92336937  0.60533324  1
  Te  Te107  1  0.07383792  0.90428796  0.90488055  1
  Te  Te108  1  0.39866409  0.24282175  0.25574915  1
  Te  Te109  1  0.39470496  0.24577067  0.58962372  1
  Te  Te110  1  0.41540053  0.25289274  0.91667202  1
  Te  Te111  1  0.42941603  0.58224338  0.26544256  1
  Te  Te112  1  0.41107079  0.58011843  0.60475709  1
  Te  Te113  1  0.42064225  0.59646699  0.87111366  1
  Te  Te114  1  0.40801242  0.93091573  0.27139584  1
  Te  Te115  1  0.43390616  0.92025264  0.58505724  1
  Te  Te116  1  0.42010627  0.91156219  0.90959584  1
  Te  Te117  1  0.78487119  0.26399995  0.22527572  1
  Te  Te118  1  0.77323908  0.25482568  0.59643525  1
  Te  Te119  1  0.74562318  0.24106273  0.89437742  1
  Te  Te120  1  0.74111968  0.58926679  0.23974981  1
  Te  Te121  1  0.72217557  0.59862703  0.61484353  1
  Te  Te122  1  0.76401262  0.64484897  0.92451401  1
  Te  Te123  1  0.76298649  0.89904890  0.23115767  1
  Te  Te124  1  0.75863854  0.91475507  0.57923174  1
  Te  Te125  1  0.77094445  0.88505811  0.92833961  1
  Te  Te126  1  0.25770529  0.28362543  0.08869917  1
  Te  Te127  1  0.21393644  0.27735143  0.43412646  1
  Te  Te128  1  0.23191182  0.25857954  0.75803671  1
  Te  Te129  1  0.27017025  0.56585290  0.09508646  1
  Te  Te130  1  0.23930535  0.60746909  0.46022345  1
  Te  Te131  1  0.23456658  0.60438322  0.72497065  1
  Te  Te132  1  0.23882174  0.90530759  0.08171232  1
  Te  Te133  1  0.25760945  0.90250586  0.44643390  1
  Te  Te134  1  0.25636533  0.92096920  0.73286489  1
  Te  Te135  1  0.59355485  0.23745734  0.04630184  1
  Te  Te136  1  0.60764358  0.25189540  0.39584228  1
  Te  Te137  1  0.58677320  0.24130415  0.73533952  1
  Te  Te138  1  0.58831491  0.59837699  0.06100517  1
  Te  Te139  1  0.59349720  0.56652763  0.40506282  1
  Te  Te140  1  0.59404832  0.59028696  0.75061710  1
  Te  Te141  1  0.53178135  0.90643821  0.11563289  1
  Te  Te142  1  0.58868061  0.90729933  0.40313644  1
  Te  Te143  1  0.61069312  0.88259974  0.76026459  1
  Te  Te144  1  0.91175352  0.25715652  0.07288502  1
  Te  Te145  1  0.94264163  0.23955199  0.42315250  1
  Te  Te146  1  0.90307720  0.25034077  0.74437028  1
  Te  Te147  1  0.94099484  0.60952080  0.06967537  1
  Te  Te148  1  0.89590097  0.58156124  0.44190870  1
  Te  Te149  1  0.90467145  0.59347028  0.76140873  1
  Te  Te150  1  0.97136916  0.88511052  0.09969559  1
  Te  Te151  1  0.92441573  0.91414698  0.42448923  1
  Te  Te152  1  0.90147591  0.90748295  0.74553533  1
  Te  Te153  1  0.24775623  0.06164436  0.26302416  1
  Te  Te154  1  0.23859822  0.10345405  0.57269954  1
  Te  Te155  1  0.26588403  0.09696374  0.93302470  1
  Te  Te156  1  0.22812355  0.45766143  0.28853307  1
  Te  Te157  1  0.21660700  0.40220334  0.58223979  1
  Te  Te158  1  0.22867981  0.42821806  0.90286593  1
  Te  Te159  1  0.25612050  0.75408399  0.25004416  1
  Te  Te160  1  0.21658284  0.73855836  0.64472959  1
  Te  Te161  1  0.26629612  0.76660806  0.88182784  1
  Te  Te162  1  0.58625022  0.10159094  0.24788893  1
  Te  Te163  1  0.59054075  0.07885816  0.56249295  1
  Te  Te164  1  0.59802276  0.03630582  0.92290741  1
  Te  Te165  1  0.60678897  0.38023418  0.23228649  1
  Te  Te166  1  0.57487658  0.39724775  0.57345445  1
  Te  Te167  1  0.59004693  0.42729218  0.91411573  1
  Te  Te168  1  0.60146147  0.76243162  0.20729802  1
  Te  Te169  1  0.56284284  0.74230611  0.60454222  1
  Te  Te170  1  0.59917132  0.75559764  0.91949929  1
  Te  Te171  1  0.90350180  0.06903742  0.24724618  1
  Te  Te172  1  0.94220611  0.09999387  0.59359690  1
  Te  Te173  1  0.92291624  0.07012464  0.91533997  1
  Te  Te174  1  0.93895319  0.41910864  0.26486954  1
  Te  Te175  1  0.93218475  0.41387933  0.59524390  1
  Te  Te176  1  0.90198808  0.44918013  0.93229057  1
  Te  Te177  1  0.90372273  0.74179887  0.26369510  1
  Te  Te178  1  0.89076129  0.74520858  0.59820430  1
  Te  Te179  1  0.89844059  0.72224612  0.93881265  1
