# generated using pymatgen
data_In2Te3
_symmetry_space_group_name_H-M   'P 1'
_cell_length_a   18.78870544
_cell_length_b   18.78323405
_cell_length_c   18.77612239
_cell_angle_alpha   89.98063437
_cell_angle_beta   89.95404333
_cell_angle_gamma   89.97397173
_symmetry_Int_Tables_number   1
_chemical_formula_structural   In2Te3
_chemical_formula_sum   'In72 Te108'
_cell_volume   6626.32794784
_cell_formula_units_Z   36
loop_
 _symmetry_equiv_pos_site_id
 _symmetry_equiv_pos_as_xyz
  1  'x, y, z'
loop_
 _atom_site_type_symbol
 _atom_site_label
 _atom_site_symmetry_multiplicity
 _atom_site_fract_x
 _atom_site_fract_y
 _atom_site_fract_z
 _atom_site_occupancy
  In  In0  1  0.51658214  0.32702380  0.47332963  1
  In  In1  1  0.67100720  0.48284297  0.17616616  1
  In  In2  1  0.48098132  0.66627441  0.16254316  1
  In  In3  1  0.80647463  0.49032543  0.66043214  1
  In  In4  1  0.66191068  0.67192225  0.65448660  1
  In  In5  1  0.49884740  0.30889420  0.86685036  1
  In  In6  1  0.83596914  0.16309939  0.66164017  1
  In  In7  1  0.35448746  0.29806738  0.31424745  1
  In  In8  1  0.66906147  0.31131304  0.35146073  1
  In  In9  1  0.31352364  0.83655122  0.84867823  1
  In  In10  1  0.14959360  0.17923207  0.65949020  1
  In  In11  1  0.33588814  0.32562718  0.01083190  1
  In  In12  1  0.50756510  0.01085264  0.17831419  1
  In  In13  1  0.66027711  0.28869333  0.03085176  1
  In  In14  1  0.47858939  0.65108160  0.84077690  1
  In  In15  1  0.49438588  0.81915569  0.01909989  1
  In  In16  1  0.68635634  0.51239215  0.82892882  1
  In  In17  1  0.34070423  0.52174837  0.83664786  1
  In  In18  1  0.66673469  0.84504528  0.47475977  1
  In  In19  1  0.14224712  0.50527101  0.32587346  1
  In  In20  1  0.84460924  0.16390785  0.33161253  1
  In  In21  1  0.32179093  -0.02470851  0.67059600  1
  In  In22  1  0.16504807  0.32883881  0.82065330  1
  In  In23  1  0.31479479  0.51327135  0.50004697  1
  In  In24  1  0.84575123  -0.00303335  0.16443129  1
  In  In25  1  0.32098116  0.50873443  0.15523212  1
  In  In26  1  0.00462148  0.66699635  0.66652228  1
  In  In27  1  0.17396663  0.48288427  0.67980313  1
  In  In28  1  0.31738010  0.34080580  0.67435093  1
  In  In29  1  -0.01671649  0.49278533  0.47444592  1
  In  In30  1  0.16943289  0.68258363  0.51190223  1
  In  In31  1  0.49153842  0.84276755  0.34292143  1
  In  In32  1  -0.00880251  0.32115818  0.01675951  1
  In  In33  1  0.84598630  0.66806084  0.84184810  1
  In  In34  1  -0.01073184  0.31825308  0.31677345  1
  In  In35  1  0.00095346  0.68090836  0.31639301  1
  In  In36  1  0.15160445  0.32367353  0.17081987  1
  In  In37  1  0.68196292  0.16683945  0.84679029  1
  In  In38  1  0.69525813  0.02194606  0.01182665  1
  In  In39  1  0.66750202  0.67150310  0.34803071  1
  In  In40  1  0.14272820  0.01340505  0.46616283  1
  In  In41  1  0.16060100  0.50828923  0.01608679  1
  In  In42  1  0.46413024  0.49919406  0.63469935  1
  In  In43  1  0.69067693  0.32662247  0.66526435  1
  In  In44  1  0.32266040  0.84021006  0.49186549  1
  In  In45  1  0.01038246  0.84072593  0.47798049  1
  In  In46  1  0.67817880  0.49153491  0.47593480  1
  In  In47  1  0.17810477  0.14137977  0.00926580  1
  In  In48  1  0.33052856  -0.00638959  0.02012794  1
  In  In49  1  0.15253312  -0.01682367  0.19526125  1
  In  In50  1  0.52326866  0.01350580  0.83244426  1
  In  In51  1  0.49762753  0.15106445  0.65258979  1
  In  In52  1  0.01560915  0.46558294  0.83978240  1
  In  In53  1  0.02133858  0.69010027  0.03933097  1
  In  In54  1  0.33376226  0.01228448  0.31532386  1
  In  In55  1  0.01238559  -0.00595431  0.67200841  1
  In  In56  1  0.67284449  0.02379341  0.66095867  1
  In  In57  1  -0.02085802  0.14388748  0.85309179  1
  In  In58  1  0.68314987  0.86212084  0.86119404  1
  In  In59  1  0.85431209  0.33166613  0.16725224  1
  In  In60  1  0.67277389  0.67382604  0.02015126  1
  In  In61  1  0.17663629  0.67561666  0.82766965  1
  In  In62  1  0.50639252  0.50608893  0.31930607  1
  In  In63  1  0.81677953  0.32109504  0.49022343  1
  In  In64  1  0.48106514  0.84020505  0.65005348  1
  In  In65  1  0.33260353  0.16261013  0.48470824  1
  In  In66  1  0.69363170  0.84949854  0.18571147  1
  In  In67  1  0.02766847  0.85852990  0.86202384  1
  In  In68  1  0.86480778  0.82351540  0.66226371  1
  In  In69  1  0.85119317  0.68201754  0.16372172  1
  In  In70  1  0.47891307  0.49495800  -0.02574164  1
  In  In71  1  0.84989014  0.00625295  0.49623986  1
  Te  Te72  1  0.07602228  0.07072058  0.09394309  1
  Te  Te73  1  0.06577548  0.08786642  0.36190595  1
  Te  Te74  1  0.09059154  0.08488875  0.76596473  1
  Te  Te75  1  0.06434612  0.42685321  0.10168148  1
  Te  Te76  1  0.08399449  0.39574526  0.41281394  1
  Te  Te77  1  0.06208364  0.38017297  0.71685621  1
  Te  Te78  1  0.08899099  0.79059062  0.13506947  1
  Te  Te79  1  0.10906295  0.75935077  0.39453068  1
  Te  Te80  1  0.08270600  0.76684532  0.74688694  1
  Te  Te81  1  0.41961496  0.09241130  0.08700352  1
  Te  Te82  1  0.42811478  0.07998981  0.40844080  1
  Te  Te83  1  0.41005343  0.07500621  0.75140724  1
  Te  Te84  1  0.42726889  0.41448854  0.09424217  1
  Te  Te85  1  0.40946080  0.41842809  0.41259166  1
  Te  Te86  1  0.42413187  0.41263469  0.76469908  1
  Te  Te87  1  0.38298196  0.75801608  0.09698739  1
  Te  Te88  1  0.39884429  0.74725428  0.40387976  1
  Te  Te89  1  0.40719747  0.75519319  0.75322703  1
  Te  Te90  1  0.76417798  0.11161159  0.10789569  1
  Te  Te91  1  0.75141507  0.07978965  0.41278550  1
  Te  Te92  1  0.76959784  0.06999967  0.76725068  1
  Te  Te93  1  0.75235417  0.40480798  0.07600257  1
  Te  Te94  1  0.77490584  0.42245293  0.38250537  1
  Te  Te95  1  0.77013931  0.39421807  0.77564586  1
  Te  Te96  1  0.76901937  0.77792524  0.07273141  1
  Te  Te97  1  0.76685968  0.76396092  0.40375906  1
  Te  Te98  1  0.75117747  0.75119331  0.75233556  1
  Te  Te99  1  0.08224818  0.21817488  0.25274623  1
  Te  Te100  1  0.08146385  0.28364138  0.58533381  1
  Te  Te101  1  0.09207370  0.24544027  0.92550834  1
  Te  Te102  1  0.08139563  0.59367537  0.22355106  1
  Te  Te103  1  0.08272218  0.56643659  0.57839773  1
  Te  Te104  1  0.07797809  0.58658991  0.90940479  1
  Te  Te105  1  0.04226089  0.89345451  0.25244762  1
  Te  Te106  1  0.09990846  0.91272015  0.57829886  1
  Te  Te107  1  0.06512977  0.96299039  0.96530137  1
  Te  Te108  1  0.44859241  0.21622916  0.23212156  1
  Te  Te109  1  0.41888831  0.26527207  0.58227713  1
  Te  Te110  1  0.39503221  0.22263877  0.92248451  1
  Te  Te111  1  0.39383870  0.59261010  0.26337733  1
  Te  Te112  1  0.39864959  0.61307903  0.57154256  1
  Te  Te113  1  0.38132632  0.61151927  0.95316853  1
  Te  Te114  1  0.40900600  0.90680516  0.23222037  1
  Te  Te115  1  0.41924949  0.94219295  0.55664069  1
  Te  Te116  1  0.43531934  0.91601264  0.91524089  1
  Te  Te117  1  0.75047650  0.24373596  0.24109822  1
  Te  Te118  1  0.72966820  0.21979490  0.56527969  1
  Te  Te119  1  0.76734762  0.23878936  0.94258131  1
  Te  Te120  1  0.74850250  0.59413204  0.24241327  1
  Te  Te121  1  0.75610149  0.59500774  0.56158379  1
  Te  Te122  1  0.76601321  0.58155293  0.94015556  1
  Te  Te123  1  0.74367666  0.95844471  0.27200972  1
  Te  Te124  1  0.76048111  0.91077323  0.59140437  1
  Te  Te125  1  0.79035681  0.93248900  0.93601992  1
  Te  Te126  1  0.25720120  0.23541026  0.10460317  1
  Te  Te127  1  0.24563310  0.24213756  0.39621887  1
  Te  Te128  1  0.26161903  0.22912880  0.75957546  1
  Te  Te129  1  0.21614548  0.60993610  0.11405547  1
  Te  Te130  1  0.23762876  0.59865014  0.39974252  1
  Te  Te131  1  0.26292979  0.59578792  0.72805209  1
  Te  Te132  1  0.23822717  0.90172402  0.09638234  1
  Te  Te133  1  0.23700543  0.91923863  0.39215512  1
  Te  Te134  1  0.22507440  0.93107481  0.77413675  1
  Te  Te135  1  0.54876311  0.22871220  0.10811596  1
  Te  Te136  1  0.57231720  0.20896047  0.40405222  1
  Te  Te137  1  0.58379828  0.24314971  0.74741088  1
  Te  Te138  1  0.57507937  0.57135674  0.08140109  1
  Te  Te139  1  0.56829203  0.58838436  0.43143998  1
  Te  Te140  1  0.57651130  0.57602308  0.74082086  1
  Te  Te141  1  0.59419787  0.91777132  0.07865745  1
  Te  Te142  1  0.59344018  0.93982141  0.38681587  1
  Te  Te143  1  0.58908322  0.90862879  0.73826035  1
  Te  Te144  1  0.92095901  0.21836359  0.09699460  1
  Te  Te145  1  0.93086414  0.23801862  0.43501426  1
  Te  Te146  1  0.91558179  0.23966526  0.76004733  1
  Te  Te147  1  0.92439378  0.58565258  0.07846401  1
  Te  Te148  1  0.91010044  0.59551570  0.39908796  1
  Te  Te149  1  0.91457518  0.56962333  0.74422554  1
  Te  Te150  1  0.94378141  0.93546301  0.06311415  1
  Te  Te151  1  0.92424594  0.92686534  0.39344295  1
  Te  Te152  1  0.91984519  0.91895726  0.76682930  1
  Te  Te153  1  0.23938669  0.09780686  0.23985757  1
  Te  Te154  1  0.24117714  0.07964817  0.57879294  1
  Te  Te155  1  0.24942713  0.05497521  0.91093558  1
  Te  Te156  1  0.25268379  0.41063846  0.25410873  1
  Te  Te157  1  0.23330073  0.39947331  0.56269844  1
  Te  Te158  1  0.24675787  0.42325609  0.91826084  1
  Te  Te159  1  0.22570544  0.76686449  0.19134494  1
  Te  Te160  1  0.24670722  0.77183428  0.59965535  1
  Te  Te161  1  0.21986715  0.76407829  0.93715861  1
  Te  Te162  1  0.58062572  0.12771154  0.23768694  1
  Te  Te163  1  0.57713553  0.06897565  0.55981217  1
  Te  Te164  1  0.58144660  0.09933292  0.94094468  1
  Te  Te165  1  0.57763892  0.39070781  0.25216815  1
  Te  Te166  1  0.59351158  0.41531301  0.58515134  1
  Te  Te167  1  0.59786624  0.41557949  0.91626905  1
  Te  Te168  1  0.58621259  0.74885326  0.23716534  1
  Te  Te169  1  0.57397453  0.75601986  0.56255930  1
  Te  Te170  1  0.58755980  0.74186703  0.90901671  1
  Te  Te171  1  0.94372864  0.06715043  0.26676169  1
  Te  Te172  1  0.94535970  0.09330428  0.57829444  1
  Te  Te173  1  0.92135266  0.04641422  0.95244801  1
  Te  Te174  1  0.91586404  0.43250396  0.25666887  1
  Te  Te175  1  0.90488499  0.40787983  0.57943527  1
  Te  Te176  1  0.91229546  0.40966888  0.92686249  1
  Te  Te177  1  0.92178289  0.79062175  0.24371955  1
  Te  Te178  1  0.92573766  0.73536736  0.55487199  1
  Te  Te179  1  0.93434830  0.75617781  0.92912339  1
