# generated using pymatgen
data_In2Te3
_symmetry_space_group_name_H-M   'P 1'
_cell_length_a   18.94314859
_cell_length_b   18.94116527
_cell_length_c   18.95414353
_cell_angle_alpha   90.17949657
_cell_angle_beta   89.95442919
_cell_angle_gamma   89.96495685
_symmetry_Int_Tables_number   1
_chemical_formula_structural   In2Te3
_chemical_formula_sum   'In72 Te108'
_cell_volume   6800.81050576
_cell_formula_units_Z   36
loop_
 _symmetry_equiv_pos_site_id
 _symmetry_equiv_pos_as_xyz
  1  'x, y, z'
loop_
 _atom_site_type_symbol
 _atom_site_label
 _atom_site_symmetry_multiplicity
 _atom_site_fract_x
 _atom_site_fract_y
 _atom_site_fract_z
 _atom_site_occupancy
  In  In0  1  -0.03521329  0.12859073  0.83605350  1
  In  In1  1  0.66670899  0.32417166  0.32964156  1
  In  In2  1  0.82008670  0.15704649  0.33047319  1
  In  In3  1  0.67515019  0.68811557  0.65433072  1
  In  In4  1  0.00477745  0.34184318  0.32259908  1
  In  In5  1  0.15954708  0.51212119  0.00168334  1
  In  In6  1  0.50886062  -0.01401470  0.84664254  1
  In  In7  1  0.17153464  0.50180647  0.32360554  1
  In  In8  1  0.33810765  0.14020137  0.85733168  1
  In  In9  1  0.33318590  0.84646808  0.83947032  1
  In  In10  1  0.01969653  0.67907310  0.32082188  1
  In  In11  1  0.66616240  0.66960517  0.00307948  1
  In  In12  1  0.67783565  0.14840727  0.82691236  1
  In  In13  1  0.50233080  0.14872096  0.01468552  1
  In  In14  1  0.16706037  0.14768154  -0.01414875  1
  In  In15  1  0.67641990  -0.00483396  0.32310071  1
  In  In16  1  0.17556715  0.84655841  0.33183346  1
  In  In17  1  0.00922838  0.66134619  -0.00168362  1
  In  In18  1  0.50569627  0.65496853  0.85336447  1
  In  In19  1  0.87890429  0.33487161  0.90743793  1
  In  In20  1  0.67206403  0.48784810  0.84304018  1
  In  In21  1  0.33630676  0.51895204  0.82754575  1
  In  In22  1  0.33594760  0.83853241  0.15350669  1
  In  In23  1  0.49787530  -0.00146828  0.16049414  1
  In  In24  1  -0.03545555  0.86771056  0.83302104  1
  In  In25  1  0.17086627  0.66528338  0.52131770  1
  In  In26  1  0.15617409  0.83554653  -0.02590656  1
  In  In27  1  0.51813481  0.15609266  0.67136680  1
  In  In28  1  -0.02709900  0.85926072  0.14881747  1
  In  In29  1  0.49333406  0.49610063  0.66935201  1
  In  In30  1  0.00648315  0.51738984  0.48408028  1
  In  In31  1  0.83148083  0.72041326  0.49961927  1
  In  In32  1  0.48660156  0.68525207  0.15548639  1
  In  In33  1  0.82653998  0.66359664  0.85671613  1
  In  In34  1  0.48186802  0.30754125  0.21575895  1
  In  In35  1  0.15029840  0.32895243  0.83850425  1
  In  In36  1  0.83347403  0.49329617  0.32214463  1
  In  In37  1  0.14498649  0.15398297  0.68999029  1
  In  In38  1  0.68467123  0.15877451  0.15144245  1
  In  In39  1  0.17115626  -0.01151571  0.50855961  1
  In  In40  1  -0.07695357  0.13957115  0.11329572  1
  In  In41  1  -0.03228144  0.68358540  0.68643616  1
  In  In42  1  0.34341287  0.00440861  0.32736546  1
  In  In43  1  0.66317676  0.34109788  -0.00835195  1
  In  In44  1  0.50316401  0.33066410  0.47822831  1
  In  In45  1  0.83274635  0.65515263  0.15742175  1
  In  In46  1  0.30980721  0.48862934  0.14167804  1
  In  In47  1  0.66366022  0.49305824  0.16852349  1
  In  In48  1  0.16353038  0.83836650  0.68123614  1
  In  In49  1  0.35160203  0.32708251  -0.00037691  1
  In  In50  1  0.67324514  0.32509449  0.66384235  1
  In  In51  1  0.15584634  0.01506947  0.17736878  1
  In  In52  1  0.01137238  0.15097131  0.51142375  1
  In  In53  1  0.68146092  0.86710268  0.52081323  1
  In  In54  1  0.62217986  0.55275068  0.45646967  1
  In  In55  1  0.33615439  0.48293157  0.50061932  1
  In  In56  1  0.70782485  0.85007878  0.83508176  1
  In  In57  1  0.18096308  0.19233674  0.34359782  1
  In  In58  1  0.49806568  0.84918688  0.65841282  1
  In  In59  1  0.16151993  0.64670979  0.16509055  1
  In  In60  1  0.84858913  0.14349849  0.65165047  1
  In  In61  1  0.00915535  0.31157444  0.67416467  1
  In  In62  1  0.32968625  0.15555991  0.49550778  1
  In  In63  1  0.31823019  0.33904535  0.65867672  1
  In  In64  1  0.83250664  0.52531354  0.66474546  1
  In  In65  1  0.66340458  0.84870930  0.16760620  1
  In  In66  1  0.16827911  0.32506190  0.15336714  1
  In  In67  1  0.83126721  0.32482671  0.51332921  1
  In  In68  1  0.33244042  0.66000205  0.66840014  1
  In  In69  1  -0.06236598  -0.02616252  0.36776901  1
  In  In70  1  0.50182022  0.00084243  0.51185327  1
  In  In71  1  0.37757146  0.67880390  0.34239022  1
  Te  Te72  1  0.06550603  0.08287353  0.07751804  1
  Te  Te73  1  0.10112739  0.08151357  0.40991167  1
  Te  Te74  1  0.04156654  0.05825023  0.73115798  1
  Te  Te75  1  0.07724964  0.40413178  0.06521817  1
  Te  Te76  1  0.09619547  0.41236929  0.42147775  1
  Te  Te77  1  0.06832816  0.41646739  0.75621908  1
  Te  Te78  1  0.08282672  0.76003931  0.10086606  1
  Te  Te79  1  0.09459244  0.75858999  0.42581612  1
  Te  Te80  1  0.06260181  0.76646858  0.76977029  1
  Te  Te81  1  0.39872149  0.06262761  0.07086306  1
  Te  Te82  1  0.43658333  0.09293181  0.40828832  1
  Te  Te83  1  0.42356845  0.06962688  0.75284639  1
  Te  Te84  1  0.42896807  0.40298037  0.10376839  1
  Te  Te85  1  0.42792225  0.42901169  0.40006089  1
  Te  Te86  1  0.41349534  0.40563718  0.75775501  1
  Te  Te87  1  0.42824186  0.77761214  0.05583197  1
  Te  Te88  1  0.44657311  0.75636602  0.44423164  1
  Te  Te89  1  0.43156791  0.74175432  0.75256728  1
  Te  Te90  1  0.78861287  0.07554064  0.08755023  1
  Te  Te91  1  0.76454157  0.05987435  0.42501260  1
  Te  Te92  1  0.76547548  0.05841343  0.74557195  1
  Te  Te93  1  0.75192506  0.41219053  0.08408065  1
  Te  Te94  1  0.74903588  0.41483514  0.42305058  1
  Te  Te95  1  0.76420600  0.41494071  0.74608615  1
  Te  Te96  1  0.75943786  0.75958893  0.07733240  1
  Te  Te97  1  0.72971826  0.77892550  0.41026690  1
  Te  Te98  1  0.77971406  0.75195163  0.74111431  1
  Te  Te99  1  0.07946357  0.23811882  0.24004442  1
  Te  Te100  1  0.10704205  0.25018985  0.57679345  1
  Te  Te101  1  0.06444776  0.22513968  0.90586973  1
  Te  Te102  1  0.06156870  0.55794720  0.23661105  1
  Te  Te103  1  0.06322168  0.59554694  0.60065039  1
  Te  Te104  1  0.10664617  0.60568711  0.90294866  1
  Te  Te105  1  0.06569840  0.92176379  0.25967181  1
  Te  Te106  1  0.07489188  0.92406390  0.59848743  1
  Te  Te107  1  0.06264245  0.93472497  0.92057025  1
  Te  Te108  1  0.38249653  0.21990856  0.27358634  1
  Te  Te109  1  0.42264493  0.24955183  0.58964795  1
  Te  Te110  1  0.43846517  0.24041765  0.91111169  1
  Te  Te111  1  0.39748901  0.58313188  0.22774493  1
  Te  Te112  1  0.42354075  0.58609238  0.57115652  1
  Te  Te113  1  0.42332128  0.56764439  0.93530341  1
  Te  Te114  1  0.42847895  0.90109350  0.25641959  1
  Te  Te115  1  0.39924662  0.93320299  0.59262641  1
  Te  Te116  1  0.41464767  0.91944076  0.93953569  1
  Te  Te117  1  0.76480097  0.25932082  0.23389587  1
  Te  Te118  1  0.73958210  0.22248866  0.57509335  1
  Te  Te119  1  0.75575774  0.24599726  0.91792518  1
  Te  Te120  1  0.73782752  0.59247674  0.25848432  1
  Te  Te121  1  0.74355655  0.58884598  0.56003721  1
  Te  Te122  1  0.75724285  0.56194834  0.94357602  1
  Te  Te123  1  0.77028634  0.92118831  0.23848533  1
  Te  Te124  1  0.78910164  0.92020529  0.60650492  1
  Te  Te125  1  0.78605748  0.92459864  0.93667708  1
  Te  Te126  1  0.25848830  0.23310688  0.07311528  1
  Te  Te127  1  0.28001595  0.27156114  0.41876537  1
  Te  Te128  1  0.25613382  0.23915723  0.76248956  1
  Te  Te129  1  0.26378661  0.60857155  0.06123198  1
  Te  Te130  1  0.25204927  0.59469806  0.41223966  1
  Te  Te131  1  0.23529064  0.57752898  0.74026990  1
  Te  Te132  1  0.22927528  0.92098102  0.08453671  1
  Te  Te133  1  0.27524763  0.91119219  0.42506019  1
  Te  Te134  1  0.24356645  0.93450010  0.76211464  1
  Te  Te135  1  0.57635095  0.25494016  0.09782329  1
  Te  Te136  1  0.59222375  0.23310943  0.41568773  1
  Te  Te137  1  0.58733698  0.25421012  0.76565387  1
  Te  Te138  1  0.57501388  0.58104111  0.08235758  1
  Te  Te139  1  0.52791918  0.64329859  0.37739725  1
  Te  Te140  1  0.60086812  0.58751461  0.74211111  1
  Te  Te141  1  0.59471878  0.93464387  0.07064934  1
  Te  Te142  1  0.58288549  0.91630388  0.41436280  1
  Te  Te143  1  0.60183383  0.91647240  0.74757424  1
  Te  Te144  1  0.90690948  0.26780313  0.04270034  1
  Te  Te145  1  0.92435981  0.24707760  0.42063239  1
  Te  Te146  1  0.89826479  0.24738925  0.75229580  1
  Te  Te147  1  0.92228654  0.56892622  0.07560175  1
  Te  Te148  1  0.91111857  0.60419638  0.40666509  1
  Te  Te149  1  0.92060092  0.57155319  0.77938139  1
  Te  Te150  1  0.89875594  0.93714066  0.04467343  1
  Te  Te151  1  0.89192055  0.84772846  0.43053433  1
  Te  Te152  1  0.87095300  0.93761029  0.73799207  1
  Te  Te153  1  0.26487309  0.10216862  0.24180625  1
  Te  Te154  1  0.24862050  0.08295503  0.59905605  1
  Te  Te155  1  0.22578937  0.04982330  0.89043870  1
  Te  Te156  1  0.25670641  0.39918721  0.25183034  1
  Te  Te157  1  0.23378293  0.44023083  0.59626305  1
  Te  Te158  1  0.25170637  0.41028012  0.92133559  1
  Te  Te159  1  0.24954377  0.74453935  0.24758927  1
  Te  Te160  1  0.26174905  0.76637617  0.58718613  1
  Te  Te161  1  0.24735948  0.74560266  0.90315386  1
  Te  Te162  1  0.58735931  0.09051358  0.24446892  1
  Te  Te163  1  0.60420397  0.06749449  0.59466213  1
  Te  Te164  1  0.60477388  0.06888303  0.93347557  1
  Te  Te165  1  0.57187677  0.42393969  0.26731796  1
  Te  Te166  1  0.58850645  0.41821979  0.57945411  1
  Te  Te167  1  0.56559145  0.42337285  0.91810970  1
  Te  Te168  1  0.58648575  0.74800201  0.24462582  1
  Te  Te169  1  0.57395473  0.75389673  0.56666947  1
  Te  Te170  1  0.59957961  0.76224698  0.90414405  1
  Te  Te171  1  0.92606034  0.07801889  0.25853016  1
  Te  Te172  1  0.90304760  0.05364970  0.54437210  1
  Te  Te173  1  0.87582550  0.05424563  0.92998219  1
  Te  Te174  1  0.91042978  0.40706003  0.23280012  1
  Te  Te175  1  0.92316889  0.42587962  0.58029062  1
  Te  Te176  1  0.96120234  0.44108108  0.96554337  1
  Te  Te177  1  0.91357697  0.75419562  0.24195056  1
  Te  Te178  1  0.94107018  0.78234068  0.57898016  1
  Te  Te179  1  0.91473994  0.75874236  0.93195817  1
