# generated using pymatgen
data_In2Te3
_symmetry_space_group_name_H-M   'P 1'
_cell_length_a   18.77181642
_cell_length_b   18.77669588
_cell_length_c   18.77043996
_cell_angle_alpha   90.11277595
_cell_angle_beta   89.94080380
_cell_angle_gamma   89.98618797
_symmetry_Int_Tables_number   1
_chemical_formula_structural   In2Te3
_chemical_formula_sum   'In72 Te108'
_cell_volume   6616.05088393
_cell_formula_units_Z   36
loop_
 _symmetry_equiv_pos_site_id
 _symmetry_equiv_pos_as_xyz
  1  'x, y, z'
loop_
 _atom_site_type_symbol
 _atom_site_label
 _atom_site_symmetry_multiplicity
 _atom_site_fract_x
 _atom_site_fract_y
 _atom_site_fract_z
 _atom_site_occupancy
  In  In0  1  0.65932496  0.17908812  0.49408976  1
  In  In1  1  0.82752649  0.17116317  0.31961565  1
  In  In2  1  0.51391776  0.33884042  0.14663312  1
  In  In3  1  0.84660209  0.00210027  0.52927794  1
  In  In4  1  0.83786623  0.48209510  0.68074262  1
  In  In5  1  0.70107906  -0.00324612  0.69755737  1
  In  In6  1  0.84258342  0.66517769  0.49935656  1
  In  In7  1  -0.02239838  -0.01672657  0.68375413  1
  In  In8  1  0.50471687  -0.00073227  0.47172667  1
  In  In9  1  0.66362916  0.00005251  0.31102812  1
  In  In10  1  0.67392534  0.83817425  0.16340770  1
  In  In11  1  0.34627068  0.00327468  0.00139745  1
  In  In12  1  0.31545277  0.64865703  0.70829978  1
  In  In13  1  0.15496196  0.17660519  0.65704816  1
  In  In14  1  0.33098079  -0.02018123  0.33618500  1
  In  In15  1  -0.02521077  0.49941249  0.50222529  1
  In  In16  1  -0.04255734  0.15371755  0.83493955  1
  In  In17  1  0.15585361  0.67045985  0.50129761  1
  In  In18  1  0.29978648  0.51410391  0.13413395  1
  In  In19  1  0.71117256  0.69650974  0.71143194  1
  In  In20  1  0.51169412  0.18061751  -0.01044399  1
  In  In21  1  0.50469708  0.49489124  -0.00887369  1
  In  In22  1  0.69727231  0.35072752  0.66575089  1
  In  In23  1  -0.00127746  0.00898154  0.33194916  1
  In  In24  1  0.16700906  0.33768744  0.83042732  1
  In  In25  1  0.31785584  0.81981652  0.85238933  1
  In  In26  1  0.69552656  0.17456026  0.85394965  1
  In  In27  1  0.52113140  0.30304006  0.47054976  1
  In  In28  1  0.00231726  0.82350118  0.49407254  1
  In  In29  1  0.50416998  0.16387349  0.66783415  1
  In  In30  1  0.51708418  0.83649036  0.01880548  1
  In  In31  1  0.02954178  0.49603743  0.12734872  1
  In  In32  1  0.14854159  0.17411592  0.32722332  1
  In  In33  1  0.33985273  0.82295451  0.17123621  1
  In  In34  1  0.52742716  0.84209844  0.66303450  1
  In  In35  1  -0.01152510  0.32638516  0.31800260  1
  In  In36  1  0.33288954  0.17621066  0.13383125  1
  In  In37  1  0.67144979  0.68010681  0.32777380  1
  In  In38  1  0.14390720  0.82129607  -0.01294560  1
  In  In39  1  0.69502568  0.50153945  0.47141552  1
  In  In40  1  0.32158195  0.16342149  0.49593879  1
  In  In41  1  0.31983895  0.84270720  0.49070421  1
  In  In42  1  0.84767528  0.31321839  0.15625773  1
  In  In43  1  0.84377922  0.49150215  0.36193509  1
  In  In44  1  0.83141702  0.49914620  -0.00995394  1
  In  In45  1  0.81788105  0.02199911  0.15989449  1
  In  In46  1  0.32262664  0.65205203  0.30718991  1
  In  In47  1  0.29739693  0.49911671  0.84963856  1
  In  In48  1  0.49454017  0.31357124  0.85692281  1
  In  In49  1  0.51782770  0.00514281  0.80277229  1
  In  In50  1  0.49693550  0.49475429  0.65962908  1
  In  In51  1  0.68078413  0.49345884  0.82470580  1
  In  In52  1  0.32486033  0.32893140  0.33008969  1
  In  In53  1  -0.01900796  0.66808000  0.69175565  1
  In  In54  1  0.47518005  0.49611277  0.30847895  1
  In  In55  1  0.83979888  0.33107681  0.50623626  1
  In  In56  1  0.50648203  0.67440108  0.85131218  1
  In  In57  1  0.30461473  0.46707969  0.53154398  1
  In  In58  1  0.33729409  0.02577317  0.68159313  1
  In  In59  1  0.30977270  0.34809612  0.66695535  1
  In  In60  1  -0.00828979  0.83062644  0.17554110  1
  In  In61  1  0.85045223  0.66436562  0.16471475  1
  In  In62  1  0.01948015  0.50653278  0.87131321  1
  In  In63  1  0.50787317  0.68080734  0.51196960  1
  In  In64  1  0.14393264  0.51633940  0.32410109  1
  In  In65  1  0.65049316  0.50587166  0.15555264  1
  In  In66  1  0.13377540  0.82134163  0.67890145  1
  In  In67  1  0.14593146  0.17619578  0.00286387  1
  In  In68  1  0.15709621  -0.01139881  0.85491648  1
  In  In69  1  0.51766902  0.84099995  0.32432937  1
  In  In70  1  0.84236935  0.82730532  -0.01546836  1
  In  In71  1  0.15915450  0.01930404  0.15088680  1
  Te  Te72  1  0.05777260  0.06854536  0.05629154  1
  Te  Te73  1  0.07680670  0.09292512  0.42665100  1
  Te  Te74  1  0.08144919  0.08205085  0.75804904  1
  Te  Te75  1  0.11395042  0.39262020  0.06377039  1
  Te  Te76  1  0.06960273  0.41756044  0.41208484  1
  Te  Te77  1  0.07271663  0.42593615  0.75639536  1
  Te  Te78  1  0.07308927  0.73783554  0.08921982  1
  Te  Te79  1  0.09455566  0.75540875  0.39889274  1
  Te  Te80  1  0.06296555  0.75016898  0.78938719  1
  Te  Te81  1  0.44196096  0.07927313  0.08999225  1
  Te  Te82  1  0.41559595  0.09577618  0.39612636  1
  Te  Te83  1  0.41279576  0.11450480  0.78052974  1
  Te  Te84  1  0.40390208  0.41451294  0.07376942  1
  Te  Te85  1  0.41578952  0.41714918  0.42699165  1
  Te  Te86  1  0.41540090  0.41879613  0.76361383  1
  Te  Te87  1  0.40267494  0.75231175  0.05830947  1
  Te  Te88  1  0.41538806  0.75442846  0.40657026  1
  Te  Te89  1  0.42469103  0.75808314  0.74145232  1
  Te  Te90  1  0.76564678  0.10671007  0.04605915  1
  Te  Te91  1  0.75572630  0.07705337  0.42013913  1
  Te  Te92  1  0.78680841  0.10710764  0.75376938  1
  Te  Te93  1  0.74999651  0.41281436  0.08698708  1
  Te  Te94  1  0.74435985  0.37752019  0.39605678  1
  Te  Te95  1  0.79021869  0.37892108  0.78863662  1
  Te  Te96  1  0.75278075  0.74011576  0.07579163  1
  Te  Te97  1  0.75653830  0.75576527  0.42074233  1
  Te  Te98  1  0.81021826  0.77544982  0.79761979  1
  Te  Te99  1  0.07573446  0.25170752  0.22295804  1
  Te  Te100  1  0.08290485  0.27977805  0.58393306  1
  Te  Te101  1  0.06231192  0.25043433  0.89998691  1
  Te  Te102  1  0.07901976  0.60109410  0.22256489  1
  Te  Te103  1  0.06559057  0.58766270  0.59072022  1
  Te  Te104  1  0.12020938  0.59177943  0.94317705  1
  Te  Te105  1  0.09345657  0.92209691  0.24802428  1
  Te  Te106  1  0.08080971  0.92207989  0.58165611  1
  Te  Te107  1  0.04839479  0.91588160  0.92186050  1
  Te  Te108  1  0.41673112  0.25533611  0.23619471  1
  Te  Te109  1  0.41426080  0.25535524  0.58422806  1
  Te  Te110  1  0.39124129  0.25799956  0.94639911  1
  Te  Te111  1  0.41868053  0.59139292  0.20588292  1
  Te  Te112  1  0.40492520  0.58950766  0.58301865  1
  Te  Te113  1  0.40195134  0.58622905  0.92050279  1
  Te  Te114  1  0.43287018  0.92844737  0.23356763  1
  Te  Te115  1  0.41936482  0.92825793  0.58603696  1
  Te  Te116  1  0.42403632  0.92059209  0.89662678  1
  Te  Te117  1  0.73687910  0.22900680  0.21537009  1
  Te  Te118  1  0.76222644  0.23203504  0.59376973  1
  Te  Te119  1  0.78432857  0.24092860  0.95643831  1
  Te  Te120  1  0.75480955  0.57156613  0.25681781  1
  Te  Te121  1  0.75205720  0.57514223  0.59377797  1
  Te  Te122  1  0.74112350  0.59192995  0.91558601  1
  Te  Te123  1  0.77246683  0.91001007  0.25505995  1
  Te  Te124  1  0.76286261  0.90370177  0.60188438  1
  Te  Te125  1  0.77649491  0.92329181  0.88913565  1
  Te  Te126  1  0.21596863  0.26623312  0.10465980  1
  Te  Te127  1  0.22941484  0.26385215  0.42821970  1
  Te  Te128  1  0.25642519  0.23671899  0.75608293  1
  Te  Te129  1  0.20571370  0.61136094  0.07338433  1
  Te  Te130  1  0.25845078  0.57370086  0.42288014  1
  Te  Te131  1  0.20717855  0.55693842  0.74546546  1
  Te  Te132  1  0.24470072  0.91359784  0.07217505  1
  Te  Te133  1  0.22155773  0.92299281  0.41673187  1
  Te  Te134  1  0.25104934  0.91224865  0.74810053  1
  Te  Te135  1  0.60858869  0.24303608  0.08484680  1
  Te  Te136  1  0.58693637  0.21688419  0.36608671  1
  Te  Te137  1  0.59867790  0.25533593  0.74716146  1
  Te  Te138  1  0.58699687  0.59704339  0.05973303  1
  Te  Te139  1  0.57166975  0.58254793  0.41077376  1
  Te  Te140  1  0.58507881  0.58846392  0.74168954  1
  Te  Te141  1  0.60473826  0.93809486  0.08040775  1
  Te  Te142  1  0.61121431  0.90215206  0.42610366  1
  Te  Te143  1  0.61731606  0.89190178  0.77612982  1
  Te  Te144  1  0.90730574  0.22001536  0.05147783  1
  Te  Te145  1  0.92430109  0.23539432  0.42202525  1
  Te  Te146  1  0.88077676  0.25063097  0.75345258  1
  Te  Te147  1  0.93334291  0.59351881  0.05865970  1
  Te  Te148  1  0.93964860  0.60568452  0.39737341  1
  Te  Te149  1  0.90467506  0.57292300  0.78224874  1
  Te  Te150  1  0.90953972  0.92108268  0.08520443  1
  Te  Te151  1  0.91056564  0.91782214  0.41650353  1
  Te  Te152  1  0.89284948  0.91355287  0.78477963  1
  Te  Te153  1  0.25953188  0.08960025  0.24634780  1
  Te  Te154  1  0.23459263  0.06943125  0.57753714  1
  Te  Te155  1  0.24901401  0.08979586  0.92251173  1
  Te  Te156  1  0.24180733  0.42613519  0.24662601  1
  Te  Te157  1  0.18571223  0.39971596  0.59601826  1
  Te  Te158  1  0.22129541  0.41583022  0.95056469  1
  Te  Te159  1  0.23572753  0.75625751  0.25239374  1
  Te  Te160  1  0.24996810  0.75182534  0.59453102  1
  Te  Te161  1  0.22912174  0.71723733  0.91370344  1
  Te  Te162  1  0.59123243  0.10972402  0.25018326  1
  Te  Te163  1  0.59129421  0.06893588  0.58603151  1
  Te  Te164  1  0.59664558  0.07438446  0.91320721  1
  Te  Te165  1  0.59047482  0.41049206  0.26077876  1
  Te  Te166  1  0.58914363  0.41011492  0.57092714  1
  Te  Te167  1  0.60257488  0.40050434  0.92013948  1
  Te  Te168  1  0.57297293  0.73836513  0.22702837  1
  Te  Te169  1  0.62019824  0.74719324  0.58844662  1
  Te  Te170  1  0.60225555  0.75964347  0.92277030  1
  Te  Te171  1  0.93002029  0.10009054  0.23074539  1
  Te  Te172  1  0.94198398  0.09464055  0.59365935  1
  Te  Te173  1  0.89179739  0.08942718  0.95433602  1
  Te  Te174  1  0.91824554  0.43415823  0.23360622  1
  Te  Te175  1  0.93818154  0.39222498  0.60681503  1
  Te  Te176  1  0.93493823  0.40477296  0.93999299  1
  Te  Te177  1  0.90261558  0.75507134  0.26835146  1
  Te  Te178  1  0.90667736  0.76308352  0.59913647  1
  Te  Te179  1  0.93352676  0.74694945  0.89480746  1
