# generated using pymatgen
data_In2Te3
_symmetry_space_group_name_H-M   'P 1'
_cell_length_a   18.93272903
_cell_length_b   18.91446820
_cell_length_c   18.91131263
_cell_angle_alpha   90.21346756
_cell_angle_beta   89.91484350
_cell_angle_gamma   89.93634130
_symmetry_Int_Tables_number   1
_chemical_formula_structural   In2Te3
_chemical_formula_sum   'In72 Te108'
_cell_volume   6772.12964880
_cell_formula_units_Z   36
loop_
 _symmetry_equiv_pos_site_id
 _symmetry_equiv_pos_as_xyz
  1  'x, y, z'
loop_
 _atom_site_type_symbol
 _atom_site_label
 _atom_site_symmetry_multiplicity
 _atom_site_fract_x
 _atom_site_fract_y
 _atom_site_fract_z
 _atom_site_occupancy
  In  In0  1  0.17098491  0.01461049  0.15647499  1
  In  In1  1  0.66949013  0.14841788  0.49396743  1
  In  In2  1  0.81983653  0.84150752  0.64640417  1
  In  In3  1  0.83067437  0.48126445  0.31005281  1
  In  In4  1  0.80361522  0.84188260  0.32746515  1
  In  In5  1  0.50779577  -0.01334356  0.48819295  1
  In  In6  1  0.17906628  0.50338058  0.01928714  1
  In  In7  1  0.32613962  0.50425879  0.84578541  1
  In  In8  1  0.66834927  0.30124423  0.01924080  1
  In  In9  1  0.16523989  0.65860409  0.52378191  1
  In  In10  1  0.67517433  0.15222779  0.80334019  1
  In  In11  1  0.36513074  0.82189321  0.51515604  1
  In  In12  1  0.50522359  0.83424676  -0.00812326  1
  In  In13  1  0.63535565  0.67314446  0.66252358  1
  In  In14  1  0.68547782  0.01935035  -0.02907587  1
  In  In15  1  0.35466507  0.17364304  0.19507063  1
  In  In16  1  0.51450200  0.87071083  0.69193043  1
  In  In17  1  0.33167548  0.34629467  0.66586122  1
  In  In18  1  0.00589382  0.02237420  0.32072850  1
  In  In19  1  0.17642349  0.69217090  0.83558827  1
  In  In20  1  0.36116803  0.48470456  0.47568742  1
  In  In21  1  0.51471550  0.15803095  0.01099596  1
  In  In22  1  0.51765063  0.67258403  0.47012629  1
  In  In23  1  0.15286117  0.19567942  0.33495495  1
  In  In24  1  -0.02114746  0.67316361  0.33837233  1
  In  In25  1  -0.02099405  0.44331108  0.85623405  1
  In  In26  1  0.15069818  0.52784559  0.67970984  1
  In  In27  1  0.16869085  0.32186007  0.16819824  1
  In  In28  1  -0.02476798  0.29745140  0.70073230  1
  In  In29  1  0.15393661  0.65578673  0.15942659  1
  In  In30  1  0.82344519  0.66867042  0.47974409  1
  In  In31  1  0.15299172  0.33211084  0.51171139  1
  In  In32  1  0.36207645  0.48253751  0.13878343  1
  In  In33  1  0.82588044  0.65768315  0.81961835  1
  In  In34  1  0.15236073  0.46617866  0.34713750  1
  In  In35  1  -0.01018008  0.02369325  0.67218066  1
  In  In36  1  -0.00421161  0.63244867  -0.00032369  1
  In  In37  1  0.48856733  0.51203384  0.65954543  1
  In  In38  1  0.65216137  0.14408703  0.19834660  1
  In  In39  1  0.33335747  0.84980352  0.82070368  1
  In  In40  1  0.49631326  0.34011753  0.47269969  1
  In  In41  1  0.48263482  0.66834287  0.83647460  1
  In  In42  1  0.69397935  0.32308568  0.65901757  1
  In  In43  1  0.83960301  -0.00232382  0.49734767  1
  In  In44  1  0.52900856  0.31666264  0.86472431  1
  In  In45  1  0.66641541  0.34704684  0.31573145  1
  In  In46  1  0.64654768  0.65819531  -0.00995664  1
  In  In47  1  0.18026865  0.84742880  -0.01218248  1
  In  In48  1  0.67097503  0.50371668  0.15810048  1
  In  In49  1  0.15764667  0.84821227  0.68180144  1
  In  In50  1  0.66707106  0.50386868  0.47898463  1
  In  In51  1  0.18569173  0.14818230  -0.01718100  1
  In  In52  1  0.01234097  0.83580247  0.84741434  1
  In  In53  1  0.16917240  0.32160350  0.85306279  1
  In  In54  1  0.66600735  0.46061068  0.85563683  1
  In  In55  1  0.83063005  0.02517324  0.82950222  1
  In  In56  1  0.82928774  0.18382118  -0.00203482  1
  In  In57  1  0.35775730  -0.00964760  0.32906106  1
  In  In58  1  0.86408954  0.49912544  0.64956365  1
  In  In59  1  0.83154092  0.84750168  0.01567777  1
  In  In60  1  0.35742575  0.83824820  0.18092882  1
  In  In61  1  0.84671384  0.18222064  0.35185596  1
  In  In62  1  0.30797013  0.17117804  0.49805262  1
  In  In63  1  0.16602926  0.04093853  0.48691046  1
  In  In64  1  0.00116019  0.47879011  0.14898362  1
  In  In65  1  -0.02539659  0.83871640  0.52589269  1
  In  In66  1  0.18117430  0.83554305  0.35343136  1
  In  In67  1  0.34969461  0.63926838  0.32241848  1
  In  In68  1  0.46639964  0.13746091  0.69227445  1
  In  In69  1  0.66104949  0.83417501  0.16584154  1
  In  In70  1  0.17802761  0.16022604  0.71132447  1
  In  In71  1  -0.01866244  0.83293688  0.16818471  1
  Te  Te72  1  0.08720011  0.11682719  0.09266606  1
  Te  Te73  1  0.05484166  0.12117594  0.42743704  1
  Te  Te74  1  0.05935951  0.10030627  0.77836201  1
  Te  Te75  1  0.08646138  0.39126577  0.05898276  1
  Te  Te76  1  0.04883801  0.37846967  0.41007013  1
  Te  Te77  1  0.09240562  0.40648277  0.75131451  1
  Te  Te78  1  0.07988455  0.75296476  0.07076419  1
  Te  Te79  1  0.07993629  0.74972941  0.42746432  1
  Te  Te80  1  0.06892161  0.74021097  0.73992016  1
  Te  Te81  1  0.42043178  0.08224602  0.09702725  1
  Te  Te82  1  0.41757328  0.09353289  0.42398005  1
  Te  Te83  1  0.38487394  0.06608970  0.79216205  1
  Te  Te84  1  0.43099455  0.39808479  0.03966679  1
  Te  Te85  1  0.42639028  0.41311071  0.36109868  1
  Te  Te86  1  0.42980124  0.41624430  0.76257288  1
  Te  Te87  1  0.44902045  0.75367141  0.10336601  1
  Te  Te88  1  0.41898073  0.75939718  0.38828563  1
  Te  Te89  1  0.41834317  0.75570824  0.73401735  1
  Te  Te90  1  0.74672423  0.09104456  0.08784173  1
  Te  Te91  1  0.75169402  0.06763514  0.39579597  1
  Te  Te92  1  0.76036061  0.07495294  0.71118464  1
  Te  Te93  1  0.75959085  0.40534437  0.07907122  1
  Te  Te94  1  0.76017347  0.39969439  0.42432383  1
  Te  Te95  1  0.76397912  0.42735165  0.74228918  1
  Te  Te96  1  0.74472336  0.74015343  0.07587346  1
  Te  Te97  1  0.72149765  0.75385728  0.41509750  1
  Te  Te98  1  0.73753815  0.75385450  0.74204139  1
  Te  Te99  1  0.06202908  0.23564715  0.22501966  1
  Te  Te100  1  0.09212665  0.23948747  0.61170614  1
  Te  Te101  1  0.07734935  0.21861018  0.90491664  1
  Te  Te102  1  0.07670843  0.57756722  0.26341535  1
  Te  Te103  1  0.06396544  0.56280280  0.56757846  1
  Te  Te104  1  0.10406705  0.57626795  0.90896349  1
  Te  Te105  1  0.09615175  0.90726741  0.25008526  1
  Te  Te106  1  0.08500729  0.93371926  0.57162225  1
  Te  Te107  1  0.07311437  0.93386734  0.93753059  1
  Te  Te108  1  0.39982118  0.27410667  0.29082302  1
  Te  Te109  1  0.41536332  0.25584571  0.57594909  1
  Te  Te110  1  0.42242548  0.24504021  0.93492770  1
  Te  Te111  1  0.44095382  0.57752933  0.22415121  1
  Te  Te112  1  0.41497354  0.59928925  0.56037953  1
  Te  Te113  1  0.41841771  0.57926671  0.93195468  1
  Te  Te114  1  0.44963214  0.95310134  0.21519308  1
  Te  Te115  1  0.41121874  0.93653773  0.60107528  1
  Te  Te116  1  0.41671519  0.92649041  0.91545717  1
  Te  Te117  1  0.75529143  0.24700564  0.24406482  1
  Te  Te118  1  0.76658571  0.22820688  0.57438817  1
  Te  Te119  1  0.74674542  0.25978232  0.88594602  1
  Te  Te120  1  0.72390865  0.57928521  0.27650974  1
  Te  Te121  1  0.73744505  0.58493934  0.58776532  1
  Te  Te122  1  0.75068058  0.57119588  0.92015344  1
  Te  Te123  1  0.77008250  0.92372809  0.21166318  1
  Te  Te124  1  0.73351988  0.91308287  0.55367716  1
  Te  Te125  1  0.75959453  0.90806544  0.89761141  1
  Te  Te126  1  0.26319197  0.23297933  0.08979554  1
  Te  Te127  1  0.25649196  0.28230905  0.40739418  1
  Te  Te128  1  0.28076933  0.25313580  0.77317032  1
  Te  Te129  1  0.27256450  0.60154862  0.08385104  1
  Te  Te130  1  0.24250731  0.57954198  0.41346845  1
  Te  Te131  1  0.26428054  0.60070415  0.74531665  1
  Te  Te132  1  0.26830010  0.92143891  0.08656117  1
  Te  Te133  1  0.26593143  0.92509408  0.44129266  1
  Te  Te134  1  0.21564483  0.93742771  0.78524554  1
  Te  Te135  1  0.56681825  0.24851342  0.12310112  1
  Te  Te136  1  0.59140517  0.24404275  0.40407966  1
  Te  Te137  1  0.57656630  0.25327678  0.73232302  1
  Te  Te138  1  0.57275049  0.60717847  0.10794544  1
  Te  Te139  1  0.58479011  0.57491587  0.37996668  1
  Te  Te140  1  0.59059593  0.56395439  0.76348213  1
  Te  Te141  1  0.60100349  0.93052501  0.06059280  1
  Te  Te142  1  0.58212438  0.92678937  0.37215364  1
  Te  Te143  1  0.60052578  0.96773607  0.75950652  1
  Te  Te144  1  0.90318200  0.29988660  0.05423027  1
  Te  Te145  1  0.92618122  0.28285765  0.42242454  1
  Te  Te146  1  0.86734695  0.24941390  0.78581296  1
  Te  Te147  1  0.90946944  0.58577497  0.10700156  1
  Te  Te148  1  0.91239840  0.56321683  0.41721787  1
  Te  Te149  1  0.93364510  0.56241145  0.76926877  1
  Te  Te150  1  0.92890727  0.93678207  0.07972095  1
  Te  Te151  1  0.93168828  0.90593111  0.39759148  1
  Te  Te152  1  0.92275983  0.90660813  0.74390477  1
  Te  Te153  1  0.24186954  0.07944878  0.27566451  1
  Te  Te154  1  0.25302553  0.07846599  0.60568048  1
  Te  Te155  1  0.26571799  0.05845917  0.89209412  1
  Te  Te156  1  0.24678630  0.43328275  0.23356491  1
  Te  Te157  1  0.25048098  0.43820111  0.57876645  1
  Te  Te158  1  0.26336682  0.40258885  0.93939985  1
  Te  Te159  1  0.24608409  0.74286327  0.25068883  1
  Te  Te160  1  0.24958705  0.76202019  0.59623318  1
  Te  Te161  1  0.27947284  0.74931537  0.92826705  1
  Te  Te162  1  0.56805365  0.04554515  0.27130278  1
  Te  Te163  1  0.56784325  0.08436147  0.58989387  1
  Te  Te164  1  0.57271094  0.06664875  0.87806336  1
  Te  Te165  1  0.57766287  0.40025704  0.21038144  1
  Te  Te166  1  0.57947728  0.41807821  0.57915757  1
  Te  Te167  1  0.56878888  0.42340310  0.96998237  1
  Te  Te168  1  0.60230734  0.79061111  0.29530243  1
  Te  Te169  1  0.56695308  0.77368897  0.57576171  1
  Te  Te170  1  0.59180965  0.75820600  0.88960861  1
  Te  Te171  1  0.91626524  0.10713639  0.24325297  1
  Te  Te172  1  0.91099952  0.10061337  0.57566722  1
  Te  Te173  1  0.91544606  0.08407015  0.93219795  1
  Te  Te174  1  0.91788822  0.39135131  0.23190958  1
  Te  Te175  1  0.92899949  0.38274818  0.58912062  1
  Te  Te176  1  0.87743687  0.41588652  0.96126799  1
  Te  Te177  1  0.88708026  0.73880031  0.24048011  1
  Te  Te178  1  0.90756196  0.72386905  0.59465957  1
  Te  Te179  1  0.91484164  0.73850002  0.92159014  1
