# generated using pymatgen
data_In2Te3
_symmetry_space_group_name_H-M   'P 1'
_cell_length_a   18.98312208
_cell_length_b   19.01725619
_cell_length_c   19.01372175
_cell_angle_alpha   89.88434758
_cell_angle_beta   89.95358121
_cell_angle_gamma   90.24234076
_symmetry_Int_Tables_number   1
_chemical_formula_structural   In2Te3
_chemical_formula_sum   'In72 Te108'
_cell_volume   6864.00698336
_cell_formula_units_Z   36
loop_
 _symmetry_equiv_pos_site_id
 _symmetry_equiv_pos_as_xyz
  1  'x, y, z'
loop_
 _atom_site_type_symbol
 _atom_site_label
 _atom_site_symmetry_multiplicity
 _atom_site_fract_x
 _atom_site_fract_y
 _atom_site_fract_z
 _atom_site_occupancy
  In  In0  1  0.85685295  0.65989688  0.78094890  1
  In  In1  1  0.83355839  0.80672584  0.32673422  1
  In  In2  1  0.84599168  0.00470375  0.20239774  1
  In  In3  1  0.85985266  0.32918926  0.16104509  1
  In  In4  1  0.49064246  0.84798091  0.65345515  1
  In  In5  1  0.66547679  0.33524148  -0.00629246  1
  In  In6  1  0.67591019  0.68470625  -0.01445134  1
  In  In7  1  0.66613994  0.47351798  0.17589001  1
  In  In8  1  0.84949305  0.66491256  0.14136008  1
  In  In9  1  0.01690720  0.83428919  0.50183166  1
  In  In10  1  0.16652409  0.32805794  0.48599865  1
  In  In11  1  0.34158929  0.79806804  0.49423198  1
  In  In12  1  0.16036725  0.81253699  0.33519115  1
  In  In13  1  0.47856589  0.18393483  0.01555558  1
  In  In14  1  0.18687981  -0.01957323  0.50369549  1
  In  In15  1  0.33332213  0.14754851  0.85129558  1
  In  In16  1  0.51491936  0.83218308  -0.00319748  1
  In  In17  1  0.17344949  0.33005902  0.84850400  1
  In  In18  1  0.50133769  0.51713148  0.01462873  1
  In  In19  1  0.67642685  0.13414509  0.23736212  1
  In  In20  1  0.32559784  0.17066050  0.17661509  1
  In  In21  1  0.02711166  0.67095080  -0.01149693  1
  In  In22  1  0.66992039  0.16162465  0.82226175  1
  In  In23  1  0.38021068  0.00033701  0.34003059  1
  In  In24  1  0.64515017  0.85747103  0.46587499  1
  In  In25  1  0.31546767  0.50111535  0.83767352  1
  In  In26  1  0.67289443  0.31172336  0.65621735  1
  In  In27  1  0.14681493  0.12617908  0.66011905  1
  In  In28  1  0.83646527  0.48054325  0.32271601  1
  In  In29  1  0.64523352  0.33433840  0.33454476  1
  In  In30  1  0.50192380  0.16314870  0.67682523  1
  In  In31  1  0.33758568  0.33532238  0.33091141  1
  In  In32  1  0.85833032  0.52563728  -0.01241708  1
  In  In33  1  0.63350512  0.64788450  0.31641968  1
  In  In34  1  0.01793261  0.67585002  0.35598660  1
  In  In35  1  0.32149148  0.33531725  0.67990490  1
  In  In36  1  0.01005952  0.33416491  0.00844427  1
  In  In37  1  0.49528655  0.32849849  0.18371259  1
  In  In38  1  0.00734249  0.81870798  0.80697991  1
  In  In39  1  0.66083138  -0.00712522  0.63844521  1
  In  In40  1  0.31564344  0.48550093  0.16917649  1
  In  In41  1  0.83096463  0.33339691  0.84069593  1
  In  In42  1  0.81797819  0.02088441  0.46250099  1
  In  In43  1  0.68797287  -0.00074211  0.01691943  1
  In  In44  1  0.16415908  0.17190913  0.01004963  1
  In  In45  1  0.85347128  -0.01522725  0.84612949  1
  In  In46  1  0.15622496  0.19393234  0.32661274  1
  In  In47  1  0.01395314  0.00938576  0.00533053  1
  In  In48  1  0.65526345  0.49720908  0.80436951  1
  In  In49  1  -0.01834787  0.19573230  0.49107821  1
  In  In50  1  -0.01458948  0.34832545  0.67486966  1
  In  In51  1  0.50384755  0.00247510  0.83658009  1
  In  In52  1  0.83775623  0.68232407  0.50721512  1
  In  In53  1  0.01705936  0.01276157  0.34193899  1
  In  In54  1  0.67368454  0.67856242  0.65338769  1
  In  In55  1  0.17358538  0.00450491  0.83333647  1
  In  In56  1  0.19255537  0.84924335  0.01158715  1
  In  In57  1  0.34017132  0.84701618  0.82558942  1
  In  In58  1  0.82955448  0.17460064  0.64631860  1
  In  In59  1  0.65249254  0.53027961  0.49795817  1
  In  In60  1  0.49567801  0.66508650  0.19483079  1
  In  In61  1  0.16901480  0.67313415  0.17525766  1
  In  In62  1  0.84890505  0.84760542  -0.00486170  1
  In  In63  1  0.63031564  0.82132857  0.19862588  1
  In  In64  1  0.46824616  0.51665196  0.63885250  1
  In  In65  1  0.00783765  0.47117380  0.51380046  1
  In  In66  1  0.18183745  -0.00777300  0.16974688  1
  In  In67  1  0.48862027  0.33916647  0.48990696  1
  In  In68  1  0.13894900  0.66032654  0.81461339  1
  In  In69  1  0.32673759  0.65942195  0.00421246  1
  In  In70  1  0.29627888  0.54923659  0.48146307  1
  In  In71  1  0.15666291  0.52125785  0.65643562  1
  Te  Te72  1  0.08394250  0.09259825  0.11205209  1
  Te  Te73  1  0.09499508  0.10051548  0.43517765  1
  Te  Te74  1  0.06397012  0.07496882  0.76751347  1
  Te  Te75  1  0.12707414  0.36214947  0.09594919  1
  Te  Te76  1  0.07981669  0.41071236  0.40318577  1
  Te  Te77  1  0.09596517  0.41894612  0.75150848  1
  Te  Te78  1  0.08934999  0.76694236  0.08715357  1
  Te  Te79  1  0.12535176  0.72444776  0.46269331  1
  Te  Te80  1  0.10948912  0.76455162  0.71514059  1
  Te  Te81  1  0.42260286  0.08620978  0.10635251  1
  Te  Te82  1  0.43032309  0.05396311  0.46826040  1
  Te  Te83  1  0.40480229  0.06728198  0.74358894  1
  Te  Te84  1  0.41797886  0.41140654  0.08395195  1
  Te  Te85  1  0.39119425  0.43628024  0.42924241  1
  Te  Te86  1  0.41823828  0.42686989  0.75034335  1
  Te  Te87  1  0.42594124  0.74115032  0.08332982  1
  Te  Te88  1  0.44546168  0.73243522  0.41233447  1
  Te  Te89  1  0.42442691  0.75777800  0.74884033  1
  Te  Te90  1  0.75788724  0.08980119  0.11313979  1
  Te  Te91  1  0.71391531  0.08281870  0.37869330  1
  Te  Te92  1  0.75492022  0.07124856  0.73939087  1
  Te  Te93  1  0.76269340  0.42943982  0.06625429  1
  Te  Te94  1  0.73151629  0.42748225  0.41761549  1
  Te  Te95  1  0.75813883  0.41187375  0.73444635  1
  Te  Te96  1  0.74963370  0.76886465  0.09086297  1
  Te  Te97  1  0.72414717  0.73330877  0.40675256  1
  Te  Te98  1  0.75407292  0.75479848  0.74870726  1
  Te  Te99  1  0.09981349  0.28593311  0.22800832  1
  Te  Te100  1  0.08511796  0.25772584  0.59489794  1
  Te  Te101  1  0.07332170  0.23441391  0.90768320  1
  Te  Te102  1  0.10608649  0.58545404  0.27898424  1
  Te  Te103  1  0.03398801  0.58883213  0.60166110  1
  Te  Te104  1  0.09880928  0.56588204  0.91828676  1
  Te  Te105  1  0.08120497  0.91092151  0.25104338  1
  Te  Te106  1  0.07607765  0.93576684  0.58814787  1
  Te  Te107  1  0.07696976  0.90031367  0.92015787  1
  Te  Te108  1  0.42967795  0.22817429  0.27417979  1
  Te  Te109  1  0.41306394  0.25436460  0.59172644  1
  Te  Te110  1  0.41786061  0.25381360  0.90470208  1
  Te  Te111  1  0.39444916  0.57628620  0.25896642  1
  Te  Te112  1  0.38518974  0.61998430  0.57577626  1
  Te  Te113  1  0.42103815  0.58949321  0.90997729  1
  Te  Te114  1  0.41035488  0.91223671  0.22762250  1
  Te  Te115  1  0.39891844  0.91967333  0.56200403  1
  Te  Te116  1  0.41428331  0.92591513  0.93148663  1
  Te  Te117  1  0.75011108  0.26756483  0.24995197  1
  Te  Te118  1  0.73668341  0.23402078  0.55161782  1
  Te  Te119  1  0.75460257  0.23433406  0.92578234  1
  Te  Te120  1  0.75685992  0.59048428  0.24037363  1
  Te  Te121  1  0.76512764  0.57620354  0.58874282  1
  Te  Te122  1  0.74539421  0.57868358  0.90055851  1
  Te  Te123  1  0.74312251  0.90592147  0.25889074  1
  Te  Te124  1  0.75654016  0.91292630  0.55346192  1
  Te  Te125  1  0.73795324  0.90577442  0.91042204  1
  Te  Te126  1  0.25872011  0.26271653  0.08096216  1
  Te  Te127  1  0.26822358  0.23672643  0.42381140  1
  Te  Te128  1  0.24308893  0.22730553  0.75254608  1
  Te  Te129  1  0.22934762  0.57156098  0.07919905  1
  Te  Te130  1  0.26173020  0.61086666  0.35026843  1
  Te  Te131  1  0.25610625  0.59868642  0.73924411  1
  Te  Te132  1  0.28500951  0.89992514  0.11635002  1
  Te  Te133  1  0.26433713  0.90525789  0.39719825  1
  Te  Te134  1  0.24557635  0.91845102  0.74157612  1
  Te  Te135  1  0.59302932  0.25237124  0.09765508  1
  Te  Te136  1  0.56629134  0.24090950  0.41507838  1
  Te  Te137  1  0.57684194  0.26414658  0.76367097  1
  Te  Te138  1  0.60102225  0.59721020  0.09561341  1
  Te  Te139  1  0.54256756  0.59813238  0.42455208  1
  Te  Te140  1  0.57092072  0.59275675  0.72636397  1
  Te  Te141  1  0.58277602  0.92505199  0.09585707  1
  Te  Te142  1  0.54041955  0.95265964  0.41896254  1
  Te  Te143  1  0.58979296  0.91646982  0.74826060  1
  Te  Te144  1  0.92384866  0.23386374  0.07287194  1
  Te  Te145  1  0.90861119  0.23130760  0.37239719  1
  Te  Te146  1  0.91335291  0.24012295  0.75413188  1
  Te  Te147  1  0.95831137  0.57308299  0.09018748  1
  Te  Te148  1  0.90665894  0.58762720  0.41093786  1
  Te  Te149  1  0.95849216  0.57048244  0.73664464  1
  Te  Te150  1  0.92458704  0.92336895  0.10018759  1
  Te  Te151  1  0.91631457  0.90867048  0.40348440  1
  Te  Te152  1  0.91297968  0.90662930  0.73959111  1
  Te  Te153  1  0.24916453  0.07883033  0.27474675  1
  Te  Te154  1  0.25892925  0.08511133  0.57807706  1
  Te  Te155  1  0.25122342  0.06469951  0.94827534  1
  Te  Te156  1  0.22810479  0.39888246  0.25452496  1
  Te  Te157  1  0.24815027  0.42530371  0.58045717  1
  Te  Te158  1  0.26677513  0.40252070  0.93333906  1
  Te  Te159  1  0.27027631  0.74256910  0.26017473  1
  Te  Te160  1  0.22614739  0.74981799  0.57259897  1
  Te  Te161  1  0.24315616  0.74660223  0.91328609  1
  Te  Te162  1  0.58267654  0.03305709  0.29153667  1
  Te  Te163  1  0.57811918  0.09265654  0.57236124  1
  Te  Te164  1  0.58928005  0.08722282  0.93025225  1
  Te  Te165  1  0.55395797  0.43807325  0.27011183  1
  Te  Te166  1  0.58208179  0.42102667  0.58571536  1
  Te  Te167  1  0.57695093  0.42793145  0.91575575  1
  Te  Te168  1  0.50284683  0.79988208  0.28503939  1
  Te  Te169  1  0.58181061  0.76280704  0.56706798  1
  Te  Te170  1  0.57592909  0.74329177  0.89838665  1
  Te  Te171  1  0.92489388  0.11303235  0.27710194  1
  Te  Te172  1  0.91425007  0.08021205  0.56388150  1
  Te  Te173  1  0.90598220  0.08234118  0.93959001  1
  Te  Te174  1  0.93898501  0.42703419  0.23533857  1
  Te  Te175  1  0.89940007  0.38739320  0.56289736  1
  Te  Te176  1  0.93269692  0.42234207  0.90801345  1
  Te  Te177  1  0.93656411  0.74048395  0.24017521  1
  Te  Te178  1  0.92213302  0.76498846  0.59162643  1
  Te  Te179  1  0.91090733  0.73595439  0.91398737  1
