# generated using pymatgen
data_In2Te3
_symmetry_space_group_name_H-M   'P 1'
_cell_length_a   18.90616965
_cell_length_b   18.91516550
_cell_length_c   18.89391844
_cell_angle_alpha   90.00472402
_cell_angle_beta   90.06856753
_cell_angle_gamma   90.01594410
_symmetry_Int_Tables_number   1
_chemical_formula_structural   In2Te3
_chemical_formula_sum   'In72 Te108'
_cell_volume   6756.71192721
_cell_formula_units_Z   36
loop_
 _symmetry_equiv_pos_site_id
 _symmetry_equiv_pos_as_xyz
  1  'x, y, z'
loop_
 _atom_site_type_symbol
 _atom_site_label
 _atom_site_symmetry_multiplicity
 _atom_site_fract_x
 _atom_site_fract_y
 _atom_site_fract_z
 _atom_site_occupancy
  In  In0  1  0.50631857  0.00770750  0.48722145  1
  In  In1  1  0.50567898  0.31474963  0.49082100  1
  In  In2  1  0.14400501  0.50019553  0.31194137  1
  In  In3  1  0.50988754  0.29756724  0.84698763  1
  In  In4  1  0.18056906  0.17001377  0.67310207  1
  In  In5  1  0.53042267  0.03357960  0.86633605  1
  In  In6  1  0.00657335  -0.00089835  0.68003212  1
  In  In7  1  0.81164273  0.67263276  0.16270304  1
  In  In8  1  0.32855834  0.15116698  0.15817374  1
  In  In9  1  0.66224777  0.01577925  0.31801590  1
  In  In10  1  0.48634674  0.66571810  0.82416997  1
  In  In11  1  0.79695066  -0.01680881  0.88201789  1
  In  In12  1  0.82348905  0.31433200  0.85181356  1
  In  In13  1  0.00780989  0.66517175  0.32377412  1
  In  In14  1  0.80063683  0.33246784  0.47362557  1
  In  In15  1  0.19753975  0.33565385  0.50343877  1
  In  In16  1  0.86494741  0.32513915  0.13887680  1
  In  In17  1  0.51153806  0.85138437  0.02060733  1
  In  In18  1  0.47895012  0.85353237  0.29233547  1
  In  In19  1  0.65266968  0.65765410  0.31807120  1
  In  In20  1  0.34688311  0.16185111  0.48568088  1
  In  In21  1  0.49229552  0.65600922  0.15452962  1
  In  In22  1  -0.02711770  0.34269712  0.68894109  1
  In  In23  1  0.18564377  0.85489145  0.02276978  1
  In  In24  1  0.66202203  0.17355514  0.50511360  1
  In  In25  1  0.00734041  0.83872048  0.16216600  1
  In  In26  1  0.83444562  0.84832783  0.67098734  1
  In  In27  1  0.16648167  0.14446448  0.01021839  1
  In  In28  1  0.34980106  -0.00981533  0.66952153  1
  In  In29  1  0.83474184  0.15004826  0.32115382  1
  In  In30  1  0.82466534  0.49815826  0.65802664  1
  In  In31  1  0.65308585  0.17602371  0.17850179  1
  In  In32  1  -0.01735793  0.82964726  0.48307190  1
  In  In33  1  0.33223531  0.50256778  0.82122796  1
  In  In34  1  0.15658879  0.35654277  0.15397368  1
  In  In35  1  0.34409606  0.30108081  0.31934641  1
  In  In36  1  0.32012251  0.63872573  0.68333144  1
  In  In37  1  0.51258332  0.68815444  0.48164133  1
  In  In38  1  0.15901544  0.81561509  0.68948132  1
  In  In39  1  0.30362594  0.50094047  0.48669155  1
  In  In40  1  0.14691652  0.31780864  0.87325359  1
  In  In41  1  0.33330618  0.82602200  0.85426186  1
  In  In42  1  0.65541993  0.67661905  -0.01434317  1
  In  In43  1  0.85416855  0.65278740  0.49988328  1
  In  In44  1  0.33934465  0.16942851  0.85958556  1
  In  In45  1  0.51816899  0.87780013  0.69651686  1
  In  In46  1  0.82868503  0.86940074  0.33974302  1
  In  In47  1  0.69135062  0.66121733  0.68023509  1
  In  In48  1  -0.00445496  0.32936026  0.30642684  1
  In  In49  1  0.49666631  0.49404446  0.65218967  1
  In  In50  1  0.32961406  0.33681449  0.63653852  1
  In  In51  1  0.51392621  0.48669460  0.01595941  1
  In  In52  1  0.35784300  0.34482698  -0.00563285  1
  In  In53  1  0.00681966  0.00299668  0.00914594  1
  In  In54  1  0.00166007  0.82015928  0.86767779  1
  In  In55  1  0.02755237  0.51858230  0.51604486  1
  In  In56  1  0.86083408  -0.02623489  0.51300603  1
  In  In57  1  0.65331375  0.32670299  0.67730629  1
  In  In58  1  0.31078081  0.81328312  0.49441606  1
  In  In59  1  0.84456244  0.66370036  0.83471200  1
  In  In60  1  0.00679265  0.52080092  0.86152301  1
  In  In61  1  0.00540313  0.17041010  0.85954058  1
  In  In62  1  0.31766702  0.65534474  0.28245252  1
  In  In63  1  0.82919810  0.00912669  0.15780477  1
  In  In64  1  0.82806323  0.51597251  0.00750863  1
  In  In65  1  0.64170966  0.36418521  0.29643061  1
  In  In66  1  0.17941049  0.84380311  0.30722763  1
  In  In67  1  0.66730919  0.82843662  0.51130635  1
  In  In68  1  0.02438627  0.16101659  0.50031096  1
  In  In69  1  0.15984827  -0.01151085  0.47062716  1
  In  In70  1  0.30467807  0.64163288  0.03091685  1
  In  In71  1  0.66898504  0.31551509  0.00761938  1
  Te  Te72  1  0.08916282  0.07064398  0.11295750  1
  Te  Te73  1  0.09340622  0.09213492  0.39098132  1
  Te  Te74  1  0.09580867  0.08643930  0.76685422  1
  Te  Te75  1  0.07203222  0.45271241  0.07796838  1
  Te  Te76  1  0.08729171  0.40142459  0.42031886  1
  Te  Te77  1  0.07656308  0.41144717  0.77391689  1
  Te  Te78  1  0.09495780  0.75364095  0.08075469  1
  Te  Te79  1  0.09204063  0.76016918  0.40721138  1
  Te  Te80  1  0.07161904  0.73287480  0.77165012  1
  Te  Te81  1  0.39773054  0.04724808  0.07318412  1
  Te  Te82  1  0.43461168  0.09243374  0.39117876  1
  Te  Te83  1  0.42235684  0.08525724  0.76138464  1
  Te  Te84  1  0.40905910  0.43116199  0.10368340  1
  Te  Te85  1  0.40097450  0.39926736  0.42185328  1
  Te  Te86  1  0.42751857  0.40035085  0.75059622  1
  Te  Te87  1  0.40670618  0.74961089  0.07269910  1
  Te  Te88  1  0.40829689  0.74898937  0.38715498  1
  Te  Te89  1  0.40448772  0.75676664  0.73261149  1
  Te  Te90  1  0.74114552  0.10297478  0.07988603  1
  Te  Te91  1  0.75533736  0.07008715  0.42564790  1
  Te  Te92  1  0.74920282  0.04437130  0.75918892  1
  Te  Te93  1  0.75020905  0.41512661  0.09093528  1
  Te  Te94  1  0.74727847  0.42976105  0.37826575  1
  Te  Te95  1  0.74932753  0.41352911  0.75740434  1
  Te  Te96  1  0.73752746  0.76620872  0.07244315  1
  Te  Te97  1  0.76516587  0.75388256  0.42370593  1
  Te  Te98  1  0.75052609  0.76833135  0.76959408  1
  Te  Te99  1  0.08250926  0.24872797  0.22152609  1
  Te  Te100  1  0.08558261  0.26608827  0.60163969  1
  Te  Te101  1  0.04620451  0.26174921  0.97650555  1
  Te  Te102  1  0.09870880  0.60856642  0.21869789  1
  Te  Te103  1  0.10942674  0.61479973  0.58349268  1
  Te  Te104  1  0.10035201  0.55976540  0.96912355  1
  Te  Te105  1  0.08887816  0.93725919  0.23665063  1
  Te  Te106  1  0.08559055  0.91027287  0.58285176  1
  Te  Te107  1  0.09958987  0.92445315  0.91767730  1
  Te  Te108  1  0.43209036  0.24155736  0.21625374  1
  Te  Te109  1  0.42959188  0.23169735  0.59401475  1
  Te  Te110  1  0.44205000  0.22249869  0.95904867  1
  Te  Te111  1  0.43137203  0.56108431  0.25592188  1
  Te  Te112  1  0.41292193  0.58746304  0.56515959  1
  Te  Te113  1  0.41641656  0.58247512  0.93126016  1
  Te  Te114  1  0.40125377  0.94150567  0.19814701  1
  Te  Te115  1  0.41880458  0.89903709  0.56751899  1
  Te  Te116  1  0.42778276  0.92695875  0.91562563  1
  Te  Te117  1  0.76547188  0.26271463  0.24694071  1
  Te  Te118  1  0.75831473  0.25030803  0.59393032  1
  Te  Te119  1  0.71632069  0.22170363  0.90131638  1
  Te  Te120  1  0.75875052  0.57429116  0.25970695  1
  Te  Te121  1  0.73683698  0.57706946  0.56176117  1
  Te  Te122  1  0.73752879  0.57901926  0.90196595  1
  Te  Te123  1  0.73303930  0.91290718  0.23240526  1
  Te  Te124  1  0.73592627  0.93548481  0.59279779  1
  Te  Te125  1  0.71576859  0.89985543  0.97454910  1
  Te  Te126  1  0.25078832  0.25913611  0.06732306  1
  Te  Te127  1  0.23807069  0.22823347  0.40214599  1
  Te  Te128  1  0.25642016  0.26571887  0.76371588  1
  Te  Te129  1  0.20465284  0.55106619  0.09855248  1
  Te  Te130  1  0.23235057  0.59655968  0.39492563  1
  Te  Te131  1  0.22328029  0.59434556  0.78334916  1
  Te  Te132  1  0.27332169  0.95561643  0.09217919  1
  Te  Te133  1  0.27879892  0.92833714  0.40060505  1
  Te  Te134  1  0.25143489  0.91477096  0.75827316  1
  Te  Te135  1  0.56800650  0.27825886  0.11094490  1
  Te  Te136  1  0.59564484  0.24728799  0.39083629  1
  Te  Te137  1  0.59568207  0.21713404  0.75836653  1
  Te  Te138  1  0.60736253  0.57860126  0.09182859  1
  Te  Te139  1  0.57551220  0.57609530  0.41334409  1
  Te  Te140  1  0.58238734  0.57548820  0.74818960  1
  Te  Te141  1  0.60665576  0.96154137  0.06469645  1
  Te  Te142  1  0.58466885  0.89754417  0.40320768  1
  Te  Te143  1  0.62291052  0.95609121  0.77272221  1
  Te  Te144  1  0.90777398  0.22770366  0.03751813  1
  Te  Te145  1  0.91565630  0.24449755  0.42082540  1
  Te  Te146  1  0.90587944  0.22561961  0.75726001  1
  Te  Te147  1  0.91687049  0.61284042  0.07671291  1
  Te  Te148  1  0.93161661  0.56219586  0.40551317  1
  Te  Te149  1  0.92453108  0.57671301  0.73952168  1
  Te  Te150  1  0.90686423  0.90828932  0.07276856  1
  Te  Te151  1  0.94766502  0.94794431  0.39186665  1
  Te  Te152  1  0.91796528  0.92162951  0.77638994  1
  Te  Te153  1  0.28203661  0.03664761  0.24192593  1
  Te  Te154  1  0.25028772  0.07263390  0.57960364  1
  Te  Te155  1  0.24336284  0.07118062  0.90940678  1
  Te  Te156  1  0.25333633  0.41122379  0.25826816  1
  Te  Te157  1  0.22902207  0.44587967  0.60820821  1
  Te  Te158  1  0.24947544  0.42079237  0.92071536  1
  Te  Te159  1  0.25878057  0.76720440  0.20906932  1
  Te  Te160  1  0.22680728  0.72028856  0.57950206  1
  Te  Te161  1  0.23796741  0.73860919  0.93065405  1
  Te  Te162  1  0.55780917  0.07756240  0.23763517  1
  Te  Te163  1  0.57681778  0.08739575  0.58795824  1
  Te  Te164  1  0.62074266  0.09162162  0.97288127  1
  Te  Te165  1  0.53235353  0.44183394  0.23794649  1
  Te  Te166  1  0.59313747  0.41358515  0.56661476  1
  Te  Te167  1  0.58999653  0.40981785  0.90996721  1
  Te  Te168  1  0.57903471  0.75773643  0.22975552  1
  Te  Te169  1  0.58179944  0.75013586  0.60967697  1
  Te  Te170  1  0.56940857  0.76742455  0.89913585  1
  Te  Te171  1  0.92770714  0.10197894  0.21929442  1
  Te  Te172  1  0.92321499  0.08959844  0.59060814  1
  Te  Te173  1  0.90248122  0.08630302  0.93290790  1
  Te  Te174  1  0.94175839  0.42919432  0.21243079  1
  Te  Te175  1  0.91321132  0.41329924  0.56679476  1
  Te  Te176  1  0.90996892  0.41872148  0.92213706  1
  Te  Te177  1  0.90682041  0.76061188  0.26130387  1
  Te  Te178  1  0.92319013  0.74785226  0.59699098  1
  Te  Te179  1  0.91802857  0.72708801  0.94720191  1
