# generated using pymatgen
data_In2Te3
_symmetry_space_group_name_H-M   'P 1'
_cell_length_a   18.95312642
_cell_length_b   18.95584317
_cell_length_c   18.92195795
_cell_angle_alpha   90.06162800
_cell_angle_beta   89.97590125
_cell_angle_gamma   89.75341403
_symmetry_Int_Tables_number   1
_chemical_formula_structural   In2Te3
_chemical_formula_sum   'In72 Te108'
_cell_volume   6798.07148366
_cell_formula_units_Z   36
loop_
 _symmetry_equiv_pos_site_id
 _symmetry_equiv_pos_as_xyz
  1  'x, y, z'
loop_
 _atom_site_type_symbol
 _atom_site_label
 _atom_site_symmetry_multiplicity
 _atom_site_fract_x
 _atom_site_fract_y
 _atom_site_fract_z
 _atom_site_occupancy
  In  In0  1  0.34891220  0.83129820  0.82428952  1
  In  In1  1  0.82905411  0.33563122  0.48881622  1
  In  In2  1  0.16489601  0.33515578  0.15094744  1
  In  In3  1  0.52826094  -0.03809289  0.13784881  1
  In  In4  1  0.82904348  0.18852506  0.30583596  1
  In  In5  1  0.33451219  0.01357681  0.31809421  1
  In  In6  1  0.31537785  0.00108151  0.66140988  1
  In  In7  1  0.68817883  0.19291815  0.84535339  1
  In  In8  1  0.15968921  0.82386963  -0.01376574  1
  In  In9  1  0.35969013  0.65114929  0.34064952  1
  In  In10  1  -0.08450733  0.30812738  0.00406866  1
  In  In11  1  0.16061700  0.48728590  0.31112285  1
  In  In12  1  0.17430879  0.69741281  0.15233935  1
  In  In13  1  -0.00874852  -0.01931617  0.31319115  1
  In  In14  1  -0.01889338  0.18828581  0.84126073  1
  In  In15  1  0.56648393  0.44672398  0.14371009  1
  In  In16  1  0.64880274  0.16452693  0.50994254  1
  In  In17  1  0.15759674  0.32915132  0.83694366  1
  In  In18  1  0.31067495  0.00451559  0.01209171  1
  In  In19  1  0.13485949  0.63298995  0.50783540  1
  In  In20  1  0.53561145  0.35994886  0.48224254  1
  In  In21  1  0.35196213  0.32296524  0.34657767  1
  In  In22  1  0.70371017  -0.00795705  0.30873581  1
  In  In23  1  0.51125757  0.52757049  0.65165039  1
  In  In24  1  0.83350043  0.00947464  0.85009894  1
  In  In25  1  0.14285599  0.67009626  0.81783154  1
  In  In26  1  -0.04042554  0.52220224  0.13592940  1
  In  In27  1  0.83372323  0.50922641  0.31476222  1
  In  In28  1  0.15337008  0.82652498  0.67830743  1
  In  In29  1  0.38084764  0.50715329  0.16420826  1
  In  In30  1  0.67151350  0.00567876  0.70900983  1
  In  In31  1  0.35356156  0.32262354  0.69154669  1
  In  In32  1  0.82087532  0.82883432  0.64036293  1
  In  In33  1  0.53531211  0.64370238  0.47515629  1
  In  In34  1  0.66915453  0.81175695  0.85341221  1
  In  In35  1  -0.05403907  0.80189609  0.10649599  1
  In  In36  1  0.68496535  0.64618428  0.63349186  1
  In  In37  1  -0.01538075  0.35769122  0.33398792  1
  In  In38  1  0.52817779  0.32425981  0.87084052  1
  In  In39  1  0.33830061  0.82547641  0.48065709  1
  In  In40  1  0.70865369  0.14286329  0.13289440  1
  In  In41  1  -0.02538254  0.47966049  0.51579176  1
  In  In42  1  0.16222028  0.52283759  -0.01948276  1
  In  In43  1  0.34139307  0.83721558  0.17417650  1
  In  In44  1  0.34705467  0.48865173  0.51271192  1
  In  In45  1  0.51421012  0.14582436  0.33543666  1
  In  In46  1  0.75962117  0.77745293  0.25058804  1
  In  In47  1  0.53973251  0.65377820  0.86461931  1
  In  In48  1  0.32067202  0.18489376  0.52639652  1
  In  In49  1  0.69762632  0.34330107  0.00808126  1
  In  In50  1  0.32087034  0.68846803  0.68718315  1
  In  In51  1  0.49460828  0.16234185  0.00419663  1
  In  In52  1  0.47488932  0.16744186  0.69488796  1
  In  In53  1  0.13809804  0.19082758  0.69130531  1
  In  In54  1  0.67797789  0.82434000  0.47677270  1
  In  In55  1  0.62077457  0.65291004  0.16263696  1
  In  In56  1  0.15441541  0.86997124  0.31721582  1
  In  In57  1  0.36322992  0.67893734  0.00825674  1
  In  In58  1  0.00820516  0.68955514  0.33611997  1
  In  In59  1  -0.01351067  0.85543299  0.50979091  1
  In  In60  1  0.11796617  0.40141464  0.65647177  1
  In  In61  1  0.14485160  0.14733585  0.33402069  1
  In  In62  1  0.49559832  -0.02503264  0.50772801  1
  In  In63  1  -0.03446277  0.83895921  0.87691466  1
  In  In64  1  0.50380388  -0.02024120  0.86685839  1
  In  In65  1  -0.01070151  0.01766558  0.67486078  1
  In  In66  1  0.31847016  0.17354062  0.18161661  1
  In  In67  1  0.85368605  0.01344708  0.50118158  1
  In  In68  1  0.70712736  0.35674253  0.69203291  1
  In  In69  1  -0.09051698  0.61682231  0.66923239  1
  In  In70  1  0.14071889  0.16434915  0.02883574  1
  In  In71  1  0.32032029  0.51716220  0.82566763  1
  Te  Te72  1  0.04134295  0.10838638  0.12279015  1
  Te  Te73  1  0.06430499  0.05806053  0.41619400  1
  Te  Te74  1  0.07616412  0.08463301  0.77889953  1
  Te  Te75  1  0.08145022  0.44523379  0.08501721  1
  Te  Te76  1  0.08798974  0.42198393  0.42485021  1
  Te  Te77  1  0.04888780  0.41854329  0.78623065  1
  Te  Te78  1  0.06624802  0.72203666  0.04952865  1
  Te  Te79  1  0.09309248  0.77680244  0.42614465  1
  Te  Te80  1  0.04169780  0.76485398  0.75745186  1
  Te  Te81  1  0.41655927  0.07128118  0.10121031  1
  Te  Te82  1  0.41181506  0.08923651  0.43560124  1
  Te  Te83  1  0.40717898  0.05732368  0.76994412  1
  Te  Te84  1  0.43896366  0.39968411  0.08507226  1
  Te  Te85  1  0.43540740  0.44110126  0.39739595  1
  Te  Te86  1  0.42942497  0.44079854  0.74846776  1
  Te  Te87  1  0.44037996  0.74385769  0.11507289  1
  Te  Te88  1  0.44938115  0.75517703  0.40643405  1
  Te  Te89  1  0.44264316  0.72801570  0.76558302  1
  Te  Te90  1  0.80820988  0.06936776  0.05044464  1
  Te  Te91  1  0.74883042  0.09671178  0.41163620  1
  Te  Te92  1  0.77226379  0.11018100  0.74831322  1
  Te  Te93  1  0.71810556  0.45270420  0.11114339  1
  Te  Te94  1  0.74870805  0.43604189  0.41377188  1
  Te  Te95  1  0.80725534  0.38636550  0.80247250  1
  Te  Te96  1  0.79574428  0.74106979  0.04911354  1
  Te  Te97  1  0.74982564  0.72935064  0.39321318  1
  Te  Te98  1  0.74263296  0.74411742  0.73645814  1
  Te  Te99  1  0.08590951  0.26762333  0.25901893  1
  Te  Te100  1  0.08532748  0.27761190  0.58648287  1
  Te  Te101  1  0.06262619  0.27346496  0.94711040  1
  Te  Te102  1  0.09099569  0.60196536  0.24016388  1
  Te  Te103  1  0.04809903  0.57026683  0.61689129  1
  Te  Te104  1  0.05723482  0.58118059  0.89650625  1
  Te  Te105  1  0.04962468  0.88420792  0.21219936  1
  Te  Te106  1  0.08670957  0.93221726  0.59212869  1
  Te  Te107  1  0.07040565  0.92504016  0.92922767  1
  Te  Te108  1  0.43649394  0.24435296  0.24736658  1
  Te  Te109  1  0.44054300  0.26962499  0.56868671  1
  Te  Te110  1  0.41596544  0.24060816  0.90685216  1
  Te  Te111  1  0.46026144  0.60895947  0.23892686  1
  Te  Te112  1  0.40740782  0.61332697  0.57487010  1
  Te  Te113  1  0.42478112  0.56977518  0.92310113  1
  Te  Te114  1  0.43621673  0.92062730  0.25872797  1
  Te  Te115  1  0.40623836  0.89406566  0.59961139  1
  Te  Te116  1  0.40307294  0.90048088  0.94759129  1
  Te  Te117  1  0.73613382  0.25990526  0.21852789  1
  Te  Te118  1  0.74568309  0.25025324  0.58724216  1
  Te  Te119  1  0.78832123  0.23628232  0.94769796  1
  Te  Te120  1  0.74304994  0.57137487  0.21117347  1
  Te  Te121  1  0.79031686  0.54435659  0.60963190  1
  Te  Te122  1  0.73476782  0.64913906  0.95375747  1
  Te  Te123  1  0.78158883  0.91999460  0.20443128  1
  Te  Te124  1  0.73650329  0.94114530  0.58102133  1
  Te  Te125  1  0.73328168  0.92731737  0.92583037  1
  Te  Te126  1  0.26406639  0.25561253  0.06888852  1
  Te  Te127  1  0.24142088  0.24452137  0.41125702  1
  Te  Te128  1  0.26037553  0.23537755  0.77109197  1
  Te  Te129  1  0.26232791  0.58895287  0.09017907  1
  Te  Te130  1  0.24983205  0.57299451  0.41313194  1
  Te  Te131  1  0.22519871  0.57844613  0.72532208  1
  Te  Te132  1  0.23129100  0.90499385  0.09495215  1
  Te  Te133  1  0.25245731  0.93452029  0.41857210  1
  Te  Te134  1  0.23838912  0.91707034  0.76513427  1
  Te  Te135  1  0.60148726  0.24030999  0.07449407  1
  Te  Te136  1  0.60363518  0.25494817  0.39538931  1
  Te  Te137  1  0.58913294  0.25953919  0.73839829  1
  Te  Te138  1  0.58964601  0.56231234  0.05006096  1
  Te  Te139  1  0.62385542  0.55111425  0.40300234  1
  Te  Te140  1  0.61194041  0.57817340  0.75350109  1
  Te  Te141  1  0.62271903  0.90398567  0.04222386  1
  Te  Te142  1  0.59703003  0.93141115  0.40520060  1
  Te  Te143  1  0.57716843  0.90125724  0.75883184  1
  Te  Te144  1  0.94298530  0.22416491  0.12540155  1
  Te  Te145  1  0.92307885  0.24322180  0.41146930  1
  Te  Te146  1  0.93005496  0.29891150  0.75652492  1
  Te  Te147  1  0.87265892  0.57673022  0.02940229  1
  Te  Te148  1  0.93139689  0.57969090  0.40778962  1
  Te  Te149  1  0.84505365  0.53643697  0.77474557  1
  Te  Te150  1  0.87595275  0.93045652  0.07520790  1
  Te  Te151  1  0.89189897  0.90436923  0.40229810  1
  Te  Te152  1  0.89703100  0.91511046  0.74093951  1
  Te  Te153  1  0.22257571  0.06733198  0.23006176  1
  Te  Te154  1  0.22039478  0.09667313  0.59284433  1
  Te  Te155  1  0.22186948  0.08843342  0.93277959  1
  Te  Te156  1  0.27372759  0.41233712  0.24205385  1
  Te  Te157  1  0.26155085  0.39857509  0.59510053  1
  Te  Te158  1  0.25364885  0.41830095  0.91843101  1
  Te  Te159  1  0.25589469  0.75340233  0.27535415  1
  Te  Te160  1  0.23612533  0.75073003  0.57387990  1
  Te  Te161  1  0.25580695  0.72970680  0.90476624  1
  Te  Te162  1  0.59680344  0.07441493  0.22784897  1
  Te  Te163  1  0.56432990  0.07478677  0.60241017  1
  Te  Te164  1  0.59449802  0.09069467  0.91357976  1
  Te  Te165  1  0.57522597  0.45425169  0.29178766  1
  Te  Te166  1  0.61049950  0.42854777  0.59275180  1
  Te  Te167  1  0.63014989  0.42184079  0.90101057  1
  Te  Te168  1  0.61240410  0.76704571  0.25377247  1
  Te  Te169  1  0.58862472  0.74827563  0.57324932  1
  Te  Te170  1  0.56864427  0.76956059  0.95572957  1
  Te  Te171  1  0.91997163  0.09101639  0.23530714  1
  Te  Te172  1  0.91964833  0.11136243  0.58658298  1
  Te  Te173  1  0.93165076  0.08186193  0.93465006  1
  Te  Te174  1  0.90149617  0.40953941  0.21839099  1
  Te  Te175  1  0.91315439  0.37859118  0.60541359  1
  Te  Te176  1  0.87158878  0.44117062  0.95225176  1
  Te  Te177  1  0.90617180  0.72589401  0.23273551  1
  Te  Te178  1  0.91237522  0.73658515  0.56481052  1
  Te  Te179  1  0.86379855  0.73735218  0.90684455  1
