# generated using pymatgen
data_In2Te3
_symmetry_space_group_name_H-M   'P 1'
_cell_length_a   18.92840906
_cell_length_b   18.94178888
_cell_length_c   18.95809295
_cell_angle_alpha   89.95803262
_cell_angle_beta   90.12066249
_cell_angle_gamma   90.06562666
_symmetry_Int_Tables_number   1
_chemical_formula_structural   In2Te3
_chemical_formula_sum   'In72 Te108'
_cell_volume   6797.17402242
_cell_formula_units_Z   36
loop_
 _symmetry_equiv_pos_site_id
 _symmetry_equiv_pos_as_xyz
  1  'x, y, z'
loop_
 _atom_site_type_symbol
 _atom_site_label
 _atom_site_symmetry_multiplicity
 _atom_site_fract_x
 _atom_site_fract_y
 _atom_site_fract_z
 _atom_site_occupancy
  In  In0  1  0.15663705  0.34857429  0.82372123  1
  In  In1  1  0.33599321  0.49599252  0.85806382  1
  In  In2  1  0.16081088  0.49924035  0.32385826  1
  In  In3  1  0.62523781  0.80733757  0.80520402  1
  In  In4  1  0.49724293  0.49669754  0.34043170  1
  In  In5  1  0.47530419  0.34765530  0.51038804  1
  In  In6  1  0.51145362  0.66586119  0.16741463  1
  In  In7  1  0.67444223  0.01119438  0.64468392  1
  In  In8  1  0.65057640  0.66913003  -0.02981707  1
  In  In9  1  0.47535564  0.15543315  0.32658464  1
  In  In10  1  0.48473846  -0.01785737  0.85378198  1
  In  In11  1  0.85260567  -0.01076904  0.81832517  1
  In  In12  1  0.18965411  0.14243768  -0.01841502  1
  In  In13  1  0.31658184  0.83555846  0.51734057  1
  In  In14  1  0.01389413  -0.01488317  -0.01188828  1
  In  In15  1  0.84156824  0.16088545  0.64165623  1
  In  In16  1  0.48639350  0.34930998  0.15043001  1
  In  In17  1  0.34150874  0.64923474  0.35474440  1
  In  In18  1  0.18081920  0.64149145  0.85472314  1
  In  In19  1  0.50080273  0.16988066  0.67895241  1
  In  In20  1  0.18165385  0.68116448  0.15693345  1
  In  In21  1  0.51051696  -0.00146364  0.15451516  1
  In  In22  1  0.82266505  0.16311583  0.31908974  1
  In  In23  1  0.32320454  -0.00029697  0.68443131  1
  In  In24  1  0.84031103  0.47425904  0.34120580  1
  In  In25  1  0.47207060  0.15107270  -0.00111426  1
  In  In26  1  0.51343549  0.81253518  0.30856183  1
  In  In27  1  0.31952419  0.86886883  0.16152155  1
  In  In28  1  0.33095150  0.17503240  0.16325708  1
  In  In29  1  0.65461495  0.65140270  0.66900207  1
  In  In30  1  0.83382957  0.81807268  -0.02283341  1
  In  In31  1  0.29756474  0.48636919  0.15719498  1
  In  In32  1  0.65967747  0.80952387  0.48516119  1
  In  In33  1  0.33269871  0.67083507  0.01490509  1
  In  In34  1  0.66913032  0.01044905  0.00872800  1
  In  In35  1  0.45737281  -0.01139741  0.48622325  1
  In  In36  1  0.84094641  0.00452779  0.18041751  1
  In  In37  1  0.82620223  0.34610596  0.84747291  1
  In  In38  1  0.68140671  0.01002857  0.33694658  1
  In  In39  1  0.49847690  0.64966152  0.50862594  1
  In  In40  1  0.15531997  0.16080404  0.67733160  1
  In  In41  1  0.00376585  0.01746216  0.34391548  1
  In  In42  1  -0.01012712  0.17128766  0.50115189  1
  In  In43  1  0.17837165  0.32237403  0.47262544  1
  In  In44  1  0.86131698  0.68679612  0.53527137  1
  In  In45  1  0.30672524  0.32753135  0.67007326  1
  In  In46  1  0.82054929  0.85815376  0.33517029  1
  In  In47  1  0.82944802  0.33428313  0.18043966  1
  In  In48  1  0.49152149  0.30762920  0.83892174  1
  In  In49  1  0.03089540  0.36185251  0.01895640  1
  In  In50  1  0.30180515  0.01217937  0.31852368  1
  In  In51  1  0.86718761  0.52383147  -0.01399425  1
  In  In52  1  0.17255398  0.84228066  0.66235416  1
  In  In53  1  0.66024600  0.16399960  0.47378787  1
  In  In54  1  0.00853221  0.15157434  0.82016972  1
  In  In55  1  0.01617218  0.35875865  0.70202594  1
  In  In56  1  0.49774335  0.50471841  0.65579656  1
  In  In57  1  0.00062391  0.82171021  0.83642828  1
  In  In58  1  0.18223121  0.01129192  0.15141274  1
  In  In59  1  0.83118149  0.19579584  0.00563009  1
  In  In60  1  0.65567569  0.48212910  0.82107743  1
  In  In61  1  0.82098571  0.34339829  0.50779776  1
  In  In62  1  0.87027095  -0.03480572  0.52631387  1
  In  In63  1  0.01939208  0.52401022  0.53708782  1
  In  In64  1  0.15075096  0.82423003  0.34290367  1
  In  In65  1  0.64862529  0.33086824  0.01527514  1
  In  In66  1  0.02040741  0.81400367  0.15392194  1
  In  In67  1  0.00981025  0.33611711  0.30688817  1
  In  In68  1  0.84583182  0.65264534  0.14019974  1
  In  In69  1  0.85905180  0.54727497  0.68552543  1
  In  In70  1  0.68165211  0.50774124  0.15448664  1
  In  In71  1  -0.00438415  0.68511284  0.35070124  1
  Te  Te72  1  0.07937812  0.09207716  0.07381557  1
  Te  Te73  1  0.09256399  0.09777926  0.42764909  1
  Te  Te74  1  0.10291531  0.05102789  0.76799390  1
  Te  Te75  1  0.12666915  0.43616212  0.10348839  1
  Te  Te76  1  0.06402665  0.42086459  0.42324939  1
  Te  Te77  1  0.12811961  0.45758639  0.72065251  1
  Te  Te78  1  0.10665573  0.75618878  0.04985385  1
  Te  Te79  1  0.11302473  0.71698141  0.44127808  1
  Te  Te80  1  0.11091525  0.74573607  0.76669219  1
  Te  Te81  1  0.38677740  0.05344471  0.08348422  1
  Te  Te82  1  0.36900739  0.10401524  0.42734515  1
  Te  Te83  1  0.41130444  0.08996320  0.77015856  1
  Te  Te84  1  0.39521394  0.42569221  0.06617757  1
  Te  Te85  1  0.39488122  0.43553563  0.42350925  1
  Te  Te86  1  0.41431374  0.40583985  0.74443244  1
  Te  Te87  1  0.41342640  0.76710061  0.10268088  1
  Te  Te88  1  0.41864768  0.76603185  0.41730609  1
  Te  Te89  1  0.48761706  0.75484693  0.80179746  1
  Te  Te90  1  0.75494882  0.10008359  0.09715883  1
  Te  Te91  1  0.78367761  0.06934023  0.43983389  1
  Te  Te92  1  0.75895423  0.08702640  0.74573094  1
  Te  Te93  1  0.76917551  0.42012109  0.06084585  1
  Te  Te94  1  0.73191330  0.40374174  0.40889081  1
  Te  Te95  1  0.76736164  0.42772902  0.73523712  1
  Te  Te96  1  0.74302680  0.74018169  0.07018984  1
  Te  Te97  1  0.77427154  0.73921175  0.41746408  1
  Te  Te98  1  0.74149443  0.73517867  0.75224856  1
  Te  Te99  1  0.12341863  0.26809921  0.24682243  1
  Te  Te100  1  0.07179959  0.26155187  0.59631313  1
  Te  Te101  1  0.07065549  0.24890309  0.91686910  1
  Te  Te102  1  0.08488094  0.61039327  0.25235350  1
  Te  Te103  1  0.06447242  0.65772380  0.58098137  1
  Te  Te104  1  0.06625473  0.54650330  0.87774247  1
  Te  Te105  1  0.08468031  0.92307405  0.24029334  1
  Te  Te106  1  0.07109556  0.87452066  0.55865216  1
  Te  Te107  1  0.09695577  0.92922526  0.88162776  1
  Te  Te108  1  0.40588167  0.27033866  0.25424669  1
  Te  Te109  1  0.39945510  0.23861163  0.58911774  1
  Te  Te110  1  0.38933586  0.25266097  0.93161076  1
  Te  Te111  1  0.39907109  0.57993548  0.23202212  1
  Te  Te112  1  0.39552990  0.59193214  0.59386995  1
  Te  Te113  1  0.42280846  0.58579825  0.93701693  1
  Te  Te114  1  0.42229914  0.93420145  0.26816838  1
  Te  Te115  1  0.42100700  0.90567000  0.60450016  1
  Te  Te116  1  0.36728491  0.90857090  0.91007830  1
  Te  Te117  1  0.73080958  0.25667450  0.25525947  1
  Te  Te118  1  0.73022650  0.24567398  0.58178705  1
  Te  Te119  1  0.72602322  0.25105942  0.91081327  1
  Te  Te120  1  0.77158020  0.58015078  0.25100162  1
  Te  Te121  1  0.75639147  0.58430866  0.57698889  1
  Te  Te122  1  0.74699661  0.57258990  0.90408294  1
  Te  Te123  1  0.72756667  0.91405538  0.22827569  1
  Te  Te124  1  0.74817498  0.89505614  0.58049575  1
  Te  Te125  1  0.74875952  0.92335021  0.90931108  1
  Te  Te126  1  0.26249627  0.24857414  0.05425444  1
  Te  Te127  1  0.29013970  0.24039715  0.43189094  1
  Te  Te128  1  0.24551970  0.23469778  0.77346340  1
  Te  Te129  1  0.20742575  0.56421730  0.06079721  1
  Te  Te130  1  0.23551205  0.57769505  0.42592168  1
  Te  Te131  1  0.25754863  0.56425800  0.75144964  1
  Te  Te132  1  0.20815827  0.89096735  0.06662342  1
  Te  Te133  1  0.23447143  0.92322393  0.42145499  1
  Te  Te134  1  0.28253542  0.87967029  0.76288788  1
  Te  Te135  1  0.56421015  0.23153339  0.09142667  1
  Te  Te136  1  0.55565458  0.25199625  0.41253983  1
  Te  Te137  1  0.59330787  0.26255500  0.74315550  1
  Te  Te138  1  0.57804748  0.57451640  0.06633895  1
  Te  Te139  1  0.58177381  0.60158936  0.39886934  1
  Te  Te140  1  0.55823054  0.58700932  0.76965327  1
  Te  Te141  1  0.58120741  0.90613638  0.06654175  1
  Te  Te142  1  0.58311429  0.92273108  0.41476266  1
  Te  Te143  1  0.58169030  0.94170337  0.74005443  1
  Te  Te144  1  0.93315669  0.26604680  0.09250599  1
  Te  Te145  1  0.90961814  0.26093651  0.40608965  1
  Te  Te146  1  0.90825533  0.24892221  0.75212476  1
  Te  Te147  1  0.96110787  0.59064352  0.07626940  1
  Te  Te148  1  0.91759840  0.57799736  0.42683259  1
  Te  Te149  1  0.95612450  0.59920813  0.78361296  1
  Te  Te150  1  0.91268221  0.91349117  0.07996952  1
  Te  Te151  1  0.94626830  0.89549006  0.41485718  1
  Te  Te152  1  0.91184073  0.88579119  0.73417734  1
  Te  Te153  1  0.21558353  0.11936497  0.25596745  1
  Te  Te154  1  0.22727067  0.06495087  0.59391425  1
  Te  Te155  1  0.28560874  0.03495815  0.94863328  1
  Te  Te156  1  0.22588857  0.38456644  0.24714957  1
  Te  Te157  1  0.22876756  0.41370439  0.57813318  1
  Te  Te158  1  0.23486605  0.41539658  0.92823990  1
  Te  Te159  1  0.26358036  0.75981220  0.26242546  1
  Te  Te160  1  0.26180713  0.73504998  0.60746788  1
  Te  Te161  1  0.27505004  0.74901096  0.90284941  1
  Te  Te162  1  0.58792987  0.09037837  0.24743006  1
  Te  Te163  1  0.56167825  0.08103207  0.55855252  1
  Te  Te164  1  0.58040319  0.08884794  0.91380189  1
  Te  Te165  1  0.58563166  0.42501787  0.23822049  1
  Te  Te166  1  0.58455976  0.42803509  0.56763527  1
  Te  Te167  1  0.56479915  0.41416207  0.92173871  1
  Te  Te168  1  0.61661162  0.72796184  0.25090154  1
  Te  Te169  1  0.57018729  0.75467461  0.59220678  1
  Te  Te170  1  0.54666532  0.77594318  0.93792388  1
  Te  Te171  1  0.93853152  0.10626955  0.23912700  1
  Te  Te172  1  0.95286438  0.06471685  0.60571462  1
  Te  Te173  1  0.90693376  0.08810604  0.92687902  1
  Te  Te174  1  0.93249943  0.43785840  0.22649712  1
  Te  Te175  1  0.91908576  0.42084105  0.59547745  1
  Te  Te176  1  0.94610287  0.42264270  0.90149999  1
  Te  Te177  1  0.90721586  0.76406188  0.24226213  1
  Te  Te178  1  0.96230580  0.77495475  0.60506075  1
  Te  Te179  1  0.92083744  0.71958324  0.91103132  1
