# generated using pymatgen
data_In2Te3
_symmetry_space_group_name_H-M   'P 1'
_cell_length_a   18.98359863
_cell_length_b   18.98075611
_cell_length_c   18.97178317
_cell_angle_alpha   90.04564491
_cell_angle_beta   90.05711706
_cell_angle_gamma   90.05334630
_symmetry_Int_Tables_number   1
_chemical_formula_structural   In2Te3
_chemical_formula_sum   'In72 Te108'
_cell_volume   6835.96234908
_cell_formula_units_Z   36
loop_
 _symmetry_equiv_pos_site_id
 _symmetry_equiv_pos_as_xyz
  1  'x, y, z'
loop_
 _atom_site_type_symbol
 _atom_site_label
 _atom_site_symmetry_multiplicity
 _atom_site_fract_x
 _atom_site_fract_y
 _atom_site_fract_z
 _atom_site_occupancy
  In  In0  1  0.33210737  0.00929884  0.66107846  1
  In  In1  1  0.15613621  0.32065133  0.16451509  1
  In  In2  1  -0.00950982  0.65015890  0.38860038  1
  In  In3  1  0.83001358  0.83531959  0.00727026  1
  In  In4  1  0.33957334  0.66733529  0.34746195  1
  In  In5  1  0.00785258  0.46742883  0.19072496  1
  In  In6  1  0.84142362  0.16585310  0.67715994  1
  In  In7  1  0.32992546  0.82617101  0.15312175  1
  In  In8  1  0.67648281  0.69018870  0.38551852  1
  In  In9  1  -0.00616981  0.32141482  0.34484481  1
  In  In10  1  0.81428823  -0.00786486  0.19296464  1
  In  In11  1  0.84686859  0.33988517  0.49762241  1
  In  In12  1  0.68439952  0.51910040  0.18515010  1
  In  In13  1  0.49556748  0.32532474  0.16116600  1
  In  In14  1  0.48220860  0.65860058  0.80168142  1
  In  In15  1  0.00174750  0.81865080  0.18519111  1
  In  In16  1  0.49047445  0.49802089  -0.01129922  1
  In  In17  1  0.34560571  0.51553988  0.49773453  1
  In  In18  1  0.83593419  0.31671745  0.82604873  1
  In  In19  1  0.64579423  0.18736100  0.83653845  1
  In  In20  1  0.66102946  0.33833394  0.02910244  1
  In  In21  1  -0.01827331  0.32125488  -0.00179073  1
  In  In22  1  0.69575836  0.28909312  0.30638680  1
  In  In23  1  0.05714730  0.53295770  0.74651256  1
  In  In24  1  0.49178331  0.83904553  0.32823846  1
  In  In25  1  0.64578138  0.35114000  0.66214197  1
  In  In26  1  0.17317539  0.52267877  -0.01742766  1
  In  In27  1  0.16942952  -0.00478643  0.48730424  1
  In  In28  1  0.02227510  0.02100874  0.00599271  1
  In  In29  1  0.50819010  0.84486335  0.66160821  1
  In  In30  1  0.65364196  0.85912370  0.18479165  1
  In  In31  1  0.64991713  0.69024386  0.02006166  1
  In  In32  1  0.83500581  0.47505239  -0.00672371  1
  In  In33  1  0.16615735  0.48606633  0.33212966  1
  In  In34  1  0.31132682  0.33015024  0.31695108  1
  In  In35  1  0.84698207  -0.00680822  0.85335483  1
  In  In36  1  0.85966179  0.66625778  0.21180675  1
  In  In37  1  0.30143878  0.32924784  -0.00366532  1
  In  In38  1  0.14996718  0.82170587  -0.03236803  1
  In  In39  1  0.30975169  0.15759821  0.84316680  1
  In  In40  1  0.48873664  0.32589344  0.48167818  1
  In  In41  1  -0.02357871  0.64679715  -0.00762387  1
  In  In42  1  0.51889219  0.52094036  0.31605497  1
  In  In43  1  -0.00399890  0.16678637  0.50380557  1
  In  In44  1  0.68901589  0.69376625  0.62169592  1
  In  In45  1  0.19322630  0.02751472  0.19230803  1
  In  In46  1  0.30889306  0.15024413  0.43921385  1
  In  In47  1  0.63591057  0.52068061  0.83355591  1
  In  In48  1  0.64838488  0.47565543  0.48098162  1
  In  In49  1  0.15233628  0.82508916  0.36768541  1
  In  In50  1  0.55262024  0.01655964  0.49265608  1
  In  In51  1  0.31312094  0.85389490  0.83563694  1
  In  In52  1  -0.01375524  -0.01747519  0.35215845  1
  In  In53  1  0.17296076  0.29647773  0.82648825  1
  In  In54  1  0.48242011  0.16981497  -0.00490657  1
  In  In55  1  -0.01403123  0.31730278  0.65735198  1
  In  In56  1  0.20924019  0.66368595  0.74053590  1
  In  In57  1  0.69753722  -0.00704696  0.65002687  1
  In  In58  1  0.52357756  0.16019872  0.33466547  1
  In  In59  1  -0.00726641  0.83626590  0.79614820  1
  In  In60  1  -0.01501933  0.84081553  0.50945728  1
  In  In61  1  0.33652768  -0.01572669  0.00762284  1
  In  In62  1  0.50203590  -0.00077949  0.16026331  1
  In  In63  1  0.83154717  0.15797094  0.07224883  1
  In  In64  1  0.84553311  0.48399546  0.66074673  1
  In  In65  1  0.48807733  0.15987170  0.65985188  1
  In  In66  1  0.17469205  0.64263655  0.16389909  1
  In  In67  1  0.66154930  0.82549979  0.81130535  1
  In  In68  1  0.34914801  0.39507357  0.67751515  1
  In  In69  1  0.80157262  0.66303002  0.81620086  1
  In  In70  1  0.46778631  0.70614267  0.17716297  1
  In  In71  1  0.19894513  0.83560507  0.63354561  1
  Te  Te72  1  0.09405953  0.09764768  0.10898980  1
  Te  Te73  1  0.08160166  0.08695199  0.40591835  1
  Te  Te74  1  0.15483885  0.14150195  0.82185188  1
  Te  Te75  1  0.08172505  0.42896067  0.06447444  1
  Te  Te76  1  0.09923894  0.39277194  0.42378321  1
  Te  Te77  1  0.10074539  0.39114491  0.72665399  1
  Te  Te78  1  0.07272882  0.73039133  0.07636145  1
  Te  Te79  1  0.09014384  0.73230880  0.46791597  1
  Te  Te80  1  0.08834557  0.75818163  0.71289430  1
  Te  Te81  1  0.40001024  0.09033255  0.09483971  1
  Te  Te82  1  0.43325064  0.06543907  0.40652281  1
  Te  Te83  1  0.41751119  0.07785247  0.76503143  1
  Te  Te84  1  0.40520634  0.41209809  0.07925730  1
  Te  Te85  1  0.41966893  0.42304333  0.38569835  1
  Te  Te86  1  0.43087029  0.47065377  0.77494044  1
  Te  Te87  1  0.40681806  0.75108059  0.05255450  1
  Te  Te88  1  0.40935473  0.76791170  0.42977504  1
  Te  Te89  1  0.40286908  0.77139574  0.74092748  1
  Te  Te90  1  0.74341245  0.04159505  0.07542533  1
  Te  Te91  1  0.66371727  0.04991033  0.39119992  1
  Te  Te92  1  0.74908948  0.09102950  0.77211725  1
  Te  Te93  1  0.76400837  0.41279999  0.11222532  1
  Te  Te94  1  0.75083504  0.40250593  0.39784541  1
  Te  Te95  1  0.74077173  0.42626554  0.76445781  1
  Te  Te96  1  0.77121073  0.73239872  0.10164915  1
  Te  Te97  1  0.77238636  0.76501148  0.47486736  1
  Te  Te98  1  0.77149533  0.77602731  0.72082584  1
  Te  Te99  1  0.06350274  0.23954892  0.24364530  1
  Te  Te100  1  0.08763197  0.22988987  0.59970419  1
  Te  Te101  1  0.09178755  0.24004144  0.94339832  1
  Te  Te102  1  0.06950188  0.59465546  0.26451462  1
  Te  Te103  1  0.13244678  0.59067583  0.63430810  1
  Te  Te104  1  0.07074643  0.58837134  0.89252731  1
  Te  Te105  1  0.09587280  0.91690566  0.25415940  1
  Te  Te106  1  0.08103407  0.92711022  0.58830329  1
  Te  Te107  1  0.06925268  0.92466749  0.89268834  1
  Te  Te108  1  0.41605819  0.23979145  0.25555359  1
  Te  Te109  1  0.40894626  0.21711554  0.54499709  1
  Te  Te110  1  0.40604999  0.26474059  0.90856278  1
  Te  Te111  1  0.40481133  0.58322252  0.23807696  1
  Te  Te112  1  0.38076617  0.61764029  0.60022120  1
  Te  Te113  1  0.40281113  0.57799892  0.89934495  1
  Te  Te114  1  0.39903217  0.92453607  0.24483672  1
  Te  Te115  1  0.43723823  0.94667220  0.57483270  1
  Te  Te116  1  0.42178591  0.91228753  0.91408139  1
  Te  Te117  1  0.77967606  0.22170245  0.20618929  1
  Te  Te118  1  0.76068241  0.27216259  0.60247013  1
  Te  Te119  1  0.74973373  0.25633085  0.93330748  1
  Te  Te120  1  0.75629333  0.59356592  0.29573383  1
  Te  Te121  1  0.74180023  0.55366699  0.57405022  1
  Te  Te122  1  0.74225304  0.58158902  0.93518423  1
  Te  Te123  1  0.76948006  0.87681440  0.27080238  1
  Te  Te124  1  0.74956819  0.90294883  0.54589900  1
  Te  Te125  1  0.73561595  0.90890037  0.91636616  1
  Te  Te126  1  0.24486352  0.23152564  0.08908126  1
  Te  Te127  1  0.22189858  0.27265466  0.41839617  1
  Te  Te128  1  0.29309113  0.26752199  0.73370893  1
  Te  Te129  1  0.26962876  0.59889830  0.06336177  1
  Te  Te130  1  0.23446970  0.58738149  0.42186972  1
  Te  Te131  1  0.30572348  0.54459473  0.72041052  1
  Te  Te132  1  0.21955160  0.90132598  0.07620292  1
  Te  Te133  1  0.26291254  0.89891982  0.42702474  1
  Te  Te134  1  0.22748398  0.93729787  0.74347633  1
  Te  Te135  1  0.58643811  0.22519958  0.09475162  1
  Te  Te136  1  0.60781576  0.25024384  0.42575717  1
  Te  Te137  1  0.55230285  0.26823079  0.74662982  1
  Te  Te138  1  0.58003605  0.57450473  0.08990456  1
  Te  Te139  1  0.56609051  0.59740894  0.43650357  1
  Te  Te140  1  0.59813430  0.60849462  0.71864874  1
  Te  Te141  1  0.56549317  0.89615225  0.07622606  1
  Te  Te142  1  0.60492060  0.90589722  0.40014697  1
  Te  Te143  1  0.59069138  0.94118704  0.74485990  1
  Te  Te144  1  0.91996485  0.26830691  0.12199446  1
  Te  Te145  1  0.88982989  0.22459607  0.41185176  1
  Te  Te146  1  0.94235304  0.22453679  0.77307764  1
  Te  Te147  1  0.91083688  0.56552624  0.10182622  1
  Te  Te148  1  0.87720599  0.60477306  0.47039870  1
  Te  Te149  1  0.91168758  0.59366935  0.74086158  1
  Te  Te150  1  0.94110142  0.90885655  0.07928334  1
  Te  Te151  1  0.88879282  0.94745385  0.46112016  1
  Te  Te152  1  0.90297047  0.93218097  0.73233837  1
  Te  Te153  1  0.24999241  0.10054758  0.30432822  1
  Te  Te154  1  0.24548799  0.09414888  0.57291549  1
  Te  Te155  1  0.23376215  0.05948311  0.93103313  1
  Te  Te156  1  0.24761104  0.42902478  0.21986754  1
  Te  Te157  1  0.27240590  0.40066810  0.55202654  1
  Te  Te158  1  0.24017898  0.42165573  0.89479350  1
  Te  Te159  1  0.23813292  0.74778876  0.25529705  1
  Te  Te160  1  0.29864417  0.74629943  0.57155192  1
  Te  Te161  1  0.23202590  0.73229912  0.88032702  1
  Te  Te162  1  0.60480130  0.06837649  0.24700132  1
  Te  Te163  1  0.61662737  0.11082488  0.59690393  1
  Te  Te164  1  0.57581543  0.08852686  0.91748731  1
  Te  Te165  1  0.59327576  0.40455926  0.25000315  1
  Te  Te166  1  0.54314277  0.42822119  0.58170829  1
  Te  Te167  1  0.58304687  0.40297463  0.91652565  1
  Te  Te168  1  0.59322469  0.73207290  0.25687498  1
  Te  Te169  1  0.57716862  0.76557617  0.55924100  1
  Te  Te170  1  0.57490011  0.73777528  0.90008128  1
  Te  Te171  1  0.91926009  0.07040470  0.25651000  1
  Te  Te172  1  0.90601565  0.07616831  0.58103642  1
  Te  Te173  1  0.90633146  0.09651884  0.94652589  1
  Te  Te174  1  0.91290747  0.43500607  0.29514136  1
  Te  Te175  1  0.94821796  0.43200081  0.56262306  1
  Te  Te176  1  0.92890027  0.41919807  0.89059648  1
  Te  Te177  1  0.92643254  0.76519993  0.30499549  1
  Te  Te178  1  0.90490112  0.72253757  0.56102772  1
  Te  Te179  1  0.90603157  0.75080649  0.90382813  1
