# generated using pymatgen
data_In2Te3
_symmetry_space_group_name_H-M   'P 1'
_cell_length_a   18.76896057
_cell_length_b   18.76771644
_cell_length_c   18.76265575
_cell_angle_alpha   90.04092808
_cell_angle_beta   89.92934825
_cell_angle_gamma   89.91173664
_symmetry_Int_Tables_number   1
_chemical_formula_structural   In2Te3
_chemical_formula_sum   'In72 Te108'
_cell_volume   6609.14086681
_cell_formula_units_Z   36
loop_
 _symmetry_equiv_pos_site_id
 _symmetry_equiv_pos_as_xyz
  1  'x, y, z'
loop_
 _atom_site_type_symbol
 _atom_site_label
 _atom_site_symmetry_multiplicity
 _atom_site_fract_x
 _atom_site_fract_y
 _atom_site_fract_z
 _atom_site_occupancy
  In  In0  1  0.83957279  0.33719741  0.16386618  1
  In  In1  1  0.14779885  0.15659079  0.66678907  1
  In  In2  1  0.32305021  0.36511603  0.64781261  1
  In  In3  1  0.83995815  0.50265010  0.35587847  1
  In  In4  1  0.67003901  0.00280334  -0.03997569  1
  In  In5  1  0.66090101  0.85576398  0.82078830  1
  In  In6  1  0.67300701  0.00158342  0.67550162  1
  In  In7  1  0.50334062  0.16898916  0.66782016  1
  In  In8  1  0.84005016  0.48770946  0.67077411  1
  In  In9  1  0.64296096  0.67094661  0.66201303  1
  In  In10  1  0.68778512  0.20922295  0.51908072  1
  In  In11  1  0.49116142  -0.02007703  0.51977123  1
  In  In12  1  0.64904585  0.34763840  0.01015344  1
  In  In13  1  0.50066396  0.66035287  0.83051210  1
  In  In14  1  0.32554382  0.81608266  0.18426906  1
  In  In15  1  0.64623469  0.64893344  0.02920458  1
  In  In16  1  0.16328971  0.50615697  0.00098534  1
  In  In17  1  0.00908494  0.32150177  0.00259592  1
  In  In18  1  0.84736563  0.67327285  0.82539185  1
  In  In19  1  0.68050366  0.19052965  0.16481976  1
  In  In20  1  0.15778538  0.01052957  0.81701200  1
  In  In21  1  0.85671606  0.65890469  0.50974856  1
  In  In22  1  0.66879162  0.81052812  0.49842799  1
  In  In23  1  0.14873880  0.01002819  0.17979499  1
  In  In24  1  0.33587971  0.30720833  0.00020440  1
  In  In25  1  0.00943630  0.00482421  -0.00403369  1
  In  In26  1  0.64728188  0.50177758  0.47406636  1
  In  In27  1  0.33882097  0.51230347  0.17889098  1
  In  In28  1  0.85230966  0.16175120  -0.00699510  1
  In  In29  1  0.35208872  0.35605384  0.33433921  1
  In  In30  1  0.00515709  0.32553553  0.66690639  1
  In  In31  1  0.16111035  0.83642302  0.00981027  1
  In  In32  1  0.63516367  0.80555192  0.18769454  1
  In  In33  1  0.50472628  0.50863412  0.00101017  1
  In  In34  1  0.33965039  0.00143100  0.63909044  1
  In  In35  1  0.15102339  0.14213413  0.34743791  1
  In  In36  1  0.00180157  0.67220784  0.64783279  1
  In  In37  1  0.52268552  0.34944966  0.19754767  1
  In  In38  1  0.14341549  0.33211719  0.82843026  1
  In  In39  1  0.84530855  0.33176304  0.82261818  1
  In  In40  1  0.48435762  0.17992779  0.33730957  1
  In  In41  1  0.02488073  0.83841487  0.18327102  1
  In  In42  1  0.85496811  0.01313708  0.17935261  1
  In  In43  1  0.85042119  0.16836669  0.32017359  1
  In  In44  1  0.18015167  0.33986550  0.17520058  1
  In  In45  1  0.31162323  0.15523432  0.49544772  1
  In  In46  1  0.14207244  0.84163019  0.62914015  1
  In  In47  1  0.68029756  0.50623554  0.81870147  1
  In  In48  1  -0.01037228  0.33531609  0.34522263  1
  In  In49  1  0.83691985  0.64185725  0.18885348  1
  In  In50  1  0.84038519  0.83735406  0.35398832  1
  In  In51  1  0.49941626  0.35228359  0.48980629  1
  In  In52  1  0.85343790  0.48967521  0.00700459  1
  In  In53  1  0.86881485  0.84855680  0.66667093  1
  In  In54  1  0.29557145  -0.03227836  0.33995855  1
  In  In55  1  0.14385219  0.64744170  0.20616454  1
  In  In56  1  0.67618891  0.00155846  0.33969850  1
  In  In57  1  0.48734048  0.00980345  0.14996379  1
  In  In58  1  0.33178168  0.83199782  0.83672321  1
  In  In59  1  0.44862398  0.80022554  0.36772812  1
  In  In60  1  0.87225939  0.01251918  0.51792641  1
  In  In61  1  0.34535963  0.64186839  0.64299268  1
  In  In62  1  0.82485913  0.82337599  -0.01797895  1
  In  In63  1  0.49310202  0.83843497  0.01115817  1
  In  In64  1  0.66724091  0.16254220  0.82287245  1
  In  In65  1  0.34782859  0.49676396  0.82050979  1
  In  In66  1  0.48125222  0.67710853  0.19580825  1
  In  In67  1  0.33003519  0.16679463  0.83889299  1
  In  In68  1  0.33644312  0.00521851  -0.01528686  1
  In  In69  1  0.15592043  0.66999843  0.82915629  1
  In  In70  1  -0.00014149  0.50081368  0.51224919  1
  In  In71  1  0.17054901  0.34773179  0.51844758  1
  Te  Te72  1  0.08044676  0.09889422  0.08511780  1
  Te  Te73  1  0.08345157  0.05822757  0.44777601  1
  Te  Te74  1  0.04549784  0.05031164  0.71640138  1
  Te  Te75  1  0.07726980  0.42242919  0.09603421  1
  Te  Te76  1  0.09242310  0.42777883  0.41178067  1
  Te  Te77  1  0.09592226  0.42556041  0.72541827  1
  Te  Te78  1  0.08259389  0.73318004  0.08860250  1
  Te  Te79  1  0.12667304  0.75046268  0.41063975  1
  Te  Te80  1  0.07162195  0.76736942  0.74531327  1
  Te  Te81  1  0.40594283  0.10321011  0.07208200  1
  Te  Te82  1  0.40880845  0.06926052  0.41228988  1
  Te  Te83  1  0.41564117  0.07375165  0.74871047  1
  Te  Te84  1  0.41436305  0.41634352  0.08501005  1
  Te  Te85  1  0.40108405  0.45491915  0.43695825  1
  Te  Te86  1  0.43161986  0.40824694  0.73751249  1
  Te  Te87  1  0.40391596  0.73674380  0.07671319  1
  Te  Te88  1  0.38747416  0.68871562  0.44971567  1
  Te  Te89  1  0.41299958  0.74560953  0.74029953  1
  Te  Te90  1  0.74838833  0.07862879  0.08393371  1
  Te  Te91  1  0.75867483  0.09216580  0.42841208  1
  Te  Te92  1  0.76563832  0.10188492  0.72946063  1
  Te  Te93  1  0.74179248  0.43252469  0.09490343  1
  Te  Te94  1  0.75598178  0.40885237  0.43290663  1
  Te  Te95  1  0.73633077  0.39236867  0.73181059  1
  Te  Te96  1  0.75121544  0.74604627  0.09386644  1
  Te  Te97  1  0.75719361  0.72209344  0.41052622  1
  Te  Te98  1  0.75322629  0.75514625  0.73436942  1
  Te  Te99  1  0.08596025  0.24949091  0.26010877  1
  Te  Te100  1  0.07409296  0.23793885  0.55945436  1
  Te  Te101  1  0.06576473  0.23004329  0.89959965  1
  Te  Te102  1  0.05571817  0.56326489  0.28761811  1
  Te  Te103  1  0.10249775  0.58965624  0.57446043  1
  Te  Te104  1  0.07124904  0.58176407  0.91323889  1
  Te  Te105  1  0.11622977  0.90509859  0.28137105  1
  Te  Te106  1  0.06374232  0.93954074  0.54962986  1
  Te  Te107  1  0.08150569  0.90624300  0.90234503  1
  Te  Te108  1  0.40423312  0.25532031  0.23197540  1
  Te  Te109  1  0.40942413  0.24655114  0.56871462  1
  Te  Te110  1  0.42805836  0.26120265  0.89508171  1
  Te  Te111  1  0.41277511  0.58136070  0.28880958  1
  Te  Te112  1  0.43978968  0.57690070  0.54686651  1
  Te  Te113  1  0.40196524  0.59343131  0.92627395  1
  Te  Te114  1  0.43087699  0.90855636  0.25041653  1
  Te  Te115  1  0.38527729  0.88546363  0.55850808  1
  Te  Te116  1  0.43628590  0.92499146  0.90038275  1
  Te  Te117  1  0.74797353  0.27491958  0.26959328  1
  Te  Te118  1  0.79105839  0.27404348  0.59896237  1
  Te  Te119  1  0.75407464  0.26412867  0.93248353  1
  Te  Te120  1  0.73619537  0.55728702  0.26045471  1
  Te  Te121  1  0.75012669  0.58254159  0.58943044  1
  Te  Te122  1  0.75233524  0.58981259  0.92385314  1
  Te  Te123  1  0.75262065  0.90783981  0.24507643  1
  Te  Te124  1  0.75646602  0.91332091  0.57115743  1
  Te  Te125  1  0.77936024  0.93099527  0.88226595  1
  Te  Te126  1  0.22709444  0.24212216  0.07409055  1
  Te  Te127  1  0.24864934  0.26093836  0.40589814  1
  Te  Te128  1  0.25337452  0.24733795  0.72994784  1
  Te  Te129  1  0.24401572  0.59600290  0.09437728  1
  Te  Te130  1  0.22205350  0.63992517  0.41995419  1
  Te  Te131  1  0.24537807  0.57811104  0.74389313  1
  Te  Te132  1  0.26036017  0.92159868  0.09198328  1
  Te  Te133  1  0.22457010  0.87234406  0.42561253  1
  Te  Te134  1  0.24674709  0.91295666  0.73817693  1
  Te  Te135  1  0.56473010  0.24532297  0.08382394  1
  Te  Te136  1  0.59138805  0.26118859  0.40662981  1
  Te  Te137  1  0.59071382  0.26050269  0.74170760  1
  Te  Te138  1  0.57084458  0.56293213  0.12916921  1
  Te  Te139  1  0.56265945  0.59609993  0.39798205  1
  Te  Te140  1  0.56461945  0.56129427  0.73351265  1
  Te  Te141  1  0.60307056  0.91933832  0.08036073  1
  Te  Te142  1  0.57817086  0.90802874  0.41004092  1
  Te  Te143  1  0.56510361  0.91452479  0.72582513  1
  Te  Te144  1  0.93054282  0.23148991  0.10384454  1
  Te  Te145  1  0.92158321  0.23581982  0.43077257  1
  Te  Te146  1  0.92137489  0.22821643  0.74469261  1
  Te  Te147  1  0.92718494  0.59162107  0.08305761  1
  Te  Te148  1  0.95558532  0.60626086  0.40091559  1
  Te  Te149  1  0.93590569  0.57469816  0.74855028  1
  Te  Te150  1  0.91804660  0.90822971  0.08489110  1
  Te  Te151  1  0.93753975  0.93915276  0.40347075  1
  Te  Te152  1  0.93265022  0.94542881  0.75493787  1
  Te  Te153  1  0.26062504  0.08677337  0.25335444  1
  Te  Te154  1  0.21789781  0.05863543  0.56540926  1
  Te  Te155  1  0.22616670  0.09324878  0.92472712  1
  Te  Te156  1  0.24031975  0.44140798  0.27247277  1
  Te  Te157  1  0.26023500  0.46166874  0.55325883  1
  Te  Te158  1  0.24805300  0.41050171  0.91068399  1
  Te  Te159  1  0.25151144  0.72709718  0.28078300  1
  Te  Te160  1  0.22600668  0.72118387  0.58671354  1
  Te  Te161  1  0.25040089  0.74256370  0.92764600  1
  Te  Te162  1  0.58646980  0.09013157  0.25066865  1
  Te  Te163  1  0.58808176  0.09137815  0.56164505  1
  Te  Te164  1  0.56780660  0.09305093  0.90830469  1
  Te  Te165  1  0.59302653  0.45696963  0.26703925  1
  Te  Te166  1  0.58845662  0.42156290  0.58453970  1
  Te  Te167  1  0.57722149  0.42183024  0.89864403  1
  Te  Te168  1  0.58365029  0.72183253  0.30425550  1
  Te  Te169  1  0.55716752  0.75360785  0.57608025  1
  Te  Te170  1  0.59386691  0.75023255  0.91732833  1
  Te  Te171  1  0.95436492  0.07375439  0.26836439  1
  Te  Te172  1  0.92618842  0.10312510  0.62073918  1
  Te  Te173  1  0.92294410  0.07562645  0.89658971  1
  Te  Te174  1  0.92571627  0.43279477  0.24455877  1
  Te  Te175  1  0.89905938  0.39206685  0.56540413  1
  Te  Te176  1  0.94023356  0.41895091  0.90323464  1
  Te  Te177  1  0.92454574  0.75129990  0.25860882  1
  Te  Te178  1  0.94169082  0.77848739  0.55271562  1
  Te  Te179  1  0.93446420  0.75106765  0.91506726  1
