# generated using pymatgen
data_In2Te3
_symmetry_space_group_name_H-M   'P 1'
_cell_length_a   18.98062398
_cell_length_b   18.92691121
_cell_length_c   18.97601923
_cell_angle_alpha   89.78311907
_cell_angle_beta   89.92256596
_cell_angle_gamma   90.07772254
_symmetry_Int_Tables_number   1
_chemical_formula_structural   In2Te3
_chemical_formula_sum   'In72 Te108'
_cell_volume   6816.97076403
_cell_formula_units_Z   36
loop_
 _symmetry_equiv_pos_site_id
 _symmetry_equiv_pos_as_xyz
  1  'x, y, z'
loop_
 _atom_site_type_symbol
 _atom_site_label
 _atom_site_symmetry_multiplicity
 _atom_site_fract_x
 _atom_site_fract_y
 _atom_site_fract_z
 _atom_site_occupancy
  In  In0  1  0.63601999  0.66073907  0.32838183  1
  In  In1  1  0.16820068  0.34886980  0.48885626  1
  In  In2  1  0.16511427  0.51369815  0.33947350  1
  In  In3  1  0.83441170  -0.00470888  0.19136753  1
  In  In4  1  0.03483484  0.48910701  0.84895196  1
  In  In5  1  0.32067362  0.01722888  0.30997074  1
  In  In6  1  0.65552101  0.66727786  0.03046362  1
  In  In7  1  0.66846857  0.52007807  0.53052666  1
  In  In8  1  0.51618311  0.39222140  0.81335585  1
  In  In9  1  0.62238643  0.48532708  0.13639162  1
  In  In10  1  0.48922272  0.01801240  0.15878912  1
  In  In11  1  0.46613805  0.80550895  0.03638316  1
  In  In12  1  0.83363049  0.17166345  0.64356575  1
  In  In13  1  0.00144192  0.33413185  0.31400782  1
  In  In14  1  0.15858698  0.49675920  0.65850186  1
  In  In15  1  0.19176140  0.67657528  0.49325184  1
  In  In16  1  0.05481241  -0.03524527  0.29963570  1
  In  In17  1  0.83328638  0.49954057  -0.03053495  1
  In  In18  1  0.83011978  0.34520479  0.80826791  1
  In  In19  1  0.81975373  0.32699830  0.17661188  1
  In  In20  1  0.83138358  0.37378144  0.50618058  1
  In  In21  1  0.22685423  0.79292342  0.31606103  1
  In  In22  1  0.00196835  0.67355815  0.66391227  1
  In  In23  1  0.63892336  0.36316333  -0.04004605  1
  In  In24  1  0.64638457  0.81481185  0.19361981  1
  In  In25  1  0.20214251  0.39869931  0.13433746  1
  In  In26  1  0.67208383  0.81502717  0.85871710  1
  In  In27  1  0.34345407  0.19241318  0.48887409  1
  In  In28  1  0.48728518  0.36115480  0.49850382  1
  In  In29  1  0.85995358  0.16682269  -0.01848856  1
  In  In30  1  0.17470323  -0.00503248  0.87904700  1
  In  In31  1  0.85737070  0.82735372  -0.01874674  1
  In  In32  1  0.84409717  -0.01783596  0.51522883  1
  In  In33  1  0.82386842  0.67411334  0.18963827  1
  In  In34  1  0.47159746  0.17668519  -0.01504972  1
  In  In35  1  0.49740891  0.79812868  0.68350565  1
  In  In36  1  0.00071580  0.85529992  0.82147453  1
  In  In37  1  0.00693494  -0.00326593  0.70447775  1
  In  In38  1  0.65996584  0.15641008  0.83068348  1
  In  In39  1  0.79221446  0.60621683  0.76977807  1
  In  In40  1  -0.01156890  0.32370486  0.64653101  1
  In  In41  1  0.35239313  0.79886823  0.85726931  1
  In  In42  1  0.35902775  0.82651395  0.50845712  1
  In  In43  1  0.01374403  0.17543689  0.45431486  1
  In  In44  1  0.29004200  0.24512295  0.84466082  1
  In  In45  1  0.49238407  0.16706844  0.31785581  1
  In  In46  1  0.63503620  0.16946464  0.16145741  1
  In  In47  1  0.84207070  0.81009896  0.35895666  1
  In  In48  1  0.44344896  0.34913501  0.14234088  1
  In  In49  1  0.04945431  0.17625095  0.85033128  1
  In  In50  1  0.48673669  -0.04727062  0.83067490  1
  In  In51  1  0.46773576  0.50014095  0.30698198  1
  In  In52  1  0.79603125  0.56179396  0.38146573  1
  In  In53  1  -0.00058081  0.67485392  0.01408951  1
  In  In54  1  0.45786938  0.82896837  0.32613607  1
  In  In55  1  0.18790277  0.01820490  0.49924259  1
  In  In56  1  0.02784292  0.83375791  0.16855194  1
  In  In57  1  0.68934703  -0.00492419  0.01188705  1
  In  In58  1  0.03222457  0.01410850  0.01291546  1
  In  In59  1  0.03883146  0.18015965  0.14461276  1
  In  In60  1  0.49183510  0.20211083  0.67874550  1
  In  In61  1  0.19333879  0.84323951  0.64705818  1
  In  In62  1  0.28426398  0.48205645  0.85512933  1
  In  In63  1  0.52025431  -0.01877011  0.49709485  1
  In  In64  1  0.00450120  0.51050739  0.19261831  1
  In  In65  1  0.67727868  0.18491581  0.49801379  1
  In  In66  1  0.47431585  0.61853171  0.53766436  1
  In  In67  1  0.33463061  0.01548866  0.69942592  1
  In  In68  1  0.82701487  0.14943655  0.32639171  1
  In  In69  1  0.67425531  0.00249170  0.64278616  1
  In  In70  1  0.00713055  0.82341088  0.49482384  1
  In  In71  1  0.15991751  0.66908166  0.86926385  1
  Te  Te72  1  0.13198319  0.06804354  0.10982621  1
  Te  Te73  1  0.11011985  0.08026006  0.38490032  1
  Te  Te74  1  0.11894791  0.08025548  0.75696388  1
  Te  Te75  1  0.06007410  0.41700064  0.09714942  1
  Te  Te76  1  0.05994036  0.42847846  0.41583627  1
  Te  Te77  1  0.09373714  0.38395261  0.74924885  1
  Te  Te78  1  0.10430209  0.72163131  0.10739309  1
  Te  Te79  1  0.10122670  0.75537919  0.40006043  1
  Te  Te80  1  0.09928421  0.76501678  0.74035273  1
  Te  Te81  1  0.39586641  0.12206560  0.10305124  1
  Te  Te82  1  0.41495600  0.06787592  0.41834196  1
  Te  Te83  1  0.44540429  0.08627228  0.77344032  1
  Te  Te84  1  0.41175697  0.43570133  0.02563586  1
  Te  Te85  1  0.39160314  0.40792587  0.39611208  1
  Te  Te86  1  0.38428917  0.43890010  0.75042742  1
  Te  Te87  1  0.34887900  0.74799099  0.10260414  1
  Te  Te88  1  0.42236804  0.71882995  0.42715565  1
  Te  Te89  1  0.42987256  0.70639361  0.77491001  1
  Te  Te90  1  0.76272718  0.09936327  0.09494952  1
  Te  Te91  1  0.74727101  0.07064425  0.42878381  1
  Te  Te92  1  0.75808032  0.08203983  0.74152283  1
  Te  Te93  1  0.74856086  0.41442352  0.07090309  1
  Te  Te94  1  0.72702759  0.43063607  0.41420405  1
  Te  Te95  1  0.74422381  0.45462720  0.75270543  1
  Te  Te96  1  0.75748409  0.77443274  0.08643014  1
  Te  Te97  1  0.74661832  0.70891144  0.42164439  1
  Te  Te98  1  0.73022001  0.73885373  0.74900751  1
  Te  Te99  1  0.10796820  0.26601809  0.24154978  1
  Te  Te100  1  0.08812484  0.24114398  0.56841827  1
  Te  Te101  1  0.10943511  0.24206707  0.96734522  1
  Te  Te102  1  0.11032784  0.60399660  0.23383143  1
  Te  Te103  1  0.08582027  0.59403200  0.56632785  1
  Te  Te104  1  0.09749034  0.56657927  0.96205609  1
  Te  Te105  1  0.16148914  0.89030669  0.21848695  1
  Te  Te106  1  0.08542029  0.93045630  0.58009895  1
  Te  Te107  1  0.08365170  0.88884313  0.94408219  1
  Te  Te108  1  0.39551631  0.24246481  0.23553371  1
  Te  Te109  1  0.39485820  0.28299320  0.59874712  1
  Te  Te110  1  0.43105122  0.28231607  0.88653809  1
  Te  Te111  1  0.35489948  0.54182387  0.21621546  1
  Te  Te112  1  0.39826764  0.52318341  0.61957951  1
  Te  Te113  1  0.37162583  0.56422968  0.94515387  1
  Te  Te114  1  0.39238269  0.91763319  0.22056051  1
  Te  Te115  1  0.42301976  0.92640834  0.60427731  1
  Te  Te116  1  0.41220410  0.92766240  0.95762346  1
  Te  Te117  1  0.72545457  0.24361829  0.26125155  1
  Te  Te118  1  0.74409913  0.28189758  0.59378322  1
  Te  Te119  1  0.75255118  0.25259721  0.91477274  1
  Te  Te120  1  0.71909277  0.57307619  0.23338269  1
  Te  Te121  1  0.77249957  0.56828976  0.62126181  1
  Te  Te122  1  0.74941824  0.61364413  0.92241642  1
  Te  Te123  1  0.75033880  0.89685471  0.27190307  1
  Te  Te124  1  0.73118414  0.89886346  0.55671173  1
  Te  Te125  1  0.76977681  0.92616125  0.90544586  1
  Te  Te126  1  0.23837174  0.27808180  0.05089250  1
  Te  Te127  1  0.23404069  0.24392245  0.40790899  1
  Te  Te128  1  0.21725739  0.29592553  0.72889637  1
  Te  Te129  1  0.28479040  0.51747543  0.07485483  1
  Te  Te130  1  0.26892441  0.56585433  0.43308305  1
  Te  Te131  1  0.22546857  0.58986599  0.76061199  1
  Te  Te132  1  0.26689414  0.97753447  -0.00401940  1
  Te  Te133  1  0.25952848  0.90610071  0.42388494  1
  Te  Te134  1  0.26644644  0.89894972  0.76958621  1
  Te  Te135  1  0.57091869  0.26811858  0.06584551  1
  Te  Te136  1  0.56611851  0.25160851  0.42049764  1
  Te  Te137  1  0.60283643  0.27112387  0.75217858  1
  Te  Te138  1  0.54086968  0.59796684  0.09217414  1
  Te  Te139  1  0.56238952  0.55939984  0.41547197  1
  Te  Te140  1  0.59511938  0.50779746  0.74216623  1
  Te  Te141  1  0.58831712  0.91396175  0.09219493  1
  Te  Te142  1  0.57202007  0.88323939  0.40328154  1
  Te  Te143  1  0.60185428  0.90940397  0.74571683  1
  Te  Te144  1  0.92019589  0.25819684  0.08595206  1
  Te  Te145  1  0.89203079  0.25961337  0.41604599  1
  Te  Te146  1  0.92538093  0.23150985  0.75482514  1
  Te  Te147  1  0.89478017  0.58700009  0.08554850  1
  Te  Te148  1  0.90299116  0.63790172  0.44149847  1
  Te  Te149  1  0.94525909  0.56926599  0.75984999  1
  Te  Te150  1  0.92193470  0.92129277  0.09037065  1
  Te  Te151  1  0.93772864  0.93037440  0.39823307  1
  Te  Te152  1  0.89713372  0.90474598  0.72856979  1
  Te  Te153  1  0.26520472  0.09993821  0.20350834  1
  Te  Te154  1  0.26955355  0.10218701  0.59427729  1
  Te  Te155  1  0.27329802  0.10919309  0.90992251  1
  Te  Te156  1  0.25746377  0.41506361  0.27313747  1
  Te  Te157  1  0.25980487  0.44971633  0.55800743  1
  Te  Te158  1  0.21466173  0.36152767  0.92072717  1
  Te  Te159  1  0.30404102  0.69081293  0.24187197  1
  Te  Te160  1  0.28398006  0.73154115  0.60227791  1
  Te  Te161  1  0.25656246  0.74249796  0.95494449  1
  Te  Te162  1  0.59026527  0.06429010  0.26288236  1
  Te  Te163  1  0.57018626  0.10631936  0.58699198  1
  Te  Te164  1  0.58625549  0.07982757  0.93960785  1
  Te  Te165  1  0.55706238  0.39661755  0.23871371  1
  Te  Te166  1  0.57925343  0.42045750  0.59994140  1
  Te  Te167  1  0.58922908  0.49154644  0.90209935  1
  Te  Te168  1  0.53383155  0.72449340  0.23651551  1
  Te  Te169  1  0.57120657  0.71703778  0.58815207  1
  Te  Te170  1  0.56028020  0.74416458  0.93518170  1
  Te  Te171  1  0.93825411  0.09648364  0.23849715  1
  Te  Te172  1  0.93599862  0.09373848  0.56388569  1
  Te  Te173  1  0.94340243  0.07097268  0.90317069  1
  Te  Te174  1  0.89350358  0.42846302  0.26197615  1
  Te  Te175  1  0.92741167  0.44418667  0.59033325  1
  Te  Te176  1  0.92860143  0.39606309  0.91166201  1
  Te  Te177  1  0.93512643  0.74739772  0.25795199  1
  Te  Te178  1  0.90766722  0.74583211  0.57265197  1
  Te  Te179  1  0.93157886  0.73362300  0.89173065  1
