# generated using pymatgen
data_In2Te3
_symmetry_space_group_name_H-M   'P 1'
_cell_length_a   19.00205367
_cell_length_b   19.00971961
_cell_length_c   18.99496288
_cell_angle_alpha   89.90483156
_cell_angle_beta   89.97378489
_cell_angle_gamma   89.90332327
_symmetry_Int_Tables_number   1
_chemical_formula_structural   In2Te3
_chemical_formula_sum   'In72 Te108'
_cell_volume   6861.41106718
_cell_formula_units_Z   36
loop_
 _symmetry_equiv_pos_site_id
 _symmetry_equiv_pos_as_xyz
  1  'x, y, z'
loop_
 _atom_site_type_symbol
 _atom_site_label
 _atom_site_symmetry_multiplicity
 _atom_site_fract_x
 _atom_site_fract_y
 _atom_site_fract_z
 _atom_site_occupancy
  In  In0  1  0.32623805  0.51617457  0.49691290  1
  In  In1  1  0.81992067  0.15799886  0.33193493  1
  In  In2  1  0.65117209  0.15438655  0.16016744  1
  In  In3  1  0.50288184  0.81265925  0.64228801  1
  In  In4  1  0.35875159  0.82617912  0.53131020  1
  In  In5  1  0.67407759  0.82997773  0.84772581  1
  In  In6  1  -0.01721056  0.31150409  0.30947983  1
  In  In7  1  0.35654151  0.16634955  0.49195957  1
  In  In8  1  0.50320504  -0.00436737  0.17079335  1
  In  In9  1  0.50148313  0.15675003  0.00521638  1
  In  In10  1  0.00848157  0.51035656  0.84395937  1
  In  In11  1  0.83443633  0.00188532  0.16945368  1
  In  In12  1  0.14160263  0.32963760  0.86057829  1
  In  In13  1  0.83406246  0.30981664  0.49971113  1
  In  In14  1  0.68122769  0.50863774  0.17515791  1
  In  In15  1  0.02236060  0.69073057  0.64858194  1
  In  In16  1  -0.00178061  0.17635297  0.83423797  1
  In  In17  1  0.67483378  0.16974856  0.83864426  1
  In  In18  1  0.33468639  0.31841103  0.29311808  1
  In  In19  1  0.32455831  0.49611550  0.84416990  1
  In  In20  1  0.84672515  0.84958270  0.34057217  1
  In  In21  1  -0.00583545  0.84323196  0.16783127  1
  In  In22  1  0.66259939  0.34248064  0.32625771  1
  In  In23  1  0.35726206  0.81304940  0.82730419  1
  In  In24  1  0.52028931  0.32118660  0.83964189  1
  In  In25  1  0.02138123  0.33353416  0.66077982  1
  In  In26  1  0.51317828  0.64853307  0.49392545  1
  In  In27  1  0.35058510  0.63996999  0.01487089  1
  In  In28  1  0.13694454  0.84983146  -0.02305588  1
  In  In29  1  -0.01137531  0.65936274  0.00846814  1
  In  In30  1  0.84748807  0.48336648  0.01092986  1
  In  In31  1  0.83610980  0.01772501  0.49234716  1
  In  In32  1  0.67066244  0.48562849  0.84346746  1
  In  In33  1  0.31558734  0.86478249  0.16706997  1
  In  In34  1  0.68776611  0.65428757  0.68867381  1
  In  In35  1  0.52239543  0.66252699  0.17460571  1
  In  In36  1  0.16322561  0.00853523  0.82184257  1
  In  In37  1  0.81794269  0.67411881  0.46474721  1
  In  In38  1  0.15381533  0.86791387  0.34145171  1
  In  In39  1  0.82680443  0.83661926  0.01588818  1
  In  In40  1  0.31852161  -0.02202643  -0.02631054  1
  In  In41  1  -0.01789964  0.86346738  0.51040025  1
  In  In42  1  0.51884827  0.80890258  0.00651867  1
  In  In43  1  0.16237253  0.34029101  0.46603414  1
  In  In44  1  0.32170041  0.48115680  0.15781961  1
  In  In45  1  0.79999446  0.31470391  0.83382145  1
  In  In46  1  0.50548357  0.32918187  0.49573857  1
  In  In47  1  0.65663904  0.01081906  0.63414521  1
  In  In48  1  0.00158896  0.49083497  0.17907625  1
  In  In49  1  0.19015280  0.18248405  0.65188152  1
  In  In50  1  0.17462554  0.67437086  0.48994005  1
  In  In51  1  0.83096814  0.66654687  0.84091052  1
  In  In52  1  0.66771941  0.48339114  0.48992330  1
  In  In53  1  0.32689987  0.34698483  0.67455667  1
  In  In54  1  0.14156865  0.13531099  0.32743258  1
  In  In55  1  0.50952270  0.01598770  0.80414273  1
  In  In56  1  0.36345955  -0.00312543  0.36245599  1
  In  In57  1  0.31091659  0.67104821  0.32688477  1
  In  In58  1  0.18986856  0.66780972  0.83939686  1
  In  In59  1  0.32979979  0.16994802  0.17762009  1
  In  In60  1  -0.01264344  0.68531780  0.31239658  1
  In  In61  1  0.85732156  0.95535789  0.68764655  1
  In  In62  1  0.83282952  0.17194037  -0.00106657  1
  In  In63  1  0.81125899  0.16065630  0.65414309  1
  In  In64  1  -0.01635098  0.32066298  0.02497247  1
  In  In65  1  -0.01500053  0.52752268  0.48327155  1
  In  In66  1  0.15081810  0.83175382  0.64716618  1
  In  In67  1  0.32944028  0.00668691  0.67459760  1
  In  In68  1  0.67251300  0.83192902  0.17425774  1
  In  In69  1  0.82987705  0.48903092  0.68850485  1
  In  In70  1  0.34043654  0.32663321  0.00763784  1
  In  In71  1  0.50045147  0.50113442  0.35133774  1
  Te  Te72  1  0.08272980  0.12974954  0.19063831  1
  Te  Te73  1  0.07696169  0.03596868  0.41551449  1
  Te  Te74  1  0.08688382  0.10507247  0.73389372  1
  Te  Te75  1  0.07226452  0.42654645  0.06736355  1
  Te  Te76  1  0.05018913  0.41823971  0.40088812  1
  Te  Te77  1  0.09684523  0.42760129  0.75166210  1
  Te  Te78  1  0.08159985  0.75429602  0.08133798  1
  Te  Te79  1  0.06853186  0.76067690  0.42315509  1
  Te  Te80  1  0.08651755  0.75628942  0.76766547  1
  Te  Te81  1  0.40232801  0.06249887  0.07672828  1
  Te  Te82  1  0.46205089  0.09635535  0.41359394  1
  Te  Te83  1  0.40389407  0.10309666  0.75449875  1
  Te  Te84  1  0.42810168  0.41210347  0.08750040  1
  Te  Te85  1  0.39603347  0.40585652  0.41130080  1
  Te  Te86  1  0.42598692  0.41560452  0.76265807  1
  Te  Te87  1  0.40810360  0.76269431  0.09875658  1
  Te  Te88  1  0.41086545  0.73468262  0.42055581  1
  Te  Te89  1  0.43763045  0.72716691  0.74271027  1
  Te  Te90  1  0.74323642  0.07299230  0.07221919  1
  Te  Te91  1  0.72985395  0.09655066  0.43087046  1
  Te  Te92  1  0.74975544  0.06092310  0.75078817  1
  Te  Te93  1  0.77189643  0.40675278  0.11218291  1
  Te  Te94  1  0.77174045  0.41150834  0.40663983  1
  Te  Te95  1  0.72391144  0.39260615  0.72875049  1
  Te  Te96  1  0.73550752  0.74176420  0.07761484  1
  Te  Te97  1  0.73866434  0.78607005  0.41631002  1
  Te  Te98  1  0.77264013  0.76544861  0.74353114  1
  Te  Te99  1  0.11022259  0.26761167  0.24088545  1
  Te  Te100  1  0.08691811  0.24394773  0.55835520  1
  Te  Te101  1  0.07945891  0.22513825  0.95126826  1
  Te  Te102  1  0.08044436  0.59416174  0.24848460  1
  Te  Te103  1  0.09260048  0.57806544  0.57679784  1
  Te  Te104  1  0.09976225  0.58691505  0.93392558  1
  Te  Te105  1  0.08265754  0.93916286  0.23542710  1
  Te  Te106  1  0.09360860  0.94109903  0.56642211  1
  Te  Te107  1  0.05086518  0.93531104  0.88833993  1
  Te  Te108  1  0.44570616  0.23325423  0.24583578  1
  Te  Te109  1  0.41933916  0.25420850  0.59712555  1
  Te  Te110  1  0.41557618  0.23684944  0.91089586  1
  Te  Te111  1  0.41134761  0.58168392  0.25666637  1
  Te  Te112  1  0.42893570  0.57070345  0.58530934  1
  Te  Te113  1  0.42876129  0.56870212  0.91797716  1
  Te  Te114  1  0.42693306  0.90070806  0.26380740  1
  Te  Te115  1  0.44271910  0.97058017  0.57533141  1
  Te  Te116  1  0.44004643  0.91358051  0.90708360  1
  Te  Te117  1  0.74238025  0.24732390  0.23880611  1
  Te  Te118  1  0.72513201  0.25200990  0.57894061  1
  Te  Te119  1  0.72091968  0.26526964  0.95147621  1
  Te  Te120  1  0.72506503  0.60075684  0.27886832  1
  Te  Te121  1  0.76705398  0.57060029  0.57558749  1
  Te  Te122  1  0.75568480  0.57573181  0.93186338  1
  Te  Te123  1  0.74206900  0.93367295  0.26575819  1
  Te  Te124  1  0.76023713  0.91636795  0.57710238  1
  Te  Te125  1  0.76861062  0.91997025  0.91026097  1
  Te  Te126  1  0.24567602  0.24774156  0.08775544  1
  Te  Te127  1  0.25384549  0.23661231  0.40289372  1
  Te  Te128  1  0.24349463  0.26162051  0.76825524  1
  Te  Te129  1  0.24535328  0.59288709  0.10151226  1
  Te  Te130  1  0.22453249  0.56707429  0.39524598  1
  Te  Te131  1  0.25183223  0.57729092  0.74498057  1
  Te  Te132  1  0.21504301  0.93632749  0.07680627  1
  Te  Te133  1  0.26838689  0.90295234  0.43602377  1
  Te  Te134  1  0.25396773  0.89801717  0.75084737  1
  Te  Te135  1  0.54839582  0.24963460  0.10935159  1
  Te  Te136  1  0.60622287  0.24969352  0.42573137  1
  Te  Te137  1  0.58697375  0.23341275  0.74215001  1
  Te  Te138  1  0.59220534  0.57809650  0.08071386  1
  Te  Te139  1  0.62025598  0.59416501  0.38595549  1
  Te  Te140  1  0.59065500  0.57027109  0.75497867  1
  Te  Te141  1  0.59398962  0.91885963  0.07556250  1
  Te  Te142  1  0.52916498  0.86855354  0.50367101  1
  Te  Te143  1  0.58890510  0.90728950  0.73377161  1
  Te  Te144  1  0.91969954  0.21861544  0.10973429  1
  Te  Te145  1  0.92846421  0.22340744  0.42083831  1
  Te  Te146  1  0.90922758  0.26062427  0.73363659  1
  Te  Te147  1  0.90097761  0.58788806  0.10521402  1
  Te  Te148  1  0.89386605  0.58037065  0.37387156  1
  Te  Te149  1  0.93090150  0.59258236  0.73951504  1
  Te  Te150  1  0.93033544  0.94019192  0.07091701  1
  Te  Te151  1  0.94309998  0.95708915  0.39000101  1
  Te  Te152  1  0.97649283  0.90135191  0.74986771  1
  Te  Te153  1  0.26794703  0.06595366  0.26848886  1
  Te  Te154  1  0.25463756  0.07844351  0.56330986  1
  Te  Te155  1  0.24951388  0.08768735  0.90794953  1
  Te  Te156  1  0.22617190  0.40171466  0.23932834  1
  Te  Te157  1  0.23870277  0.41714681  0.57290180  1
  Te  Te158  1  0.23709501  0.41615243  0.93812792  1
  Te  Te159  1  0.22833989  0.77035414  0.24892788  1
  Te  Te160  1  0.25832609  0.73397880  0.60032883  1
  Te  Te161  1  0.26120960  0.76342993  0.93515105  1
  Te  Te162  1  0.59080301  0.06769844  0.26260460  1
  Te  Te163  1  0.54931292  0.08110677  0.56285549  1
  Te  Te164  1  0.59190375  0.07106541  0.91892941  1
  Te  Te165  1  0.56659744  0.42283960  0.24335143  1
  Te  Te166  1  0.55705643  0.44204661  0.57647159  1
  Te  Te167  1  0.59738932  0.39938667  0.93715083  1
  Te  Te168  1  0.57803170  0.76233002  0.26365248  1
  Te  Te169  1  0.61384654  0.72648765  0.57732989  1
  Te  Te170  1  0.58597752  0.72941017  0.90516852  1
  Te  Te171  1  0.92372506  0.10231825  0.23667833  1
  Te  Te172  1  0.92084824  0.07264348  0.60306266  1
  Te  Te173  1  0.89352904  0.09269644  0.89135093  1
  Te  Te174  1  0.89477745  0.39875762  0.22763732  1
  Te  Te175  1  0.92250858  0.41957755  0.57991906  1
  Te  Te176  1  0.91205664  0.40490319  0.89481301  1
  Te  Te177  1  0.88529336  0.75718883  0.22716888  1
  Te  Te178  1  0.90832018  0.74647254  0.56863279  1
  Te  Te179  1  0.92088404  0.75746626  0.91736759  1
