# generated using pymatgen
data_In2Te3
_symmetry_space_group_name_H-M   'P 1'
_cell_length_a   19.01671200
_cell_length_b   18.98207152
_cell_length_c   18.99068099
_cell_angle_alpha   90.00777315
_cell_angle_beta   89.99809556
_cell_angle_gamma   90.00425084
_symmetry_Int_Tables_number   1
_chemical_formula_structural   In2Te3
_chemical_formula_sum   'In72 Te108'
_cell_volume   6855.19113103
_cell_formula_units_Z   36
loop_
 _symmetry_equiv_pos_site_id
 _symmetry_equiv_pos_as_xyz
  1  'x, y, z'
loop_
 _atom_site_type_symbol
 _atom_site_label
 _atom_site_symmetry_multiplicity
 _atom_site_fract_x
 _atom_site_fract_y
 _atom_site_fract_z
 _atom_site_occupancy
  In  In0  1  0.50606928  0.15322965  0.32846106  1
  In  In1  1  0.65672272  0.50303651  0.83024548  1
  In  In2  1  0.50260491  0.82244448  -0.01381300  1
  In  In3  1  0.33666114  0.65056499  0.30987365  1
  In  In4  1  0.67417739  0.67441545  0.64973505  1
  In  In5  1  0.83772934  0.17857067  0.31709089  1
  In  In6  1  0.33644803  0.16591472  0.15312209  1
  In  In7  1  -0.00228640  0.68427702  0.33340131  1
  In  In8  1  0.16008679  0.50747632  0.34278172  1
  In  In9  1  0.17469315  0.67670171  0.81200953  1
  In  In10  1  0.51177224  0.36741844  0.50182187  1
  In  In11  1  -0.01658064  0.83739624  0.51383847  1
  In  In12  1  0.65801731  0.15930764  0.49270578  1
  In  In13  1  0.13809272  0.65627995  0.51418639  1
  In  In14  1  -0.00464932  0.50064236  0.52391319  1
  In  In15  1  0.82690146  0.83684226  0.00563645  1
  In  In16  1  -0.00685577  0.33955455  0.01492288  1
  In  In17  1  0.15765665  0.65809670  0.13200511  1
  In  In18  1  0.68525580  0.82417414  0.16805659  1
  In  In19  1  0.83990029  0.15646080  0.68487674  1
  In  In20  1  0.67857171  0.35131317  0.65014544  1
  In  In21  1  0.32554817  0.63083600  0.65146658  1
  In  In22  1  0.00685955  0.00951140  0.68826639  1
  In  In23  1  0.48897045  0.30892814  0.82749641  1
  In  In24  1  0.50779585  0.64674910  0.46179086  1
  In  In25  1  0.31649622  0.16217286  0.50618126  1
  In  In26  1  0.33132624  0.18861086  0.81723106  1
  In  In27  1  0.52255828  0.65089939  0.18020940  1
  In  In28  1  0.01030287  0.16452707  0.82625320  1
  In  In29  1  0.02496643  0.47114756  0.81544890  1
  In  In30  1  0.32920824  0.64775460  -0.02500471  1
  In  In31  1  0.49168590  0.48883837  -0.00444905  1
  In  In32  1  0.66585331  0.02111910  0.01117990  1
  In  In33  1  0.81052600  0.00081369  0.49441686  1
  In  In34  1  -0.01659413  -0.00066020  -0.01496187  1
  In  In35  1  0.33796509  0.36880034  0.67348281  1
  In  In36  1  0.81654243  0.51692170  0.68972353  1
  In  In37  1  0.49684078  0.81812902  0.66868575  1
  In  In38  1  0.33482674  0.81319774  0.49944286  1
  In  In39  1  0.18369896  0.46989411  -0.01953328  1
  In  In40  1  0.14146132  0.85124546  0.01454435  1
  In  In41  1  0.03583661  0.16568405  0.51460704  1
  In  In42  1  -0.00689521  0.02268357  0.34186348  1
  In  In43  1  0.34047733  0.33682468  0.35629372  1
  In  In44  1  0.47195929  0.17660623  -0.00536656  1
  In  In45  1  0.14759430  0.33762516  0.18331388  1
  In  In46  1  0.66373502  0.16233837  0.18248431  1
  In  In47  1  0.50735949  0.16670739  0.63762701  1
  In  In48  1  0.15888222  0.00457229  0.16649489  1
  In  In49  1  0.34905006  0.00083707  0.33496404  1
  In  In50  1  0.81133283  0.50384970  0.33796315  1
  In  In51  1  0.33137868  0.82333362  0.16092729  1
  In  In52  1  0.83245919  0.50470395  0.00745146  1
  In  In53  1  0.17942709  0.32817258  0.52622068  1
  In  In54  1  0.66748279  0.69154126  -0.01134873  1
  In  In55  1  -0.00221790  0.32313448  0.32386622  1
  In  In56  1  0.18422674  0.16633880  -0.01308948  1
  In  In57  1  0.18449143  0.86909138  0.33258792  1
  In  In58  1  -0.00976571  0.64891286  -0.00037511  1
  In  In59  1  0.82985630  0.33372334  0.16709646  1
  In  In60  1  -0.00171390  0.84078818  0.84805566  1
  In  In61  1  0.52569802  0.36089494  0.18452755  1
  In  In62  1  0.69055509  0.16281717  0.83424974  1
  In  In63  1  0.14801821  0.85154924  0.68102549  1
  In  In64  1  0.33508991  0.01325663  0.65680110  1
  In  In65  1  0.34679519  0.83512643  0.82816902  1
  In  In66  1  0.77226472  0.79507792  0.36135968  1
  In  In67  1  0.83697052  0.35554301  0.49130474  1
  In  In68  1  0.83492627  0.82424284  0.65133569  1
  In  In69  1  0.65669064  0.82767933  0.82692656  1
  In  In70  1  0.69185228  0.29912432  -0.00674059  1
  In  In71  1  0.53862015  0.87509813  0.35499279  1
  Te  Te72  1  0.08260926  0.08584277  0.06625782  1
  Te  Te73  1  0.10325770  0.08290624  0.41623458  1
  Te  Te74  1  0.11172253  0.10136298  0.73722631  1
  Te  Te75  1  0.08192674  0.43681222  0.08929615  1
  Te  Te76  1  0.07865295  0.40708085  0.42318736  1
  Te  Te77  1  0.10605383  0.38426193  0.72826426  1
  Te  Te78  1  0.05248005  0.75920150  0.09256951  1
  Te  Te79  1  0.09808316  0.77040158  0.42144376  1
  Te  Te80  1  0.05887413  0.74746270  0.74411146  1
  Te  Te81  1  0.44234677  0.07953753  0.10106792  1
  Te  Te82  1  0.42551546  0.08272287  0.43615396  1
  Te  Te83  1  0.42848266  0.09464835  0.74500120  1
  Te  Te84  1  0.41948588  0.41539335  0.10032527  1
  Te  Te85  1  0.43110017  0.44139332  0.40396377  1
  Te  Te86  1  0.44951804  0.42625839  0.74928517  1
  Te  Te87  1  0.41765743  0.72778623  0.08101525  1
  Te  Te88  1  0.41766443  0.75356886  0.38849451  1
  Te  Te89  1  0.40494856  0.72516171  0.74448428  1
  Te  Te90  1  0.75922370  0.08964689  0.09953217  1
  Te  Te91  1  0.74087738  0.08532416  0.39015404  1
  Te  Te92  1  0.73976630  0.06572340  0.73729681  1
  Te  Te93  1  0.73544347  0.41474116  0.08155818  1
  Te  Te94  1  0.72624842  0.42704837  0.43103455  1
  Te  Te95  1  0.75326713  0.40233995  0.77093856  1
  Te  Te96  1  0.77100753  0.72489611  0.09366642  1
  Te  Te97  1  0.74230926  0.71034977  0.47732634  1
  Te  Te98  1  0.75901352  0.74268088  0.75492692  1
  Te  Te99  1  0.06876222  0.22772066  0.23993540  1
  Te  Te100  1  0.06497520  0.27839374  0.60810066  1
  Te  Te101  1  0.08293339  0.25810168  0.92295318  1
  Te  Te102  1  0.07947651  0.58980772  0.24595798  1
  Te  Te103  1  0.09792468  0.55660469  0.61240946  1
  Te  Te104  1  0.09928355  0.58475191  0.91496963  1
  Te  Te105  1  0.06992654  0.91621889  0.24988797  1
  Te  Te106  1  0.08061811  0.93537991  0.57614712  1
  Te  Te107  1  0.09765562  0.94094091  0.90127363  1
  Te  Te108  1  0.42230078  0.25591279  0.25075485  1
  Te  Te109  1  0.40874646  0.26370029  0.57583487  1
  Te  Te110  1  0.38293945  0.28785050  0.93621478  1
  Te  Te111  1  0.41778943  0.56006900  0.22987326  1
  Te  Te112  1  0.41620910  0.57316932  0.55170660  1
  Te  Te113  1  0.40405709  0.55173692  0.89486351  1
  Te  Te114  1  0.42441752  0.90238696  0.24981453  1
  Te  Te115  1  0.41772397  0.91208018  0.57772152  1
  Te  Te116  1  0.41890649  0.92152599  0.92028248  1
  Te  Te117  1  0.73142160  0.27154754  0.26405003  1
  Te  Te118  1  0.75607051  0.24172262  0.57452562  1
  Te  Te119  1  0.79458593  0.22104164  0.92211393  1
  Te  Te120  1  0.70913034  0.58618050  0.26502046  1
  Te  Te121  1  0.75941237  0.58266056  0.56530649  1
  Te  Te122  1  0.74998677  0.58942997  0.91144518  1
  Te  Te123  1  0.75047384  0.90757750  0.26923531  1
  Te  Te124  1  0.73172124  0.89933336  0.57210546  1
  Te  Te125  1  0.73580332  0.91962996  0.91906838  1
  Te  Te126  1  0.24227758  0.26428146  0.08844349  1
  Te  Te127  1  0.23336582  0.24440985  0.41036758  1
  Te  Te128  1  0.23341826  0.29991332  0.76449054  1
  Te  Te129  1  0.26068011  0.56289548  0.08041586  1
  Te  Te130  1  0.24765263  0.60009436  0.42319278  1
  Te  Te131  1  0.25191539  0.56452253  0.75938135  1
  Te  Te132  1  0.25697998  0.92635544  0.07975163  1
  Te  Te133  1  0.26157002  0.93560862  0.44233836  1
  Te  Te134  1  0.25364442  0.92936935  0.75468118  1
  Te  Te135  1  0.57626510  0.25211140  0.08381850  1
  Te  Te136  1  0.57459507  0.25827375  0.41444376  1
  Te  Te137  1  0.59829004  0.24613112  0.73066719  1
  Te  Te138  1  0.59117456  0.58409680  0.06337837  1
  Te  Te139  1  0.59809248  0.56564200  0.37474123  1
  Te  Te140  1  0.58714752  0.57715063  0.72314847  1
  Te  Te141  1  0.59220792  0.90264727  0.07678349  1
  Te  Te142  1  0.61640285  0.92591611  0.46776412  1
  Te  Te143  1  0.56980666  0.91474364  0.74940578  1
  Te  Te144  1  0.92412443  0.24385499  0.10121763  1
  Te  Te145  1  0.92150859  0.23758553  0.43231034  1
  Te  Te146  1  0.92516313  0.25533041  0.74673183  1
  Te  Te147  1  0.91538219  0.57784724  0.10307494  1
  Te  Te148  1  0.92569953  0.57537124  0.41310236  1
  Te  Te149  1  0.92819957  0.57046023  0.76832937  1
  Te  Te150  1  0.91801340  0.91675443  0.08613934  1
  Te  Te151  1  0.90457366  0.91410098  0.41163382  1
  Te  Te152  1  0.90797667  0.91618346  0.75275854  1
  Te  Te153  1  0.25459197  0.08574185  0.25275386  1
  Te  Te154  1  0.23112626  0.11140045  0.61598452  1
  Te  Te155  1  0.28578824  0.08949669  0.91437103  1
  Te  Te156  1  0.24997419  0.41756152  0.26207973  1
  Te  Te157  1  0.27253306  0.43496298  0.55975125  1
  Te  Te158  1  0.26940749  0.38919243  0.89283731  1
  Te  Te159  1  0.22789354  0.74660222  0.24317796  1
  Te  Te160  1  0.23575608  0.75592631  0.59943160  1
  Te  Te161  1  0.23542869  0.76301230  0.92486691  1
  Te  Te162  1  0.57482331  0.05940475  0.24033085  1
  Te  Te163  1  0.58132263  0.05776444  0.56882675  1
  Te  Te164  1  0.57778873  0.10027523  0.91589012  1
  Te  Te165  1  0.60496690  0.46770022  0.25169768  1
  Te  Te166  1  0.58650150  0.45335697  0.59666356  1
  Te  Te167  1  0.59013201  0.38693701  0.91772227  1
  Te  Te168  1  0.58439242  0.76143731  0.26353098  1
  Te  Te169  1  0.57154227  0.74336605  0.55933853  1
  Te  Te170  1  0.56072790  0.72517276  0.88706846  1
  Te  Te171  1  0.91277614  0.08353630  0.23548365  1
  Te  Te172  1  0.91987250  0.07194514  0.57400446  1
  Te  Te173  1  0.90413116  0.08916971  0.89889580  1
  Te  Te174  1  0.91468401  0.42545857  0.25302785  1
  Te  Te175  1  0.90465193  0.41669336  0.60956926  1
  Te  Te176  1  0.91659908  0.42067165  0.91377131  1
  Te  Te177  1  0.88252177  0.75101311  0.27317792  1
  Te  Te178  1  0.92006772  0.72618811  0.58238265  1
  Te  Te179  1  0.90615056  0.74289816  0.91531939  1
