# generated using pymatgen
data_In2Te3
_symmetry_space_group_name_H-M   'P 1'
_cell_length_a   19.02470325
_cell_length_b   19.01376959
_cell_length_c   18.99350702
_cell_angle_alpha   90.06681997
_cell_angle_beta   90.35410516
_cell_angle_gamma   90.07344190
_symmetry_Int_Tables_number   1
_chemical_formula_structural   In2Te3
_chemical_formula_sum   'In72 Te108'
_cell_volume   6870.40485085
_cell_formula_units_Z   36
loop_
 _symmetry_equiv_pos_site_id
 _symmetry_equiv_pos_as_xyz
  1  'x, y, z'
loop_
 _atom_site_type_symbol
 _atom_site_label
 _atom_site_symmetry_multiplicity
 _atom_site_fract_x
 _atom_site_fract_y
 _atom_site_fract_z
 _atom_site_occupancy
  In  In0  1  0.52034965  0.33900856  0.15365330  1
  In  In1  1  0.82702885  0.50764890  0.33877929  1
  In  In2  1  0.82232360  0.86586471  -0.02473589  1
  In  In3  1  0.17246722  -0.02184275  0.81824957  1
  In  In4  1  0.34176294  -0.03212188  0.34627424  1
  In  In5  1  0.33260860  0.65043342  0.67422410  1
  In  In6  1  0.01270841  0.18715645  0.18674769  1
  In  In7  1  0.39949505  0.30105209  0.68513336  1
  In  In8  1  0.82673264  0.32813514  0.82797911  1
  In  In9  1  0.48896963  0.51501438  0.33059048  1
  In  In10  1  0.82336536  0.17054982  0.69271689  1
  In  In11  1  0.81260766  0.10174319  -0.07341739  1
  In  In12  1  0.64353973  0.34192482  0.64844269  1
  In  In13  1  0.68955433  0.81798700  0.52004175  1
  In  In14  1  0.66952055  0.64867304  0.32294735  1
  In  In15  1  0.16331273  0.81946490  0.33469848  1
  In  In16  1  0.32328090  0.83899645  0.16610363  1
  In  In17  1  0.00384971  0.66926404  0.01559167  1
  In  In18  1  0.48350596  0.66873682  0.16207702  1
  In  In19  1  0.34396015  0.17910160  0.83287398  1
  In  In20  1  0.30911639  0.35032045  0.34557171  1
  In  In21  1  -0.00360003  0.49811521  0.83885661  1
  In  In22  1  0.17345043  0.10578685  0.41787888  1
  In  In23  1  0.50841791  0.68065033  0.85093885  1
  In  In24  1  0.15175973  0.33797840  0.16595673  1
  In  In25  1  -0.00087909  0.51571043  0.16422251  1
  In  In26  1  0.66926843  0.30254836  0.34519748  1
  In  In27  1  0.51234012  -0.02130570  0.53170913  1
  In  In28  1  0.34789363  0.00248718  0.00483998  1
  In  In29  1  0.64262893  0.00966135  0.32770067  1
  In  In30  1  0.48399869  0.83924209  0.32276699  1
  In  In31  1  0.32509794  0.48610786  0.51641552  1
  In  In32  1  0.17576855  0.30721381  0.50337966  1
  In  In33  1  0.49893078  0.00417134  0.80987115  1
  In  In34  1  0.87242709  0.66373223  0.50495977  1
  In  In35  1  0.65933738  0.49283994  0.48997232  1
  In  In36  1  0.84006445  0.17799955  0.31832460  1
  In  In37  1  0.33110787  0.83534149  0.82018254  1
  In  In38  1  0.16186399  0.66510808  0.49441863  1
  In  In39  1  0.16279593  0.51807021  0.69299012  1
  In  In40  1  -0.00042775  -0.00465348  0.67158425  1
  In  In41  1  0.66708569  0.84747746  0.13665179  1
  In  In42  1  0.02053290  0.83101652  0.17783701  1
  In  In43  1  0.85376430  -0.00619885  0.16615452  1
  In  In44  1  0.67904353  0.68128632  -0.01406799  1
  In  In45  1  0.48153609  0.48063811  -0.01807999  1
  In  In46  1  0.00795334  0.32198906  0.34326133  1
  In  In47  1  0.35345181  0.82258772  0.51933278  1
  In  In48  1  0.64494717  0.01959381  -0.01095507  1
  In  In49  1  0.00007347  0.33334961  0.66844360  1
  In  In50  1  0.81725095  0.66912324  0.80975072  1
  In  In51  1  0.19976622  0.49653239  -0.04655560  1
  In  In52  1  0.01773564  0.69494497  0.66641853  1
  In  In53  1  0.30791824  0.68608044  -0.00638114  1
  In  In54  1  0.64216779  0.65714418  0.65273882  1
  In  In55  1  0.83680184  -0.01452899  0.49803996  1
  In  In56  1  -0.00288497  0.32307062  -0.00507488  1
  In  In57  1  0.81273382  0.83456848  0.68381985  1
  In  In58  1  0.63623613  0.49582849  0.86574825  1
  In  In59  1  0.19643622  0.01581180  0.16440935  1
  In  In60  1  0.85788193  0.82662354  0.32415541  1
  In  In61  1  0.14892391  0.50976367  0.32282036  1
  In  In62  1  0.17459218  0.13758110  0.63993399  1
  In  In63  1  0.83842967  0.47358092  0.65427408  1
  In  In64  1  0.00556825  0.84226114  0.82672879  1
  In  In65  1  0.65618906  0.50107506  0.15918296  1
  In  In66  1  0.17688463  0.17715181  0.00895675  1
  In  In67  1  0.49495668  0.16586341  0.33755765  1
  In  In68  1  0.32760825  0.18014413  0.17711323  1
  In  In69  1  0.81313057  0.35055707  0.15566348  1
  In  In70  1  0.64743263  0.19823627  0.82583356  1
  In  In71  1  0.66583389  0.15447219  0.52359231  1
  Te  Te72  1  0.08538921  0.09177450  0.09379433  1
  Te  Te73  1  0.05556771  0.03013983  0.46159773  1
  Te  Te74  1  0.08930201  0.08767641  0.75409741  1
  Te  Te75  1  0.08401410  0.42704251  0.06381205  1
  Te  Te76  1  0.09576364  0.41288061  0.42550483  1
  Te  Te77  1  0.09016495  0.40498028  0.76742824  1
  Te  Te78  1  0.10244501  0.74923861  0.08748284  1
  Te  Te79  1  0.06843965  0.75183323  0.42302021  1
  Te  Te80  1  0.10903148  0.76382146  0.75803428  1
  Te  Te81  1  0.41605670  0.12005865  0.07182954  1
  Te  Te82  1  0.43630643  0.05743920  0.42520883  1
  Te  Te83  1  0.40169988  0.08627367  0.73534612  1
  Te  Te84  1  0.41787539  0.42722554  0.10107663  1
  Te  Te85  1  0.42259938  0.41566886  0.42245856  1
  Te  Te86  1  0.40180554  0.41112729  0.78313256  1
  Te  Te87  1  0.41449728  0.76561034  0.07042064  1
  Te  Te88  1  0.40146811  0.74763294  0.40053966  1
  Te  Te89  1  0.42831692  0.74909208  0.74278160  1
  Te  Te90  1  0.76594553  0.07078702  0.07210133  1
  Te  Te91  1  0.74778406  0.08539518  0.40984909  1
  Te  Te92  1  0.74395000  0.08786643  0.78718369  1
  Te  Te93  1  0.71598347  0.40859249  0.06301065  1
  Te  Te94  1  0.75788513  0.40100223  0.42112950  1
  Te  Te95  1  0.73416795  0.42390956  0.75189040  1
  Te  Te96  1  0.77194114  0.76009452  0.07709300  1
  Te  Te97  1  0.76078714  0.73375097  0.41329484  1
  Te  Te98  1  0.70573892  0.75526049  0.75537715  1
  Te  Te99  1  0.11973937  0.24176950  0.27951818  1
  Te  Te100  1  0.06943770  0.23213585  0.57811352  1
  Te  Te101  1  0.08978338  0.24593766  0.91376115  1
  Te  Te102  1  0.09680882  0.60604386  0.22547808  1
  Te  Te103  1  0.07472269  0.58053529  0.58642081  1
  Te  Te104  1  0.08625678  0.59297718  0.91253396  1
  Te  Te105  1  0.10473385  0.93395470  0.25278417  1
  Te  Te106  1  0.09696698  0.94494495  0.57591387  1
  Te  Te107  1  0.06761244  0.94296177  0.91986510  1
  Te  Te108  1  0.41634592  0.27481845  0.26073426  1
  Te  Te109  1  0.41800568  0.25293069  0.54992889  1
  Te  Te110  1  0.40806347  0.29856995  0.89865592  1
  Te  Te111  1  0.39587076  0.59755000  0.25360388  1
  Te  Te112  1  0.42092667  0.57266626  0.58674448  1
  Te  Te113  1  0.40655814  0.59335375  0.91723226  1
  Te  Te114  1  0.42554007  0.93793557  0.22461730  1
  Te  Te115  1  0.40473348  0.92348322  0.61679608  1
  Te  Te116  1  0.42405600  0.91624879  0.91102263  1
  Te  Te117  1  0.73665874  0.23927929  0.22611880  1
  Te  Te118  1  0.75523697  0.25851519  0.59007050  1
  Te  Te119  1  0.75346840  0.24347613  0.92810785  1
  Te  Te120  1  0.76437958  0.58580858  0.22459429  1
  Te  Te121  1  0.75777011  0.58472064  0.57672295  1
  Te  Te122  1  0.75792359  0.57552999  0.91214881  1
  Te  Te123  1  0.75012376  0.92121636  0.25297036  1
  Te  Te124  1  0.73670289  0.93729849  0.60057719  1
  Te  Te125  1  0.70215607  0.91476859  0.89383461  1
  Te  Te126  1  0.26326754  0.27847596  0.08080161  1
  Te  Te127  1  0.30034946  0.23997791  0.45102462  1
  Te  Te128  1  0.26224654  0.23709724  0.71736798  1
  Te  Te129  1  0.25986132  0.56792203  0.06581210  1
  Te  Te130  1  0.25201316  0.57413032  0.41633890  1
  Te  Te131  1  0.25133074  0.59202762  0.78215002  1
  Te  Te132  1  0.24022592  0.91410625  0.06283348  1
  Te  Te133  1  0.24800292  0.89897496  0.43881595  1
  Te  Te134  1  0.26892457  0.92688925  0.71959231  1
  Te  Te135  1  0.54043840  0.21169740  0.08848566  1
  Te  Te136  1  0.57210571  0.24697549  0.44602891  1
  Te  Te137  1  0.55089143  0.25632076  0.72604871  1
  Te  Te138  1  0.57886817  0.59536181  0.06965387  1
  Te  Te139  1  0.57244402  0.60145658  0.42609283  1
  Te  Te140  1  0.56842112  0.57453765  0.75741232  1
  Te  Te141  1  0.56976819  0.94353162  0.08969296  1
  Te  Te142  1  0.59527046  0.89871924  0.41893993  1
  Te  Te143  1  0.60667298  0.91244429  0.77341669  1
  Te  Te144  1  0.91156055  0.24871730  0.09384101  1
  Te  Te145  1  0.92198655  0.23666311  0.42361167  1
  Te  Te146  1  0.93354255  0.24005646  0.77006531  1
  Te  Te147  1  0.90608418  0.57556179  0.06927511  1
  Te  Te148  1  0.93523183  0.58087035  0.40377038  1
  Te  Te149  1  0.92000117  0.58496889  0.73458431  1
  Te  Te150  1  0.93071513  0.90419908  0.07433847  1
  Te  Te151  1  0.93525348  0.91568331  0.41297422  1
  Te  Te152  1  0.89638573  0.93088116  0.76677117  1
  Te  Te153  1  0.26249006  0.08833238  0.28386131  1
  Te  Te154  1  0.25703001  0.07434679  0.53470108  1
  Te  Te155  1  0.25067927  0.07924392  0.91494605  1
  Te  Te156  1  0.24697162  0.43335250  0.23599699  1
  Te  Te157  1  0.22642470  0.41227642  0.60100716  1
  Te  Te158  1  0.28672995  0.39742525  0.88664902  1
  Te  Te159  1  0.27249877  0.74631218  0.26715694  1
  Te  Te160  1  0.24493140  0.74411930  0.59271861  1
  Te  Te161  1  0.22837601  0.76643730  0.89894747  1
  Te  Te162  1  0.58221652  0.10624249  0.23479455  1
  Te  Te163  1  0.58123162  0.07911703  0.61412192  1
  Te  Te164  1  0.55557426  0.11036176  0.90620094  1
  Te  Te165  1  0.60071973  0.42357672  0.27701355  1
  Te  Te166  1  0.55874356  0.44261093  0.58330282  1
  Te  Te167  1  0.56875772  0.37756527  0.92105177  1
  Te  Te168  1  0.59267239  0.75272883  0.24303596  1
  Te  Te169  1  0.56931619  0.75856911  0.57699791  1
  Te  Te170  1  0.58062699  0.77674724  0.93659538  1
  Te  Te171  1  0.93777463  0.07825001  0.26148303  1
  Te  Te172  1  0.89959554  0.08454563  0.59480378  1
  Te  Te173  1  0.93790052  0.03212936  0.90637909  1
  Te  Te174  1  0.91878372  0.40602611  0.25207869  1
  Te  Te175  1  0.92800537  0.40687354  0.56353111  1
  Te  Te176  1  0.90160453  0.41853740  0.92414215  1
  Te  Te177  1  0.92788899  0.73492205  0.23860344  1
  Te  Te178  1  0.91912975  0.78085363  0.58985831  1
  Te  Te179  1  0.90366648  0.75310110  0.90223436  1
