# generated using pymatgen
data_In2Te3
_symmetry_space_group_name_H-M   'P 1'
_cell_length_a   18.78324237
_cell_length_b   18.77124729
_cell_length_c   18.78753671
_cell_angle_alpha   89.93619098
_cell_angle_beta   90.04080356
_cell_angle_gamma   90.04091534
_symmetry_Int_Tables_number   1
_chemical_formula_structural   In2Te3
_chemical_formula_sum   'In72 Te108'
_cell_volume   6624.19404123
_cell_formula_units_Z   36
loop_
 _symmetry_equiv_pos_site_id
 _symmetry_equiv_pos_as_xyz
  1  'x, y, z'
loop_
 _atom_site_type_symbol
 _atom_site_label
 _atom_site_symmetry_multiplicity
 _atom_site_fract_x
 _atom_site_fract_y
 _atom_site_fract_z
 _atom_site_occupancy
  In  In0  1  -0.00064788  0.18340109  0.49790975  1
  In  In1  1  0.82999214  0.68738501  0.81653111  1
  In  In2  1  0.00911461  0.67538367  0.66357698  1
  In  In3  1  0.33538928  0.66553268  0.00359226  1
  In  In4  1  0.50310190  0.00762549  0.48742722  1
  In  In5  1  0.83988552  0.17401452  0.35483679  1
  In  In6  1  0.67392963  0.65450189  0.03144232  1
  In  In7  1  0.66177356  0.66049906  0.69130659  1
  In  In8  1  0.84722652  0.01797040  0.81552683  1
  In  In9  1  0.15521965  0.84440402  0.66947878  1
  In  In10  1  0.68075774  0.83818004  0.49983368  1
  In  In11  1  0.16166245  0.34149659  0.51938846  1
  In  In12  1  -0.00121124  0.00783641  0.32332170  1
  In  In13  1  0.66275152  0.82619965  0.81829868  1
  In  In14  1  0.49147928  0.82626775  0.02182147  1
  In  In15  1  0.65032151  0.31032376  0.02368861  1
  In  In16  1  0.48618544  0.63901118  0.49713439  1
  In  In17  1  0.01460073  0.83527994  0.15546574  1
  In  In18  1  0.34007372  0.30876011  0.31434640  1
  In  In19  1  0.34022566  0.50265653  0.15328089  1
  In  In20  1  0.49277084  0.15565454  0.32313170  1
  In  In21  1  0.16922736  0.16661112  0.32615355  1
  In  In22  1  0.03623727  0.85729342  0.51283247  1
  In  In23  1  0.49001127  0.32858039  0.53141497  1
  In  In24  1  0.49562082  0.16260477  0.65861499  1
  In  In25  1  0.65960072  0.02126232  -0.00546569  1
  In  In26  1  0.49056561  0.47717119  -0.00013103  1
  In  In27  1  -0.00149712  0.64958429  0.33360929  1
  In  In28  1  0.31838780  0.19434420  0.83534162  1
  In  In29  1  0.31299933  0.67637719  0.31732175  1
  In  In30  1  0.86558492  0.85143792  -0.01369206  1
  In  In31  1  0.65372760  0.50315872  0.84402712  1
  In  In32  1  0.84549897  0.30871965  0.82145272  1
  In  In33  1  0.84037876  0.67149287  0.49841620  1
  In  In34  1  0.04119047  0.66136734  0.00936620  1
  In  In35  1  0.33259553  0.00291679  0.32893756  1
  In  In36  1  0.31231553  0.49122806  0.49525998  1
  In  In37  1  0.00394935  0.17212526  0.16104439  1
  In  In38  1  0.50400007  -0.01021920  0.84241980  1
  In  In39  1  0.01230238  0.00137603  -0.00336260  1
  In  In40  1  0.48786964  0.63891036  0.85539215  1
  In  In41  1  0.03005368  0.15136343  0.82086271  1
  In  In42  1  0.51892260  0.49017825  0.32854295  1
  In  In43  1  0.65281717  0.84243111  0.16850034  1
  In  In44  1  0.16460903  0.31724958  0.15824778  1
  In  In45  1  0.00055132  0.48059622  0.52311329  1
  In  In46  1  0.02427926  0.49163117  0.83611159  1
  In  In47  1  0.32636986  0.84539614  0.49880993  1
  In  In48  1  0.52182317  0.84123094  0.68798889  1
  In  In49  1  0.81248057  0.84540000  0.32208292  1
  In  In50  1  0.30741162  0.02651641  0.64468810  1
  In  In51  1  0.80509887  0.65233166  0.18476114  1
  In  In52  1  0.84682179  0.32455816  0.16447860  1
  In  In53  1  0.85855422  0.49129653  0.00452626  1
  In  In54  1  0.16941633  0.83229598  0.32920875  1
  In  In55  1  0.64265031  0.50204919  0.17868253  1
  In  In56  1  0.17877422  0.18140178  -0.00873406  1
  In  In57  1  0.67048628  0.32308734  0.65403830  1
  In  In58  1  0.16616393  0.48507442  0.68297900  1
  In  In59  1  0.31514638  0.64259770  0.66810900  1
  In  In60  1  0.68308579  0.17842725  0.49296619  1
  In  In61  1  0.65216009  0.15219981  0.16614237  1
  In  In62  1  0.32168164  0.82876064  0.82179948  1
  In  In63  1  0.83914647  0.48837186  0.64457427  1
  In  In64  1  0.66842380  0.16520508  0.83354075  1
  In  In65  1  0.49737706  0.83120330  0.29888412  1
  In  In66  1  0.02173264  0.48690743  0.16806551  1
  In  In67  1  0.84348268  0.02152788  0.50368895  1
  In  In68  1  0.15618404  0.51751383  0.33186365  1
  In  In69  1  0.66973757  0.35887314  0.34478574  1
  In  In70  1  0.31546576  0.01309183  0.05902423  1
  In  In71  1  0.02171596  0.86095544  0.83049479  1
  Te  Te72  1  0.10303131  0.08588807  0.08675640  1
  Te  Te73  1  0.08573426  0.08167468  0.42304240  1
  Te  Te74  1  0.10609382  0.05352939  0.73914548  1
  Te  Te75  1  0.09698718  0.41257645  0.06665536  1
  Te  Te76  1  0.07924544  0.41156572  0.41020751  1
  Te  Te77  1  0.07040126  0.38600142  0.74122141  1
  Te  Te78  1  0.12054695  0.78261633  0.05943445  1
  Te  Te79  1  0.08395480  0.74369443  0.42055914  1
  Te  Te80  1  0.09758157  0.74092254  0.76781599  1
  Te  Te81  1  0.42262959  0.11102680  0.08169638  1
  Te  Te82  1  0.39642536  0.09863954  0.43185514  1
  Te  Te83  1  0.41089659  0.07674543  0.75490765  1
  Te  Te84  1  0.40185102  0.38732350  0.08164441  1
  Te  Te85  1  0.41108218  0.41065450  0.41108002  1
  Te  Te86  1  0.38538452  0.38274779  0.79568959  1
  Te  Te87  1  0.40737105  0.74326614  0.10920980  1
  Te  Te88  1  0.41596550  0.75334251  0.41662713  1
  Te  Te89  1  0.42223168  0.73766166  0.74666442  1
  Te  Te90  1  0.75558285  0.09857364  0.07470079  1
  Te  Te91  1  0.73893745  0.06934694  0.40196611  1
  Te  Te92  1  0.75752041  0.10290256  0.73368656  1
  Te  Te93  1  0.73964766  0.42959476  0.07744340  1
  Te  Te94  1  0.76735002  0.44960135  0.40467200  1
  Te  Te95  1  0.75558165  0.42276534  0.76214496  1
  Te  Te96  1  0.76585805  0.76815481  0.07721244  1
  Te  Te97  1  0.74076869  0.73622798  0.40146980  1
  Te  Te98  1  0.76253115  0.77548455  0.71332686  1
  Te  Te99  1  0.06787662  0.26307194  0.26508510  1
  Te  Te100  1  0.09804759  0.23294964  0.60517126  1
  Te  Te101  1  0.09357099  0.26423370  0.89919319  1
  Te  Te102  1  0.09861040  0.61032300  0.22527605  1
  Te  Te103  1  0.09642766  0.58309882  0.58125810  1
  Te  Te104  1  0.11711815  0.55992879  0.93125822  1
  Te  Te105  1  0.09921689  0.93417605  0.23741491  1
  Te  Te106  1  0.07792390  0.96313961  0.61145337  1
  Te  Te107  1  0.11529691  0.91603921  0.93101728  1
  Te  Te108  1  0.38978345  0.20113188  0.22067445  1
  Te  Te109  1  0.38817703  0.24301588  0.59483541  1
  Te  Te110  1  0.41273863  0.28752611  0.90770464  1
  Te  Te111  1  0.41629073  0.58332572  0.25816996  1
  Te  Te112  1  0.41351447  0.54977440  0.59722279  1
  Te  Te113  1  0.38570390  0.54323348  0.90927871  1
  Te  Te114  1  0.40661017  0.92372320  0.22823829  1
  Te  Te115  1  0.41858568  0.91892775  0.59754422  1
  Te  Te116  1  0.40552202  0.90890233  0.92548844  1
  Te  Te117  1  0.74242413  0.25495852  0.25558953  1
  Te  Te118  1  0.77610318  0.26664725  0.56744513  1
  Te  Te119  1  0.75436871  0.24704094  0.93030454  1
  Te  Te120  1  0.74978651  0.54575144  0.27827734  1
  Te  Te121  1  0.74160770  0.58739106  0.58215710  1
  Te  Te122  1  0.75892299  0.59116745  0.91565009  1
  Te  Te123  1  0.74691615  0.93918008  0.23071287  1
  Te  Te124  1  0.75584430  0.93237754  0.58414394  1
  Te  Te125  1  0.74839534  0.91760179  0.91237296  1
  Te  Te126  1  0.27405643  0.26665518  0.07107242  1
  Te  Te127  1  0.24803917  0.25482894  0.42290082  1
  Te  Te128  1  0.20608783  0.26837433  0.76732739  1
  Te  Te129  1  0.23808834  0.57593629  0.07599181  1
  Te  Te130  1  0.23681267  0.60526698  0.42874425  1
  Te  Te131  1  0.23916545  0.57685595  0.77507694  1
  Te  Te132  1  0.23142778  0.89391821  0.07997013  1
  Te  Te133  1  0.23116577  0.93700073  0.42643106  1
  Te  Te134  1  0.24116474  0.94119584  0.75553047  1
  Te  Te135  1  0.54469045  0.22298111  0.08513204  1
  Te  Te136  1  0.57192426  0.25266221  0.41519194  1
  Te  Te137  1  0.57474971  0.25585125  0.75051020  1
  Te  Te138  1  0.55099429  0.58790513  0.08934861  1
  Te  Te139  1  0.59506475  0.57451276  0.42292559  1
  Te  Te140  1  0.55645301  0.56020431  0.74227391  1
  Te  Te141  1  0.56682094  0.94070024  0.08715630  1
  Te  Te142  1  0.58249324  0.90833272  0.40549302  1
  Te  Te143  1  0.61222151  0.95065939  0.74232917  1
  Te  Te144  1  0.92935047  0.25571249  0.06492553  1
  Te  Te145  1  0.91210356  0.28091827  0.42485896  1
  Te  Te146  1  0.91888417  0.21133891  0.73501025  1
  Te  Te147  1  0.91847046  0.60195371  0.09018800  1
  Te  Te148  1  0.91223653  0.55967971  0.42189655  1
  Te  Te149  1  0.91864340  0.57790966  0.74895517  1
  Te  Te150  1  0.91536258  0.93889053  0.09963511  1
  Te  Te151  1  0.92208331  0.90837882  0.41294983  1
  Te  Te152  1  0.91704397  0.91152184  0.74110213  1
  Te  Te153  1  0.25450093  0.08945436  0.23135134  1
  Te  Te154  1  0.21237727  0.12529209  0.59423105  1
  Te  Te155  1  0.26726258  0.07830400  0.92325457  1
  Te  Te156  1  0.24691298  0.41950966  0.25679298  1
  Te  Te157  1  0.27161990  0.39860854  0.60929984  1
  Te  Te158  1  0.25520766  0.36449710  0.87228082  1
  Te  Te159  1  0.25838655  0.77641125  0.22211909  1
  Te  Te160  1  0.24359222  0.75105410  0.58561328  1
  Te  Te161  1  0.24502663  0.74373667  0.91391188  1
  Te  Te162  1  0.58195145  0.05858631  0.25743231  1
  Te  Te163  1  0.59876531  0.08290769  0.57919389  1
  Te  Te164  1  0.55614944  0.10866135  0.92199297  1
  Te  Te165  1  0.56444993  0.38221918  0.23148863  1
  Te  Te166  1  0.59300858  0.42271166  0.57698041  1
  Te  Te167  1  0.57941943  0.38923099  0.91020501  1
  Te  Te168  1  0.59345389  0.73209364  0.24637907  1
  Te  Te169  1  0.57617505  0.74395380  0.58219767  1
  Te  Te170  1  0.58191069  0.74486271  0.92011299  1
  Te  Te171  1  0.90183282  0.09133636  0.24242554  1
  Te  Te172  1  0.92007875  0.10596601  0.60025807  1
  Te  Te173  1  0.92151856  0.09721725  0.92150371  1
  Te  Te174  1  0.91156414  0.42889745  0.24662832  1
  Te  Te175  1  0.92443456  0.37669668  0.59847886  1
  Te  Te176  1  0.93314735  0.39529095  0.91669283  1
  Te  Te177  1  0.92092549  0.75342713  0.24869228  1
  Te  Te178  1  0.92585186  0.77016047  0.57891577  1
  Te  Te179  1  0.93717471  0.73581679  0.91507729  1
