# generated using pymatgen
data_In2Te3
_symmetry_space_group_name_H-M   'P 1'
_cell_length_a   18.97488323
_cell_length_b   18.98495757
_cell_length_c   19.02258835
_cell_angle_alpha   90.10046990
_cell_angle_beta   89.90897723
_cell_angle_gamma   90.03362532
_symmetry_Int_Tables_number   1
_chemical_formula_structural   In2Te3
_chemical_formula_sum   'In72 Te108'
_cell_volume   6852.62652199
_cell_formula_units_Z   36
loop_
 _symmetry_equiv_pos_site_id
 _symmetry_equiv_pos_as_xyz
  1  'x, y, z'
loop_
 _atom_site_type_symbol
 _atom_site_label
 _atom_site_symmetry_multiplicity
 _atom_site_fract_x
 _atom_site_fract_y
 _atom_site_fract_z
 _atom_site_occupancy
  In  In0  1  0.00508020  0.84015393  0.82401696  1
  In  In1  1  0.83176196  0.32340139  0.48481483  1
  In  In2  1  0.16950553  0.66771566  0.83336516  1
  In  In3  1  -0.02980781  -0.01768063  -0.00876449  1
  In  In4  1  0.14469466  0.17833296  0.66026007  1
  In  In5  1  0.36978295  0.86890713  0.50705103  1
  In  In6  1  0.64701683  0.14588732  0.50425874  1
  In  In7  1  0.66620739  0.33678707  0.29909409  1
  In  In8  1  0.64997978  0.16393699  0.17221446  1
  In  In9  1  0.82425923  0.82360998  0.66048394  1
  In  In10  1  -0.03789356  0.80908646  0.15590944  1
  In  In11  1  0.81616783  0.47095707  0.67552271  1
  In  In12  1  0.50133139  0.68675706  0.50871267  1
  In  In13  1  0.34757706  0.32802081  0.66274193  1
  In  In14  1  0.01479064  -0.00935950  0.64310630  1
  In  In15  1  -0.01053458  -0.00276243  0.33592896  1
  In  In16  1  0.55677613  -0.03641229  0.19246473  1
  In  In17  1  0.84152304  0.51367958  0.28883822  1
  In  In18  1  0.50183550  0.31129909  0.83376612  1
  In  In19  1  0.68154166  0.51532620  0.16056663  1
  In  In20  1  0.17746108  0.49366818  0.70688757  1
  In  In21  1  -0.01810979  0.65330709  0.68742857  1
  In  In22  1  0.50704522  0.49920521  0.34790844  1
  In  In23  1  0.35839553  0.15414743  0.17670222  1
  In  In24  1  0.81534172  0.00960965  0.49801990  1
  In  In25  1  0.66241470  0.82707910  0.83408577  1
  In  In26  1  0.38432163  -0.00063391  0.33417337  1
  In  In27  1  0.49849253  0.16908448  -0.00806182  1
  In  In28  1  0.47277607  0.19376343  0.34861676  1
  In  In29  1  0.65938208  -0.00853265  -0.01628739  1
  In  In30  1  0.33883362  0.67500119  0.35079725  1
  In  In31  1  0.17173270  0.31551952  0.17490211  1
  In  In32  1  0.14801141  0.82728935  0.00124764  1
  In  In33  1  0.34863771  0.83930284  0.81970849  1
  In  In34  1  0.17590484  0.67112500  0.51274739  1
  In  In35  1  0.00180500  0.18103461  0.50226285  1
  In  In36  1  0.80913351  0.80501085  0.00421481  1
  In  In37  1  0.67054002  0.33436989  0.00390949  1
  In  In38  1  0.67409063  0.51490742  0.48870557  1
  In  In39  1  -0.01249015  0.50364699  0.13162090  1
  In  In40  1  0.32492605  0.48849767  0.16402278  1
  In  In41  1  0.14826649  0.33401340  0.84074566  1
  In  In42  1  -0.01841157  0.47683324  0.85174769  1
  In  In43  1  0.02195052  0.48053579  0.49537372  1
  In  In44  1  0.83660127  0.68120683  0.47701723  1
  In  In45  1  0.50511588  0.66038783  0.82089456  1
  In  In46  1  0.65500197  0.67764357  0.66603412  1
  In  In47  1  0.18843882  0.18284713  0.36514127  1
  In  In48  1  0.33874023  0.52182054  0.50500746  1
  In  In49  1  0.52628262  0.68400328  0.18140422  1
  In  In50  1  0.21246965  0.84889146  0.65542834  1
  In  In51  1  0.15438967  0.83278266  0.34095762  1
  In  In52  1  0.19666318  0.00797723  0.52156908  1
  In  In53  1  0.48769299  0.49741307  0.00561816  1
  In  In54  1  0.16355275  0.64845522  0.17924144  1
  In  In55  1  -0.00684658  0.65935289  0.30284204  1
  In  In56  1  0.66082398  0.02949838  0.66867850  1
  In  In57  1  -0.00053785  0.33583887  0.33889570  1
  In  In58  1  0.17387908  -0.00138726  0.16828823  1
  In  In59  1  0.32113147  0.01492128  0.00034353  1
  In  In60  1  -0.01725218  0.33070229  -0.02174079  1
  In  In61  1  0.14953658  0.17782009  -0.01219996  1
  In  In62  1  0.48039622  0.80397410  -0.00301774  1
  In  In63  1  0.65676459  0.33392943  0.67857171  1
  In  In64  1  0.78595568  0.86480124  0.34978475  1
  In  In65  1  0.84346883  0.19724686  0.69980658  1
  In  In66  1  0.82152779  0.16396449  -0.02084675  1
  In  In67  1  0.48763265  0.03519010  0.81714242  1
  In  In68  1  0.33362562  0.49496785  0.83183731  1
  In  In69  1  -0.02643808  0.14274318  0.17398294  1
  In  In70  1  0.16699151  0.50118000  -0.02096706  1
  In  In71  1  0.49822282  0.34127425  0.51552876  1
  Te  Te72  1  0.07694310  0.07152567  0.07740503  1
  Te  Te73  1  0.08934339  0.07370616  0.42439623  1
  Te  Te74  1  0.08398271  0.07254664  0.74075744  1
  Te  Te75  1  0.09121948  0.40056694  0.06853294  1
  Te  Te76  1  0.10953784  0.38658674  0.42263177  1
  Te  Te77  1  0.05641778  0.40512339  0.73875505  1
  Te  Te78  1  0.07155601  0.72929743  0.08775127  1
  Te  Te79  1  0.07509530  0.72793444  0.41407250  1
  Te  Te80  1  0.09519164  0.75374091  0.73228016  1
  Te  Te81  1  0.44024897  0.06515974  0.08560440  1
  Te  Te82  1  0.39786176  0.10262199  0.44022695  1
  Te  Te83  1  0.37650199  0.05394138  0.72082871  1
  Te  Te84  1  0.39664387  0.40284023  0.06984919  1
  Te  Te85  1  0.40593883  0.41373077  0.42007526  1
  Te  Te86  1  0.43263969  0.41993345  0.74817513  1
  Te  Te87  1  0.41170476  0.73615916  0.10586575  1
  Te  Te88  1  0.43592394  0.77791995  0.40475718  1
  Te  Te89  1  0.44589325  0.76678644  0.73500602  1
  Te  Te90  1  0.73660448  0.08248064  0.07643090  1
  Te  Te91  1  0.73842580  0.09070887  0.40491866  1
  Te  Te92  1  0.75815139  0.09484049  0.75746365  1
  Te  Te93  1  0.76368797  0.42487241  0.07686700  1
  Te  Te94  1  0.75834452  0.42569543  0.39800007  1
  Te  Te95  1  0.75289041  0.38581681  0.77879748  1
  Te  Te96  1  0.76664774  0.71327861  0.12058005  1
  Te  Te97  1  0.72144522  0.76827207  0.44746335  1
  Te  Te98  1  0.76042389  0.73516754  0.76397259  1
  Te  Te99  1  0.08036576  0.22031161  0.25551353  1
  Te  Te100  1  0.09701985  0.27635356  0.55966847  1
  Te  Te101  1  0.04617894  0.22647141  0.88466003  1
  Te  Te102  1  0.07690933  0.54538282  0.24775323  1
  Te  Te103  1  0.08468331  0.57686846  0.59970261  1
  Te  Te104  1  0.06601405  0.59054065  0.91261693  1
  Te  Te105  1  0.07210150  0.90383503  0.23322624  1
  Te  Te106  1  0.10164007  0.89556265  0.56339332  1
  Te  Te107  1  0.09018254  0.93225234  0.91057800  1
  Te  Te108  1  0.41617279  0.27200178  0.24008838  1
  Te  Te109  1  0.45179323  0.23583654  0.60854714  1
  Te  Te110  1  0.40058696  0.22529093  0.89827848  1
  Te  Te111  1  0.41800255  0.58497027  0.25636602  1
  Te  Te112  1  0.44363294  0.57808309  0.58775682  1
  Te  Te113  1  0.40798665  0.59334610  0.91821224  1
  Te  Te114  1  0.42511975  0.90797249  0.23060890  1
  Te  Te115  1  0.42441006  0.95459485  0.61190281  1
  Te  Te116  1  0.42774665  0.93129082  0.91923951  1
  Te  Te117  1  0.75661194  0.24569352  0.23235031  1
  Te  Te118  1  0.74411014  0.24723194  0.58171626  1
  Te  Te119  1  0.74761825  0.26386276  0.89804665  1
  Te  Te120  1  0.73572386  0.61083335  0.26149302  1
  Te  Te121  1  0.76778388  0.58858788  0.58323264  1
  Te  Te122  1  0.81261621  0.65194845  0.98359447  1
  Te  Te123  1  0.69989405  0.91350810  0.22988138  1
  Te  Te124  1  0.73429171  0.91956341  0.58811620  1
  Te  Te125  1  0.76240994  0.91520496  0.90435683  1
  Te  Te126  1  0.25456820  0.22520009  0.08699559  1
  Te  Te127  1  0.31050043  0.23158693  0.42505483  1
  Te  Te128  1  0.24296004  0.26023559  0.75004507  1
  Te  Te129  1  0.24986133  0.58645093  0.07141636  1
  Te  Te130  1  0.23588676  0.57884385  0.40834877  1
  Te  Te131  1  0.27257146  0.60476844  0.74202978  1
  Te  Te132  1  0.25388949  0.90494118  0.08214150  1
  Te  Te133  1  0.25982636  0.91917062  0.40742526  1
  Te  Te134  1  0.25062255  0.93652129  0.76536372  1
  Te  Te135  1  0.56912864  0.26081136  0.08852136  1
  Te  Te136  1  0.59635069  0.27218813  0.41925628  1
  Te  Te137  1  0.56684635  0.22710625  0.72797993  1
  Te  Te138  1  0.58501824  0.59280127  0.07380682  1
  Te  Te139  1  0.58964145  0.61005285  0.40855673  1
  Te  Te140  1  0.61044307  0.57715391  0.76095184  1
  Te  Te141  1  0.59166376  0.88476975  0.06499352  1
  Te  Te142  1  0.63375238  0.89250762  0.37330233  1
  Te  Te143  1  0.58448448  0.93173136  0.75942669  1
  Te  Te144  1  0.91112142  0.23954887  0.07805082  1
  Te  Te145  1  0.90687136  0.22828465  0.39437012  1
  Te  Te146  1  0.94580762  0.27879192  0.75981995  1
  Te  Te147  1  0.88910453  0.61474184  0.11605671  1
  Te  Te148  1  0.92441506  0.56548977  0.41361541  1
  Te  Te149  1  0.88969645  0.56856572  0.76961328  1
  Te  Te150  1  0.88017898  0.91584472  0.09197970  1
  Te  Te151  1  0.91220536  0.91271730  0.43323533  1
  Te  Te152  1  0.91400111  0.92055893  0.73472608  1
  Te  Te153  1  0.25466599  0.07933565  0.26652801  1
  Te  Te154  1  0.26491294  0.10913366  0.60226700  1
  Te  Te155  1  0.25409851  0.10772929  0.90956518  1
  Te  Te156  1  0.25130316  0.40349107  0.25858843  1
  Te  Te157  1  0.25514702  0.42828635  0.59521750  1
  Te  Te158  1  0.26051010  0.39728032  0.92155741  1
  Te  Te159  1  0.24709787  0.74999819  0.25436494  1
  Te  Te160  1  0.28950464  0.75090500  0.57055457  1
  Te  Te161  1  0.25438303  0.76018724  0.91633808  1
  Te  Te162  1  0.56634562  0.09400715  0.27576542  1
  Te  Te163  1  0.55931993  0.03780994  0.55773833  1
  Te  Te164  1  0.59732056  0.10072433  0.90002266  1
  Te  Te165  1  0.57219258  0.43041693  0.22998381  1
  Te  Te166  1  0.59051834  0.43807860  0.58827633  1
  Te  Te167  1  0.57744102  0.41515264  0.91454481  1
  Te  Te168  1  0.59700505  0.79197799  0.25822856  1
  Te  Te169  1  0.56198856  0.77771781  0.60987160  1
  Te  Te170  1  0.59254549  0.73024224  0.92556076  1
  Te  Te171  1  0.88787711  0.05002711  0.24629150  1
  Te  Te172  1  0.91086022  0.09683918  0.58856774  1
  Te  Te173  1  0.90686932  0.07479490  0.89888932  1
  Te  Te174  1  0.92154777  0.40100980  0.22741644  1
  Te  Te175  1  0.91477500  0.40792707  0.57755447  1
  Te  Te176  1  0.88311514  0.43803063  0.95573312  1
  Te  Te177  1  0.89374082  0.76999246  0.28366291  1
  Te  Te178  1  0.92763893  0.74621733  0.58021965  1
  Te  Te179  1  0.92910658  0.75777148  0.91949995  1
