# generated using pymatgen
data_In2Te3
_symmetry_space_group_name_H-M   'P 1'
_cell_length_a   18.98158526
_cell_length_b   18.98610599
_cell_length_c   18.97459639
_cell_angle_alpha   90.05002548
_cell_angle_beta   89.92157256
_cell_angle_gamma   90.19854838
_symmetry_Int_Tables_number   1
_chemical_formula_structural   In2Te3
_chemical_formula_sum   'In72 Te108'
_cell_volume   6838.13624393
_cell_formula_units_Z   36
loop_
 _symmetry_equiv_pos_site_id
 _symmetry_equiv_pos_as_xyz
  1  'x, y, z'
loop_
 _atom_site_type_symbol
 _atom_site_label
 _atom_site_symmetry_multiplicity
 _atom_site_fract_x
 _atom_site_fract_y
 _atom_site_fract_z
 _atom_site_occupancy
  In  In0  1  0.35655960  0.67149524  0.63916484  1
  In  In1  1  0.66656687  -0.00224819  0.01206742  1
  In  In2  1  0.35817354  0.48683384  0.80434005  1
  In  In3  1  0.81626045  0.18381279  0.64559029  1
  In  In4  1  0.15726418  0.84033856  0.30285211  1
  In  In5  1  0.00284182  0.19583913  0.19493129  1
  In  In6  1  0.65375844  0.18000020  0.49094120  1
  In  In7  1  0.83471546  0.33595121  0.84377434  1
  In  In8  1  0.16624192  0.15650641  -0.01526671  1
  In  In9  1  0.85887226  0.18619126  0.01051796  1
  In  In10  1  0.64452428  0.35750361  0.35372148  1
  In  In11  1  0.64984683  0.65596142  0.67012934  1
  In  In12  1  0.52378382  0.80233956  0.33116418  1
  In  In13  1  0.65339655  0.15694527  0.15947865  1
  In  In14  1  0.81685760  -0.00776684  0.81797931  1
  In  In15  1  0.68192638  0.35614542  0.01505605  1
  In  In16  1  0.12626401  0.02336016  0.49633387  1
  In  In17  1  -0.00246836  0.83668007  0.50264884  1
  In  In18  1  0.66894878  0.66697718  -0.01457684  1
  In  In19  1  0.01225829  -0.02711064  -0.00964290  1
  In  In20  1  0.85345989  0.84280643  0.33366522  1
  In  In21  1  0.16681649  0.80835635  0.69055375  1
  In  In22  1  -0.02377433  0.50964588  0.18534799  1
  In  In23  1  0.51097597  0.84297486  0.65806442  1
  In  In24  1  0.68074236  0.79966353  0.17526464  1
  In  In25  1  0.14823510  0.16786743  0.67945353  1
  In  In26  1  0.00637556  0.35834013  0.64345321  1
  In  In27  1  0.31809947  -0.00217687  0.66699140  1
  In  In28  1  0.34473620  0.20558065  0.51219878  1
  In  In29  1  0.14244903  0.00404483  0.16747937  1
  In  In30  1  0.85119399  0.50278027  0.67587251  1
  In  In31  1  0.91163137  0.77122123  0.01355957  1
  In  In32  1  -0.02528774  0.18396226  0.46067537  1
  In  In33  1  0.81914698  0.19989380  0.31445522  1
  In  In34  1  0.01740462  0.35951757  0.04391267  1
  In  In35  1  0.18407393  0.33455090  0.18315038  1
  In  In36  1  0.82648214  0.67009231  0.48604432  1
  In  In37  1  0.49621698  -0.02915134  0.83812987  1
  In  In38  1  0.15707532  0.66251850  0.85163042  1
  In  In39  1  0.32161229  0.82740484  0.46244952  1
  In  In40  1  0.11328259  0.59834219  0.47376544  1
  In  In41  1  -0.00675429  0.02084729  0.67803162  1
  In  In42  1  0.47234647  0.13566442  -0.00639920  1
  In  In43  1  0.13940964  0.80785775  0.04294278  1
  In  In44  1  0.33102624  0.63148591  0.03930382  1
  In  In45  1  0.33583323  0.35058334  -0.01030743  1
  In  In46  1  0.83756450  0.82817828  0.68082101  1
  In  In47  1  0.18193921  0.48789379  0.32311822  1
  In  In48  1  0.66547691  0.51166739  0.83186721  1
  In  In49  1  0.30902214  0.01606385  0.29713749  1
  In  In50  1  0.00760626  0.50827955  0.84857228  1
  In  In51  1  0.17915460  0.35283487  0.49898780  1
  In  In52  1  0.50068853  0.17628827  0.30718574  1
  In  In53  1  0.50021364  0.49292381  -0.00606858  1
  In  In54  1  -0.01110316  0.66567327  0.33133842  1
  In  In55  1  0.65945877  0.82841497  0.84707673  1
  In  In56  1  0.00193533  0.15688563  0.81720033  1
  In  In57  1  0.68061348  0.49791507  0.18268361  1
  In  In58  1  0.68742155  -0.02153598  0.35171352  1
  In  In59  1  0.17463588  0.52293703  0.65885434  1
  In  In60  1  0.35371616  0.81155218  0.86410364  1
  In  In61  1  0.49384879  0.02579544  0.49544995  1
  In  In62  1  0.48796398  -0.02119618  0.15838404  1
  In  In63  1  0.68899201  0.82171567  0.53246550  1
  In  In64  1  0.33382349  0.81703402  0.16115469  1
  In  In65  1  0.33907799  0.62977369  0.30410750  1
  In  In66  1  0.64603333  0.34070286  0.63544342  1
  In  In67  1  0.53555947  0.56063699  0.46075348  1
  In  In68  1  0.17701173  0.32089447  0.85023724  1
  In  In69  1  0.50514303  0.34691416  0.15582789  1
  In  In70  1  0.33229280  0.16230853  0.82833774  1
  In  In71  1  0.50199926  0.18744190  0.64662788  1
  Te  Te72  1  0.05768419  0.10130488  0.07519431  1
  Te  Te73  1  0.07460076  0.10484177  0.38831254  1
  Te  Te74  1  0.10923995  0.05910360  0.77586602  1
  Te  Te75  1  0.13550590  0.44262212  0.08919706  1
  Te  Te76  1  0.08518545  0.44959315  0.43520468  1
  Te  Te77  1  0.09025806  0.41263031  0.75754044  1
  Te  Te78  1  0.02551858  0.73952698  0.11111876  1
  Te  Te79  1  0.09117738  0.75212544  0.41855798  1
  Te  Te80  1  0.06033375  0.73615635  0.76527877  1
  Te  Te81  1  0.40142288  0.08572643  0.11119321  1
  Te  Te82  1  0.39813739  0.09368268  0.40137385  1
  Te  Te83  1  0.42835725  0.07630892  0.73640624  1
  Te  Te84  1  0.39788796  0.44028021  0.09641773  1
  Te  Te85  1  0.43948440  0.44889419  0.45665689  1
  Te  Te86  1  0.42691710  0.37781791  0.73922378  1
  Te  Te87  1  0.42738462  0.72523934  0.09814901  1
  Te  Te88  1  0.41399609  0.72511166  0.40329345  1
  Te  Te89  1  0.43120393  0.74997804  0.74626569  1
  Te  Te90  1  0.76429468  0.08802933  0.08552017  1
  Te  Te91  1  0.75406408  0.09809428  0.41304988  1
  Te  Te92  1  0.75393882  0.10589840  0.75223093  1
  Te  Te93  1  0.77600193  0.44037781  0.08751155  1
  Te  Te94  1  0.74119441  0.46903516  0.38414211  1
  Te  Te95  1  0.74966404  0.40662873  0.74031081  1
  Te  Te96  1  0.77150185  0.73238931  0.07594021  1
  Te  Te97  1  0.74063324  0.76481175  0.40319763  1
  Te  Te98  1  0.74287097  0.73857360  0.75824213  1
  Te  Te99  1  0.06355693  0.31023909  0.27198075  1
  Te  Te100  1  0.07569169  0.24319057  0.57079129  1
  Te  Te101  1  0.05909438  0.25800312  0.92271848  1
  Te  Te102  1  0.09079046  0.58554845  0.24985524  1
  Te  Te103  1  0.05882290  0.59436834  0.60881194  1
  Te  Te104  1  0.07624434  0.58979888  0.95554599  1
  Te  Te105  1  0.05179742  0.92199286  0.24804324  1
  Te  Te106  1  0.09215787  0.91981750  0.60364932  1
  Te  Te107  1  0.10288247  0.88302760  0.92214580  1
  Te  Te108  1  0.40997059  0.26528930  0.23594940  1
  Te  Te109  1  0.41542743  0.30270733  0.60304753  1
  Te  Te110  1  0.42116096  0.25332957  0.91030597  1
  Te  Te111  1  0.43224907  0.54100600  0.23674338  1
  Te  Te112  1  0.42151577  0.55699422  0.56995539  1
  Te  Te113  1  0.40969889  0.58012510  0.91183218  1
  Te  Te114  1  0.41127963  0.90108444  0.27096984  1
  Te  Te115  1  0.40298097  0.91518963  0.56880997  1
  Te  Te116  1  0.41619113  0.91557842  0.94635767  1
  Te  Te117  1  0.70802182  0.27204451  0.24162983  1
  Te  Te118  1  0.75380013  0.27921530  0.54640018  1
  Te  Te119  1  0.74693521  0.24651717  0.92901706  1
  Te  Te120  1  0.76981652  0.57844955  0.27230757  1
  Te  Te121  1  0.75368176  0.58278465  0.58892264  1
  Te  Te122  1  0.76235967  0.57267759  0.92127628  1
  Te  Te123  1  0.75823441  0.91767612  0.23484665  1
  Te  Te124  1  0.77342348  0.92408081  0.58991198  1
  Te  Te125  1  0.75772921  0.90822488  0.92997738  1
  Te  Te126  1  0.24693004  0.25445960  0.06709373  1
  Te  Te127  1  0.25338520  0.25964062  0.41291534  1
  Te  Te128  1  0.25559795  0.25648200  0.73819544  1
  Te  Te129  1  0.22863329  0.56432473  0.11764321  1
  Te  Te130  1  0.25360420  0.57896836  0.42434088  1
  Te  Te131  1  0.26123584  0.60898032  0.75067288  1
  Te  Te132  1  0.23992994  0.91340368  0.09284755  1
  Te  Te133  1  0.22922909  0.93731720  0.41173691  1
  Te  Te134  1  0.26803046  0.89379095  0.76401425  1
  Te  Te135  1  0.56985394  0.24160404  0.06626911  1
  Te  Te136  1  0.54702130  0.26106247  0.42330887  1
  Te  Te137  1  0.59662102  0.24938719  0.73911226  1
  Te  Te138  1  0.59549703  0.57136024  0.07982870  1
  Te  Te139  1  0.65355872  0.59746841  0.37663434  1
  Te  Te140  1  0.56179498  0.56841640  0.74682948  1
  Te  Te141  1  0.58884595  0.89342927  0.08941925  1
  Te  Te142  1  0.57335360  0.91409450  0.42925974  1
  Te  Te143  1  0.60557672  0.92363429  0.74201189  1
  Te  Te144  1  0.90504103  0.28350872  0.11451675  1
  Te  Te145  1  0.90151263  0.29592814  0.39592152  1
  Te  Te146  1  0.92316270  0.25975458  0.73880177  1
  Te  Te147  1  0.96338462  0.59216262  0.06425660  1
  Te  Te148  1  0.90967038  0.57262032  0.41400464  1
  Te  Te149  1  0.90069543  0.59379059  0.78624450  1
  Te  Te150  1  0.91343198  0.90654017  0.07313736  1
  Te  Te151  1  0.91880645  0.93325893  0.42819007  1
  Te  Te152  1  0.93367281  0.91242197  0.76505262  1
  Te  Te153  1  0.22021227  0.11079998  0.23373573  1
  Te  Te154  1  0.24738155  0.09643254  0.57606828  1
  Te  Te155  1  0.26302200  0.07020443  0.91825035  1
  Te  Te156  1  0.28499992  0.39327927  0.27534274  1
  Te  Te157  1  0.25901079  0.41936710  0.60165039  1
  Te  Te158  1  0.24881201  0.44086386  0.90527783  1
  Te  Te159  1  0.23893457  0.73115756  0.24194431  1
  Te  Te160  1  0.24714442  0.75255161  0.57249281  1
  Te  Te161  1  0.24976782  0.73754054  0.94926899  1
  Te  Te162  1  0.58590282  0.05836306  0.25918235  1
  Te  Te163  1  0.59819521  0.07889381  0.58854599  1
  Te  Te164  1  0.58367428  0.07419132  0.91170832  1
  Te  Te165  1  0.55150335  0.44516745  0.26540576  1
  Te  Te166  1  0.58436040  0.44059465  0.54458972  1
  Te  Te167  1  0.58669621  0.40378565  0.90860244  1
  Te  Te168  1  0.57292379  0.71230162  0.22714906  1
  Te  Te169  1  0.56911431  0.73653737  0.56714366  1
  Te  Te170  1  0.56463639  0.74311615  0.91639251  1
  Te  Te171  1  0.90382650  0.10175858  0.24652561  1
  Te  Te172  1  0.91578856  0.09434921  0.57376519  1
  Te  Te173  1  0.90963401  0.08137586  0.91070741  1
  Te  Te174  1  0.93561460  0.40137958  0.27531566  1
  Te  Te175  1  0.90317096  0.42236759  0.56417660  1
  Te  Te176  1  0.92250109  0.41620886  0.93577041  1
  Te  Te177  1  0.90481063  0.74222802  0.23820845  1
  Te  Te178  1  0.91828126  0.74013789  0.58749847  1
  Te  Te179  1  0.93853637  0.71840250  0.87821409  1
