# generated using pymatgen
data_In2Te3
_symmetry_space_group_name_H-M   'P 1'
_cell_length_a   18.80562901
_cell_length_b   18.79835084
_cell_length_c   18.80280068
_cell_angle_alpha   89.91137855
_cell_angle_beta   89.96325379
_cell_angle_gamma   89.94576521
_symmetry_Int_Tables_number   1
_chemical_formula_structural   In2Te3
_chemical_formula_sum   'In72 Te108'
_cell_volume   6647.05625819
_cell_formula_units_Z   36
loop_
 _symmetry_equiv_pos_site_id
 _symmetry_equiv_pos_as_xyz
  1  'x, y, z'
loop_
 _atom_site_type_symbol
 _atom_site_label
 _atom_site_symmetry_multiplicity
 _atom_site_fract_x
 _atom_site_fract_y
 _atom_site_fract_z
 _atom_site_occupancy
  In  In0  1  0.83353320  -0.00264369  0.52146767  1
  In  In1  1  0.50865467  0.00361327  0.16381102  1
  In  In2  1  0.17701259  0.84406157  -0.02288743  1
  In  In3  1  -0.00189627  0.00933920  0.32921152  1
  In  In4  1  0.64509359  0.81631589  0.83899521  1
  In  In5  1  0.68783082  0.83898658  0.14407826  1
  In  In6  1  0.85708978  -0.02831299  0.80058903  1
  In  In7  1  0.15937968  0.49038736  -0.00761842  1
  In  In8  1  0.82457127  0.33506626  0.15585375  1
  In  In9  1  0.66452072  0.53201287  0.85734133  1
  In  In10  1  0.84329965  0.35846111  0.82394289  1
  In  In11  1  0.32070224  0.33869383  0.32224950  1
  In  In12  1  0.00381046  0.33948039  0.65820880  1
  In  In13  1  0.85545788  0.49762382  0.65226944  1
  In  In14  1  0.19603024  0.16754950  0.66900286  1
  In  In15  1  0.67237531  0.67027418  0.68351145  1
  In  In16  1  0.14310396  0.80511840  0.34487993  1
  In  In17  1  0.31317216  0.81491800  0.13150883  1
  In  In18  1  0.65164303  0.01948596  -0.01640734  1
  In  In19  1  0.15678364  0.67798752  0.52235244  1
  In  In20  1  0.34656320  0.83321631  0.82756032  1
  In  In21  1  0.63022512  0.31337673  0.02301803  1
  In  In22  1  0.50413517  0.83219647  0.67457142  1
  In  In23  1  0.35901226  0.64638937  0.33446525  1
  In  In24  1  0.34062066  0.64515279  -0.02660670  1
  In  In25  1  0.17002098  0.32559770  0.18490531  1
  In  In26  1  0.50661035  0.31919674  0.51683821  1
  In  In27  1  -0.01066979  0.50444821  0.82908665  1
  In  In28  1  0.33779082  0.31849080  0.66638483  1
  In  In29  1  0.00281747  0.67215208  0.66574166  1
  In  In30  1  0.00176632  0.51629896  0.17646184  1
  In  In31  1  0.66045797  0.47218562  0.50385188  1
  In  In32  1  0.66132996  0.17067579  0.83221193  1
  In  In33  1  0.16955361  0.17652145  0.34509508  1
  In  In34  1  0.15835927  0.83554474  0.67328556  1
  In  In35  1  0.51228335  0.04188247  0.52643005  1
  In  In36  1  0.65856142  0.33901541  0.33540777  1
  In  In37  1  0.83891187  0.16169353  0.34538123  1
  In  In38  1  0.15367309  -0.01154308  0.52035243  1
  In  In39  1  -0.01818791  0.84343245  0.17458950  1
  In  In40  1  0.38788616  0.35074764  0.00222094  1
  In  In41  1  0.16563445  0.33705347  0.48669554  1
  In  In42  1  0.18152357  0.15080091  0.00492099  1
  In  In43  1  0.65656570  0.32092878  0.67696586  1
  In  In44  1  0.32360009  0.82995516  0.53129941  1
  In  In45  1  0.69042703  0.85852725  0.49765530  1
  In  In46  1  0.15489538  0.66024790  0.16211627  1
  In  In47  1  0.51624357  0.49325627  0.32418242  1
  In  In48  1  -0.00527199  0.32416163  0.35299336  1
  In  In49  1  0.18112179  0.34474309  0.80694878  1
  In  In50  1  0.34234256  0.01351228  0.35944183  1
  In  In51  1  0.81135180  0.16169299  0.00856569  1
  In  In52  1  -0.02994614  0.32839009  -0.01443161  1
  In  In53  1  0.33606209  0.17411303  0.17369269  1
  In  In54  1  0.50697526  0.31622453  0.82079812  1
  In  In55  1  0.02684642  0.15430425  0.83644872  1
  In  In56  1  0.85879458  0.53542797  0.36041237  1
  In  In57  1  0.83744230  0.82029608  0.33982864  1
  In  In58  1  0.00466703  -0.00031651  -0.00059227  1
  In  In59  1  0.16184518  -0.00756413  0.83253784  1
  In  In60  1  0.81355283  0.16893722  0.65153670  1
  In  In61  1  0.35222689  -0.03038933  -0.00810484  1
  In  In62  1  0.47670125  0.66597185  0.13831770  1
  In  In63  1  0.81148487  0.69617047  0.16612381  1
  In  In64  1  0.48934423  0.83520058  0.32023776  1
  In  In65  1  0.33284753  0.50853050  0.51315078  1
  In  In66  1  0.65285972  0.01911306  0.32231034  1
  In  In67  1  0.50039606  0.63820093  0.52629866  1
  In  In68  1  0.83792813  0.82841660  -0.00436327  1
  In  In69  1  0.64617325  0.52642762  0.13872873  1
  In  In70  1  -0.01311186  0.66747960  -0.01128561  1
  In  In71  1  0.68585321  0.69868426  0.33233817  1
  Te  Te72  1  0.08040900  0.08750950  0.08976728  1
  Te  Te73  1  0.07932107  0.08875674  0.43160048  1
  Te  Te74  1  0.08498871  0.07050859  0.72602004  1
  Te  Te75  1  0.06617599  0.40955383  0.08540309  1
  Te  Te76  1  0.08342761  0.42906860  0.40624236  1
  Te  Te77  1  0.09039888  0.44274372  0.73260925  1
  Te  Te78  1  0.07993259  0.76402327  0.07776398  1
  Te  Te79  1  0.04753054  0.74254616  0.44075084  1
  Te  Te80  1  0.09058106  0.74035617  0.76382381  1
  Te  Te81  1  0.41162470  0.08281759  0.07620905  1
  Te  Te82  1  0.45105280  0.10103601  0.40425794  1
  Te  Te83  1  0.37340529  0.13433902  0.70296782  1
  Te  Te84  1  0.43314257  0.44193051  0.10455713  1
  Te  Te85  1  0.42533312  0.42129425  0.42453362  1
  Te  Te86  1  0.41396482  0.41438509  0.75441920  1
  Te  Te87  1  0.41875219  0.76730314  0.03765318  1
  Te  Te88  1  0.42104508  0.74998242  0.43173702  1
  Te  Te89  1  0.43420295  0.73263289  0.76101699  1
  Te  Te90  1  0.72120711  0.08527043  0.09854156  1
  Te  Te91  1  0.73826705  0.08045020  0.43003244  1
  Te  Te92  1  0.75314446  0.07340073  0.75387430  1
  Te  Te93  1  0.73584164  0.42214281  0.06865413  1
  Te  Te94  1  0.76685455  0.42070689  0.40884023  1
  Te  Te95  1  0.73553872  0.43292892  0.74754780  1
  Te  Te96  1  0.71892894  0.71985968  0.04015980  1
  Te  Te97  1  0.77440419  0.73403179  0.45210652  1
  Te  Te98  1  0.75409890  0.77759159  0.74393218  1
  Te  Te99  1  0.06660251  0.23532016  0.24915695  1
  Te  Te100  1  0.09304107  0.24222606  0.58216176  1
  Te  Te101  1  0.09293173  0.26853142  0.91520435  1
  Te  Te102  1  0.08542863  0.59117938  0.27204788  1
  Te  Te103  1  0.09152310  0.56995741  0.60170092  1
  Te  Te104  1  0.09130127  0.59227102  0.90325198  1
  Te  Te105  1  0.09292598  0.91463304  0.25087821  1
  Te  Te106  1  0.05188272  0.89577675  0.58361096  1
  Te  Te107  1  0.05896289  0.90009609  0.89805943  1
  Te  Te108  1  0.42354791  0.26763046  0.24538827  1
  Te  Te109  1  0.40773024  0.21721873  0.57747288  1
  Te  Te110  1  0.43727967  0.23452378  0.92516056  1
  Te  Te111  1  0.41087415  0.55071233  0.22288451  1
  Te  Te112  1  0.39759866  0.58955027  0.61948711  1
  Te  Te113  1  0.42650663  0.57416408  0.87213071  1
  Te  Te114  1  0.39668126  0.92094733  0.23638134  1
  Te  Te115  1  0.42243439  0.92981464  0.58779484  1
  Te  Te116  1  0.44608421  0.93216474  0.88178040  1
  Te  Te117  1  0.74800111  0.24683268  0.25165366  1
  Te  Te118  1  0.74736343  0.27318042  0.57105592  1
  Te  Te119  1  0.75154837  0.26572524  0.91177721  1
  Te  Te120  1  0.74679913  0.57822210  0.25222270  1
  Te  Te121  1  0.74055621  0.57282943  0.58386864  1
  Te  Te122  1  0.75886807  0.61759504  0.92870503  1
  Te  Te123  1  0.74976189  0.91658589  0.25803405  1
  Te  Te124  1  0.76414500  0.90439992  0.61793204  1
  Te  Te125  1  0.75101749  0.92350057  0.91235629  1
  Te  Te126  1  0.25494955  0.26948165  0.07013923  1
  Te  Te127  1  0.27397326  0.24318977  0.43199123  1
  Te  Te128  1  0.28028884  0.22730359  0.78928443  1
  Te  Te129  1  0.25184801  0.57598292  0.07972892  1
  Te  Te130  1  0.24674803  0.59504626  0.42231632  1
  Te  Te131  1  0.30077852  0.53030922  0.80461193  1
  Te  Te132  1  0.23297741  0.93532710  0.08464348  1
  Te  Te133  1  0.24594710  0.90163965  0.41890789  1
  Te  Te134  1  0.26279438  0.92609909  0.73968245  1
  Te  Te135  1  0.58670750  0.19741260  0.10184205  1
  Te  Te136  1  0.59450050  0.24230401  0.42715712  1
  Te  Te137  1  0.56264228  0.20355780  0.71097176  1
  Te  Te138  1  0.55361693  0.58578029  0.03524255  1
  Te  Te139  1  0.59446731  0.59280865  0.40990036  1
  Te  Te140  1  0.56883248  0.59394794  0.76056750  1
  Te  Te141  1  0.57738847  0.90799592  0.06669442  1
  Te  Te142  1  0.57279839  0.91983176  0.41519249  1
  Te  Te143  1  0.57379229  0.92740452  0.76697380  1
  Te  Te144  1  0.91986799  0.23202852  0.09137824  1
  Te  Te145  1  0.91795881  0.23826646  0.44503821  1
  Te  Te146  1  0.92691236  0.24991686  0.75854976  1
  Te  Te147  1  0.90189104  0.59343311  0.09122657  1
  Te  Te148  1  0.93737368  0.60563573  0.46519678  1
  Te  Te149  1  0.89426122  0.59796277  0.75761411  1
  Te  Te150  1  0.89632060  0.93487154  0.08813947  1
  Te  Te151  1  0.92086135  0.91604774  0.42245180  1
  Te  Te152  1  0.95400997  0.91998431  0.70408042  1
  Te  Te153  1  0.24827644  0.08015368  0.25708829  1
  Te  Te154  1  0.26518863  0.07050693  0.57672747  1
  Te  Te155  1  0.26743064  0.07087598  0.90983860  1
  Te  Te156  1  0.22975487  0.43659325  0.26027405  1
  Te  Te157  1  0.24370910  0.41467090  0.59335482  1
  Te  Te158  1  0.26918145  0.41845377  0.91278565  1
  Te  Te159  1  0.26193314  0.74473253  0.25676117  1
  Te  Te160  1  0.26121070  0.72918275  0.62370276  1
  Te  Te161  1  0.24526181  0.73771324  0.89493332  1
  Te  Te162  1  0.57312179  0.11809829  0.23917398  1
  Te  Te163  1  0.61576745  0.09441174  0.61434784  1
  Te  Te164  1  0.55243868  0.09875112  0.90467004  1
  Te  Te165  1  0.58548489  0.40738439  0.21848301  1
  Te  Te166  1  0.56123351  0.42705594  0.60850457  1
  Te  Te167  1  0.58550943  0.40890322  0.91435018  1
  Te  Te168  1  0.57650121  0.74456162  0.23070007  1
  Te  Te169  1  0.59115537  0.75477688  0.56849663  1
  Te  Te170  1  0.59894796  0.71007866  0.93317335  1
  Te  Te171  1  0.89898505  0.07371285  0.24223503  1
  Te  Te172  1  0.92369975  0.09402179  0.58831958  1
  Te  Te173  1  0.90813882  0.08643871  0.90697736  1
  Te  Te174  1  0.90809743  0.41969973  0.25363415  1
  Te  Te175  1  0.92396990  0.40997091  0.55577965  1
  Te  Te176  1  0.89376194  0.44961692  0.93549591  1
  Te  Te177  1  0.92908055  0.72813960  0.25876283  1
  Te  Te178  1  0.90471141  0.72115628  0.56484626  1
  Te  Te179  1  0.91336750  0.75375271  0.89383002  1
