# generated using pymatgen
data_In2Te3
_symmetry_space_group_name_H-M   'P 1'
_cell_length_a   18.79392734
_cell_length_b   18.78439519
_cell_length_c   18.79660040
_cell_angle_alpha   89.96176811
_cell_angle_beta   90.05466405
_cell_angle_gamma   90.06673997
_symmetry_Int_Tables_number   1
_chemical_formula_structural   In2Te3
_chemical_formula_sum   'In72 Te108'
_cell_volume   6635.80293293
_cell_formula_units_Z   36
loop_
 _symmetry_equiv_pos_site_id
 _symmetry_equiv_pos_as_xyz
  1  'x, y, z'
loop_
 _atom_site_type_symbol
 _atom_site_label
 _atom_site_symmetry_multiplicity
 _atom_site_fract_x
 _atom_site_fract_y
 _atom_site_fract_z
 _atom_site_occupancy
  In  In0  1  0.12806204  0.32030279  0.17797325  1
  In  In1  1  0.31791242  0.34808303  0.34735511  1
  In  In2  1  0.82982065  0.51208564  0.67465325  1
  In  In3  1  0.17094156  0.68795703  0.49512049  1
  In  In4  1  0.33073791  0.65380957  0.00263670  1
  In  In5  1  0.81299791  0.85243036  0.65014887  1
  In  In6  1  0.67389725  0.31959555  0.64141357  1
  In  In7  1  0.52235497  0.32990839  0.49140432  1
  In  In8  1  0.48943437  0.15181057  0.01211462  1
  In  In9  1  0.65144542  -0.01394437  0.35098286  1
  In  In10  1  0.34050417  0.52765225  0.18616041  1
  In  In11  1  0.49847360  -0.00836141  0.82716373  1
  In  In12  1  0.33372120  0.15188880  0.47972969  1
  In  In13  1  0.19967913  -0.04148477  0.46557572  1
  In  In14  1  0.37111022  0.54079566  0.53499821  1
  In  In15  1  0.49474665  0.67627610  0.19057149  1
  In  In16  1  0.14134961  0.37352038  0.50740289  1
  In  In17  1  0.85460727  0.00681676  0.17682322  1
  In  In18  1  0.68371822  0.68723311  0.37879058  1
  In  In19  1  0.83751969  0.49892116  -0.01238961  1
  In  In20  1  0.33812507  -0.01468126  0.66547371  1
  In  In21  1  0.16533966  0.50089028  0.02150848  1
  In  In22  1  0.16977562  0.66072882  0.83954185  1
  In  In23  1  0.31115220  0.82486279  0.20346693  1
  In  In24  1  0.31469106  0.32372044  -0.00608948  1
  In  In25  1  0.51534903  0.35562152  0.83835344  1
  In  In26  1  0.50456287  0.53871930  0.32790581  1
  In  In27  1  0.15701032  0.15485291  0.31793572  1
  In  In28  1  0.65256300  0.32829223  -0.03323511  1
  In  In29  1  -0.01726186  0.67233579  0.66698789  1
  In  In30  1  0.84915544  0.02217812  0.84531190  1
  In  In31  1  0.15770788  0.00304265  0.83800814  1
  In  In32  1  0.68072291  0.84229397  0.81101693  1
  In  In33  1  0.17109769  0.15880868  0.68241435  1
  In  In34  1  0.68624916  0.82441669  0.17436930  1
  In  In35  1  0.16263721  0.00100012  0.17445344  1
  In  In36  1  0.16320393  0.48508732  0.66970748  1
  In  In37  1  0.47341030  0.49803453  -0.02552557  1
  In  In38  1  -0.00604267  0.51511176  0.46573945  1
  In  In39  1  0.00539387  0.82290170  0.85412562  1
  In  In40  1  0.68648474  0.14535515  0.19420646  1
  In  In41  1  0.66651491  -0.00710636  0.00094997  1
  In  In42  1  -0.02266490  0.85069344  0.19006045  1
  In  In43  1  0.67252199  0.66399556  -0.00536969  1
  In  In44  1  -0.00842724  0.67633627  0.01477959  1
  In  In45  1  0.84274041  0.33215200  0.83375857  1
  In  In46  1  0.87930902  0.31301838  0.14093598  1
  In  In47  1  0.68286605  0.17706559  0.79934577  1
  In  In48  1  0.14425894  0.53376960  0.33314811  1
  In  In49  1  0.49440381  0.82426429  0.65711638  1
  In  In50  1  0.67430113  0.49712058  0.14330612  1
  In  In51  1  0.49480157  0.14083742  0.34427755  1
  In  In52  1  0.66838444  0.31054765  0.32603662  1
  In  In53  1  0.49829769  0.31729502  0.17049362  1
  In  In54  1  -0.00937624  0.32679043  0.68260657  1
  In  In55  1  0.83350232  0.67538865  0.17094624  1
  In  In56  1  0.51084947  0.83125262  -0.01644449  1
  In  In57  1  0.33485955  0.30458411  0.67669632  1
  In  In58  1  0.20536948  0.82564376  0.64841460  1
  In  In59  1  0.01613612  0.00628224  0.67458454  1
  In  In60  1  0.83117589  0.32319451  0.51036309  1
  In  In61  1  -0.00246296  0.15656245  0.48504794  1
  In  In62  1  0.15093781  0.82826427  0.00697434  1
  In  In63  1  0.33652615  0.13054160  0.16044795  1
  In  In64  1  0.31508312  0.14614190  0.82322450  1
  In  In65  1  0.00424437  0.83519876  0.47356577  1
  In  In66  1  0.13688247  0.17174808  -0.00458635  1
  In  In67  1  0.66245451  0.67170303  0.65921698  1
  In  In68  1  0.83117499  0.50040634  0.32216614  1
  In  In69  1  0.64332416  0.51669115  0.49828207  1
  In  In70  1  0.32600225  0.52199772  0.82968432  1
  In  In71  1  0.82505630  -0.00858084  0.48972351  1
  Te  Te72  1  0.06505405  0.09105260  0.10176714  1
  Te  Te73  1  0.08905453  0.05767045  0.41504779  1
  Te  Te74  1  0.06314504  0.10834671  0.77745746  1
  Te  Te75  1  0.06363528  0.40980273  0.07998905  1
  Te  Te76  1  0.06530182  0.40906934  0.38062195  1
  Te  Te77  1  0.06820677  0.42333280  0.76320936  1
  Te  Te78  1  0.07814152  0.75040053  0.11562205  1
  Te  Te79  1  0.08888263  0.74636479  0.38241777  1
  Te  Te80  1  0.09003238  0.75831028  0.74137073  1
  Te  Te81  1  0.42038935  0.04097515  0.07955015  1
  Te  Te82  1  0.43340255  0.04686130  0.44386392  1
  Te  Te83  1  0.42381394  0.09197218  0.73465917  1
  Te  Te84  1  0.40363831  0.41843334  0.08783303  1
  Te  Te85  1  0.42919726  0.42919832  0.41400627  1
  Te  Te86  1  0.40794526  0.41919733  0.75045147  1
  Te  Te87  1  0.41197730  0.75522671  0.08746537  1
  Te  Te88  1  0.43452689  0.81250673  0.38900500  1
  Te  Te89  1  0.40161042  0.73820997  0.73199619  1
  Te  Te90  1  0.76106211  0.08457311  0.07704422  1
  Te  Te91  1  0.74724294  0.08654213  0.40346810  1
  Te  Te92  1  0.74791744  0.05497273  0.73800348  1
  Te  Te93  1  0.75625347  0.38965519  0.07592970  1
  Te  Te94  1  0.73861358  0.41660681  0.42074684  1
  Te  Te95  1  0.74215371  0.40992099  0.74544830  1
  Te  Te96  1  0.76834586  0.76161964  0.06283125  1
  Te  Te97  1  0.78910000  0.75988567  0.44962806  1
  Te  Te98  1  0.77185684  0.73995037  0.74464219  1
  Te  Te99  1  0.03727404  0.22627660  0.25600984  1
  Te  Te100  1  0.08913585  0.24802277  0.58356623  1
  Te  Te101  1  0.03746431  0.25589664  0.92342710  1
  Te  Te102  1  0.09522116  0.60338583  0.21493943  1
  Te  Te103  1  0.07785475  0.58837789  0.57728606  1
  Te  Te104  1  0.07506906  0.58212561  0.92555621  1
  Te  Te105  1  0.08452598  0.91809442  0.26832627  1
  Te  Te106  1  0.09026853  0.90862943  0.58297633  1
  Te  Te107  1  0.06416287  0.93506459  0.93901278  1
  Te  Te108  1  0.40325245  0.24441540  0.26880341  1
  Te  Te109  1  0.42268944  0.23974507  0.56850556  1
  Te  Te110  1  0.42174794  0.24952983  0.91328207  1
  Te  Te111  1  0.38599377  0.62989033  0.28981062  1
  Te  Te112  1  0.44876465  0.61868792  0.64669982  1
  Te  Te113  1  0.42978169  0.61795954  0.89090708  1
  Te  Te114  1  0.41282166  0.90668034  0.27267371  1
  Te  Te115  1  0.43284711  0.93014125  0.56669905  1
  Te  Te116  1  0.40963876  0.91134858  0.91215622  1
  Te  Te117  1  0.78348657  0.24872043  0.24976912  1
  Te  Te118  1  0.75850010  0.21046213  0.57849767  1
  Te  Te119  1  0.76119208  0.23370182  0.92165035  1
  Te  Te120  1  0.72043929  0.59501038  0.25219449  1
  Te  Te121  1  0.76047087  0.58922563  0.56402451  1
  Te  Te122  1  0.75264483  0.58269128  0.90064528  1
  Te  Te123  1  0.76070472  0.91992971  0.26376073  1
  Te  Te124  1  0.71489124  0.91735218  0.55958599  1
  Te  Te125  1  0.76560034  0.91419936  0.91593998  1
  Te  Te126  1  0.24503815  0.24049023  0.10354992  1
  Te  Te127  1  0.22725547  0.25098502  0.42348783  1
  Te  Te128  1  0.22753722  0.26330856  0.77858619  1
  Te  Te129  1  0.23032824  0.60898653  0.11149993  1
  Te  Te130  1  0.24702991  0.56514993  0.43931183  1
  Te  Te131  1  0.24789882  0.60105095  0.72310672  1
  Te  Te132  1  0.25129110  0.91013283  0.08869360  1
  Te  Te133  1  0.28130504  0.85510955  0.39091076  1
  Te  Te134  1  0.25602854  0.90823732  0.76760331  1
  Te  Te135  1  0.59863714  0.23810078  0.08818441  1
  Te  Te136  1  0.60136935  0.21564506  0.42618131  1
  Te  Te137  1  0.56235355  0.25331822  0.73675666  1
  Te  Te138  1  0.56031698  0.58484205  0.08117485  1
  Te  Te139  1  0.55214440  0.62582989  0.44367332  1
  Te  Te140  1  0.57319027  0.57552674  0.72458549  1
  Te  Te141  1  0.58345217  0.90646987  0.09548357  1
  Te  Te142  1  0.57535651  0.87545733  0.41554792  1
  Te  Te143  1  0.58944297  0.92727330  0.72484310  1
  Te  Te144  1  0.94721356  0.21098912  0.04987071  1
  Te  Te145  1  0.92009916  0.25941626  0.41205541  1
  Te  Te146  1  0.88505573  0.23562288  0.72826205  1
  Te  Te147  1  0.91561299  0.57094496  0.09860152  1
  Te  Te148  1  0.91620719  0.60940802  0.38088748  1
  Te  Te149  1  0.93250294  0.57206673  0.76306397  1
  Te  Te150  1  0.91465379  0.91778408  0.07406223  1
  Te  Te151  1  0.92143288  0.92857611  0.39475918  1
  Te  Te152  1  0.92275020  0.90935713  0.74883155  1
  Te  Te153  1  0.27036581  0.06155441  0.27693728  1
  Te  Te154  1  0.23778417  0.07111347  0.57808212  1
  Te  Te155  1  0.24685328  0.07864540  0.93932623  1
  Te  Te156  1  0.24145419  0.42052481  0.23762782  1
  Te  Te157  1  0.27220964  0.40950170  0.58189728  1
  Te  Te158  1  0.23656175  0.42277438  0.90997217  1
  Te  Te159  1  0.21898582  0.74417546  0.29179221  1
  Te  Te160  1  0.29187714  0.75099719  0.55507259  1
  Te  Te161  1  0.25488772  0.75855738  0.91867325  1
  Te  Te162  1  0.56817304  0.06274098  0.23718461  1
  Te  Te163  1  0.63865551  0.13316034  0.64876642  1
  Te  Te164  1  0.59123016  0.09226385  0.90806782  1
  Te  Te165  1  0.58032924  0.42129664  0.25675107  1
  Te  Te166  1  0.57018876  0.42906381  0.59859537  1
  Te  Te167  1  0.60466796  0.46002946  0.90472287  1
  Te  Te168  1  0.59048609  0.76047696  0.27454873  1
  Te  Te169  1  0.59935126  0.76887332  0.56367422  1
  Te  Te170  1  0.59252235  0.74475544  0.88926018  1
  Te  Te171  1  0.95293342  0.09457246  0.24248830  1
  Te  Te172  1  0.91594823  0.07848369  0.58780230  1
  Te  Te173  1  0.93037281  0.11727762  0.92483765  1
  Te  Te174  1  0.92071076  0.42501263  0.23132093  1
  Te  Te175  1  0.92366023  0.42898275  0.57468987  1
  Te  Te176  1  0.93598404  0.40336393  0.92727468  1
  Te  Te177  1  0.90233797  0.75183356  0.27683151  1
  Te  Te178  1  0.90217815  0.75327472  0.56072820  1
  Te  Te179  1  0.90343159  0.73438768  0.91132508  1
