# generated using pymatgen
data_In2Te3
_symmetry_space_group_name_H-M   'P 1'
_cell_length_a   19.03357770
_cell_length_b   19.01138007
_cell_length_c   19.02180818
_cell_angle_alpha   90.03158766
_cell_angle_beta   90.01094556
_cell_angle_gamma   90.09392817
_symmetry_Int_Tables_number   1
_chemical_formula_structural   In2Te3
_chemical_formula_sum   'In72 Te108'
_cell_volume   6883.11798618
_cell_formula_units_Z   36
loop_
 _symmetry_equiv_pos_site_id
 _symmetry_equiv_pos_as_xyz
  1  'x, y, z'
loop_
 _atom_site_type_symbol
 _atom_site_label
 _atom_site_symmetry_multiplicity
 _atom_site_fract_x
 _atom_site_fract_y
 _atom_site_fract_z
 _atom_site_occupancy
  In  In0  1  0.15650591  0.32993632  0.49614549  1
  In  In1  1  0.63710892  -0.01700302  0.69631438  1
  In  In2  1  -0.01604726  0.55180369  0.51282059  1
  In  In3  1  0.51402036  0.46002948  0.68063012  1
  In  In4  1  0.33734144  0.18216990  0.82074565  1
  In  In5  1  0.37565290  0.48034158  0.91788802  1
  In  In6  1  0.17260504  -0.01688575  0.50167722  1
  In  In7  1  0.16163645  0.66924840  0.84229393  1
  In  In8  1  0.67261540  0.16553582  0.52478831  1
  In  In9  1  0.82348231  -0.00164503  0.82462510  1
  In  In10  1  0.51051759  0.18790584  0.66224951  1
  In  In11  1  0.34397827  0.35298127  0.33638070  1
  In  In12  1  0.50332342  0.15240192  -0.01009369  1
  In  In13  1  0.83099233  -0.00251733  0.16670344  1
  In  In14  1  0.50240381  0.13996281  0.35346552  1
  In  In15  1  0.35434840  0.52721300  0.13448379  1
  In  In16  1  0.34637033  -0.01722519  0.01043370  1
  In  In17  1  0.00192133  0.35757949  0.67991603  1
  In  In18  1  0.01774766  0.48142801  0.14647706  1
  In  In19  1  0.30137233  0.16502662  0.18636027  1
  In  In20  1  0.33904759  0.69880186  0.66798159  1
  In  In21  1  -0.01233804  0.67295699  0.66650210  1
  In  In22  1  0.16485130  0.64764023  0.15625429  1
  In  In23  1  -0.00088059  0.31175136  -0.01145982  1
  In  In24  1  0.17081882  0.49753952  0.31635141  1
  In  In25  1  0.35610037  0.82355526  0.85396977  1
  In  In26  1  0.17704927  0.49765157  0.70750624  1
  In  In27  1  0.01971518  0.31759500  0.32236799  1
  In  In28  1  0.83507785  0.65957671  0.81641647  1
  In  In29  1  0.48234537  0.50308673  0.35230927  1
  In  In30  1  0.83307923  0.84282231  0.67445263  1
  In  In31  1  0.80961729  0.50627853  0.01012492  1
  In  In32  1  0.82587934  0.50614654  0.29714845  1
  In  In33  1  0.50457039  0.33260046  0.84683256  1
  In  In34  1  0.65262564  0.67677330  0.33375317  1
  In  In35  1  0.85243804  0.85291662  0.33651144  1
  In  In36  1  0.81102048  0.68055658  0.17021221  1
  In  In37  1  0.51245970  0.66223690  0.50320013  1
  In  In38  1  0.66252907  0.64378693  0.66520830  1
  In  In39  1  0.82449721  0.17807695  0.64256751  1
  In  In40  1  0.32654441  0.65102856  0.32248352  1
  In  In41  1  0.02703481  -0.00198373  0.33123617  1
  In  In42  1  0.48711247  0.32813813  0.15450497  1
  In  In43  1  0.03209598  0.16430994  0.15531451  1
  In  In44  1  0.83332960  0.15671236  0.00172068  1
  In  In45  1  0.82867739  0.19266830  0.31136651  1
  In  In46  1  0.66170232  0.83449161  0.48361631  1
  In  In47  1  0.81667034  0.49850315  0.66852373  1
  In  In48  1  0.18035548  0.17250864  0.00436442  1
  In  In49  1  0.17805916  0.84779775  0.01067267  1
  In  In50  1  0.65554784  0.00528817  -0.02657498  1
  In  In51  1  0.33462831  -0.00395001  0.65924685  1
  In  In52  1  0.66605013  0.34187783  -0.00325030  1
  In  In53  1  0.67207661  -0.00290430  0.33925896  1
  In  In54  1  0.32094867  0.50090970  0.50682564  1
  In  In55  1  0.33701642  0.85407391  0.49454829  1
  In  In56  1  0.66092106  0.68181405  -0.01186107  1
  In  In57  1  0.16789522  0.82505161  0.66188487  1
  In  In58  1  0.02236586  0.13000717  0.49783471  1
  In  In59  1  0.49877878  0.82477730  0.30798006  1
  In  In60  1  0.17265692  0.17175046  0.69224701  1
  In  In61  1  0.15736238  0.00737946  0.82809898  1
  In  In62  1  0.36074041  0.18021260  0.50022839  1
  In  In63  1  0.65533666  0.32977360  0.33870153  1
  In  In64  1  0.82263313  0.31439697  0.50367791  1
  In  In65  1  -0.01224009  0.65716588  -0.02341752  1
  In  In66  1  0.49777575  0.82660968  0.00029099  1
  In  In67  1  0.00428517  0.01447086  -0.00820436  1
  In  In68  1  -0.00728363  0.85219286  0.15542490  1
  In  In69  1  0.50826818  -0.00203928  0.18524815  1
  In  In70  1  0.84621393  -0.02221501  0.48664815  1
  In  In71  1  0.82803993  0.35369429  0.82484544  1
  Te  Te72  1  0.11426985  0.05975046  0.08370893  1
  Te  Te73  1  0.12279889  0.10282470  0.38660366  1
  Te  Te74  1  0.07237694  0.07310517  0.73033163  1
  Te  Te75  1  0.09957858  0.39426903  0.06137755  1
  Te  Te76  1  0.07514084  0.42764649  0.41441531  1
  Te  Te77  1  0.09251649  0.40511335  0.78372153  1
  Te  Te78  1  0.07615364  0.74719289  0.07335490  1
  Te  Te79  1  -0.00188138  0.69501600  0.47063661  1
  Te  Te80  1  0.07270609  0.75846306  0.75901635  1
  Te  Te81  1  0.41404883  0.08866014  0.09929471  1
  Te  Te82  1  0.39269815  0.06714117  0.41472592  1
  Te  Te83  1  0.42197351  0.08786482  0.74169521  1
  Te  Te84  1  0.43319693  0.42622965  0.05455586  1
  Te  Te85  1  0.42580347  0.40503043  0.45186112  1
  Te  Te86  1  0.40124660  0.42061008  0.78062649  1
  Te  Te87  1  0.42616700  0.71559467  0.06828358  1
  Te  Te88  1  0.41890916  0.73788593  0.41278348  1
  Te  Te89  1  0.44186536  0.75828641  0.75383071  1
  Te  Te90  1  0.73565011  0.08015217  0.08573428  1
  Te  Te91  1  0.76457256  0.09505038  0.41778327  1
  Te  Te92  1  0.74095010  0.08655835  0.73334168  1
  Te  Te93  1  0.73749906  0.41781132  0.10136359  1
  Te  Te94  1  0.76533311  0.41185482  0.40527148  1
  Te  Te95  1  0.72606135  0.44163884  0.76837612  1
  Te  Te96  1  0.77068428  0.75637226  0.05290340  1
  Te  Te97  1  0.76158389  0.75299714  0.40848570  1
  Te  Te98  1  0.73832593  0.75156348  0.74573824  1
  Te  Te99  1  0.11686222  0.25489292  0.23351263  1
  Te  Te100  1  0.06929524  0.24621745  0.58735812  1
  Te  Te101  1  0.07947695  0.21786837  0.90935597  1
  Te  Te102  1  0.06601139  0.58374296  0.25174970  1
  Te  Te103  1  0.09843673  0.58190411  0.61046715  1
  Te  Te104  1  0.08174121  0.56694967  0.91129680  1
  Te  Te105  1  0.09705813  0.90844094  0.24010454  1
  Te  Te106  1  0.07849676  0.91463849  0.58898762  1
  Te  Te107  1  0.08002442  0.90901487  0.91337455  1
  Te  Te108  1  0.42282745  0.24267755  0.26450513  1
  Te  Te109  1  0.40050436  0.26746325  0.60926163  1
  Te  Te110  1  0.40672159  0.25293826  0.93389833  1
  Te  Te111  1  0.44103501  0.59545569  0.24161427  1
  Te  Te112  1  0.41548212  0.58549542  0.59032301  1
  Te  Te113  1  0.42913198  0.61839922  0.94649588  1
  Te  Te114  1  0.40284963  0.91751524  0.24690371  1
  Te  Te115  1  0.42789081  0.90408171  0.59601638  1
  Te  Te116  1  0.44312426  0.94070808  0.90271791  1
  Te  Te117  1  0.73770981  0.27122576  0.23132658  1
  Te  Te118  1  0.71602708  0.29075643  0.61205410  1
  Te  Te119  1  0.75733666  0.25225046  0.91422416  1
  Te  Te120  1  0.71332564  0.58125517  0.22852976  1
  Te  Te121  1  0.75857004  0.58840992  0.57047295  1
  Te  Te122  1  0.73709660  0.58128396  0.90186125  1
  Te  Te123  1  0.74210430  0.90328065  0.24448912  1
  Te  Te124  1  0.73499184  0.92968663  0.57940413  1
  Te  Te125  1  0.74097508  0.90860803  0.90593389  1
  Te  Te126  1  0.27129783  0.25874284  0.07938009  1
  Te  Te127  1  0.25698610  0.25686152  0.41287472  1
  Te  Te128  1  0.22830616  0.27253299  0.78274714  1
  Te  Te129  1  0.23312413  0.56469062  0.05115228  1
  Te  Te130  1  0.23115326  0.58738155  0.42212981  1
  Te  Te131  1  0.27252766  0.60106753  0.76452620  1
  Te  Te132  1  0.27913921  0.89620072  0.10624057  1
  Te  Te133  1  0.23093818  0.89402793  0.40299850  1
  Te  Te134  1  0.25737507  0.90688454  0.75864349  1
  Te  Te135  1  0.58512698  0.24090266  0.08101707  1
  Te  Te136  1  0.57733991  0.24259999  0.43579357  1
  Te  Te137  1  0.59180606  0.23586513  0.77663192  1
  Te  Te138  1  0.54465134  0.61145288  0.05003577  1
  Te  Te139  1  0.59857201  0.56708659  0.42487548  1
  Te  Te140  1  0.55969963  0.58093294  0.74809691  1
  Te  Te141  1  0.58516924  0.92082758  0.08089324  1
  Te  Te142  1  0.56370814  0.92173679  0.41008097  1
  Te  Te143  1  0.56685712  0.89708850  0.79128080  1
  Te  Te144  1  0.91614046  0.24136427  0.09533093  1
  Te  Te145  1  0.93159870  0.23532676  0.42208245  1
  Te  Te146  1  0.90995995  0.25511780  0.74292419  1
  Te  Te147  1  0.91305628  0.58392536  0.09602683  1
  Te  Te148  1  0.90010875  0.59404380  0.39084560  1
  Te  Te149  1  0.92833916  0.56141823  0.74998935  1
  Te  Te150  1  0.90235960  0.92281680  0.05708330  1
  Te  Te151  1  0.96251177  0.90079452  0.42855015  1
  Te  Te152  1  0.92596287  0.92377335  0.75063920  1
  Te  Te153  1  0.20923815  0.08014139  0.25839573  1
  Te  Te154  1  0.24775394  0.09450671  0.58145823  1
  Te  Te155  1  0.26652330  0.07107689  0.91237730  1
  Te  Te156  1  0.27504745  0.43363452  0.22984076  1
  Te  Te157  1  0.23713952  0.41095031  0.59396384  1
  Te  Te158  1  0.23770166  0.44460131  0.95636873  1
  Te  Te159  1  0.24788767  0.73741998  0.23519656  1
  Te  Te160  1  0.24637862  0.74764689  0.56006276  1
  Te  Te161  1  0.25719515  0.74397882  0.93507422  1
  Te  Te162  1  0.60388754  0.09739389  0.25048582  1
  Te  Te163  1  0.57360010  0.07098795  0.58533839  1
  Te  Te164  1  0.59600067  0.10790709  0.88417836  1
  Te  Te165  1  0.56048987  0.41503593  0.25502465  1
  Te  Te166  1  0.60871577  0.40010441  0.59139827  1
  Te  Te167  1  0.58380576  0.43315076  0.91841042  1
  Te  Te168  1  0.59736235  0.75739032  0.22547025  1
  Te  Te169  1  0.58652906  0.75990760  0.58924125  1
  Te  Te170  1  0.59485109  0.78083225  0.89503513  1
  Te  Te171  1  0.92341145  0.08256402  0.25109928  1
  Te  Te172  1  0.91523141  0.06964983  0.58568452  1
  Te  Te173  1  0.92092616  0.09503337  0.89710238  1
  Te  Te174  1  0.92726368  0.40421641  0.24114824  1
  Te  Te175  1  0.92022485  0.41735882  0.56714628  1
  Te  Te176  1  0.90870118  0.42201914  0.93206514  1
  Te  Te177  1  0.92170496  0.75364847  0.24607696  1
  Te  Te178  1  0.89485068  0.74951177  0.57558887  1
  Te  Te179  1  0.90175894  0.75220519  0.90850131  1
