# generated using pymatgen
data_In2Te3
_symmetry_space_group_name_H-M   'P 1'
_cell_length_a   18.74840158
_cell_length_b   18.74410043
_cell_length_c   18.74751281
_cell_angle_alpha   90.01781847
_cell_angle_beta   89.98986217
_cell_angle_gamma   89.99167047
_symmetry_Int_Tables_number   1
_chemical_formula_structural   In2Te3
_chemical_formula_sum   'In72 Te108'
_cell_volume   6588.28649699
_cell_formula_units_Z   36
loop_
 _symmetry_equiv_pos_site_id
 _symmetry_equiv_pos_as_xyz
  1  'x, y, z'
loop_
 _atom_site_type_symbol
 _atom_site_label
 _atom_site_symmetry_multiplicity
 _atom_site_fract_x
 _atom_site_fract_y
 _atom_site_fract_z
 _atom_site_occupancy
  In  In0  1  0.00013974  0.81967803  0.49673815  1
  In  In1  1  0.81906728  -0.00147696  0.83421866  1
  In  In2  1  0.80008804  0.64127241  0.17207970  1
  In  In3  1  0.03411251  0.50802026  0.51952811  1
  In  In4  1  0.15457192  0.34268249  0.17311292  1
  In  In5  1  0.83216381  0.84395734  0.33659589  1
  In  In6  1  0.34076921  -0.00408752  -0.01031019  1
  In  In7  1  0.50748824  0.66972202  0.50552661  1
  In  In8  1  0.17797032  0.65469880  0.17665707  1
  In  In9  1  0.51863482  0.32535639  0.83495715  1
  In  In10  1  0.34215289  0.35229070  0.00657562  1
  In  In11  1  0.35163174  0.14930973  0.79404172  1
  In  In12  1  -0.01338085  0.66420523  -0.01532554  1
  In  In13  1  -0.01035159  0.85738709  0.17322841  1
  In  In14  1  0.85565243  0.16818051  0.30869884  1
  In  In15  1  0.50375768  0.48494482  0.65815055  1
  In  In16  1  0.16862831  0.01338759  0.49453509  1
  In  In17  1  0.32586060  0.49576735  0.16972087  1
  In  In18  1  0.52862406  0.16391805  -0.01042148  1
  In  In19  1  0.35114016  0.32724059  0.62588017  1
  In  In20  1  0.33041340  0.81927136  0.18264295  1
  In  In21  1  0.00694582  0.34406412  0.66836622  1
  In  In22  1  0.00703811  0.66428016  0.34171876  1
  In  In23  1  0.47979667  0.65307222  0.82338442  1
  In  In24  1  0.34359911  -0.01178845  0.66800248  1
  In  In25  1  0.67275453  0.00607366  0.32316325  1
  In  In26  1  0.47571191  0.83784343  0.34537614  1
  In  In27  1  0.66344522  0.85446587  0.80433521  1
  In  In28  1  0.16483354  0.17447626  0.65806552  1
  In  In29  1  0.82663243  0.35461633  0.82056784  1
  In  In30  1  0.16227855  0.34255834  0.49576163  1
  In  In31  1  0.64765728  0.17157785  0.50304204  1
  In  In32  1  0.17952033  -0.01803040  0.84704974  1
  In  In33  1  0.66114142  0.15647330  0.81062705  1
  In  In34  1  0.49678246  0.49516368  0.34229284  1
  In  In35  1  -0.01967089  -0.00621876  0.65255105  1
  In  In36  1  0.35817100  0.00299837  0.34161099  1
  In  In37  1  0.82808862  0.49260841  0.00563299  1
  In  In38  1  0.30250014  0.81057067  0.52310570  1
  In  In39  1  0.14374780  0.66978522  0.81461670  1
  In  In40  1  0.82492421  0.34156894  0.47505498  1
  In  In41  1  0.66078827  0.63902580  0.32480256  1
  In  In42  1  0.52340220  0.19618662  0.33044737  1
  In  In43  1  -0.00515796  0.34571515  0.02254889  1
  In  In44  1  0.68487368  0.17662782  0.17879645  1
  In  In45  1  0.02862485  -0.00496110  0.00104424  1
  In  In46  1  0.50597081  0.83578551  0.01234900  1
  In  In47  1  0.17176336  0.49631812  0.34659065  1
  In  In48  1  0.86443659  0.66071599  0.80346178  1
  In  In49  1  0.81553591  0.62922055  0.52300461  1
  In  In50  1  0.48422631  0.66644495  0.17297582  1
  In  In51  1  0.83813159  0.17927445  0.01916428  1
  In  In52  1  0.49592005  0.00985354  0.50131692  1
  In  In53  1  0.15525073  0.18586849  0.34466427  1
  In  In54  1  0.84158976  -0.00782868  0.50617875  1
  In  In55  1  0.67700679  0.50711205  0.17533573  1
  In  In56  1  0.16467048  0.81730112  -0.00813981  1
  In  In57  1  0.67875123  0.83923369  0.15904085  1
  In  In58  1  0.00317584  0.18125428  0.82252766  1
  In  In59  1  0.34832968  0.17789582  0.17888873  1
  In  In60  1  0.32175313  0.51525086  0.83354434  1
  In  In61  1  0.14126833  0.14040076  0.02780572  1
  In  In62  1  0.66323950  0.34512466  0.00997812  1
  In  In63  1  0.83460107  0.82760081  0.65529850  1
  In  In64  1  0.66876399  0.34153298  0.67116935  1
  In  In65  1  0.66629457  0.67887683  0.00967694  1
  In  In66  1  0.32253782  0.50237280  0.49730079  1
  In  In67  1  0.66853967  0.48022801  0.82855594  1
  In  In68  1  0.33916168  0.81888638  0.82304046  1
  In  In69  1  0.14923656  0.35988589  0.81825580  1
  In  In70  1  0.14560085  -0.00091746  0.17626384  1
  In  In71  1  0.67112199  0.81655237  0.52285037  1
  Te  Te72  1  0.03506870  0.09891562  0.13581680  1
  Te  Te73  1  0.06915717  0.08822653  0.41581124  1
  Te  Te74  1  0.09084920  0.07482027  0.75161224  1
  Te  Te75  1  0.09418448  0.43974354  0.07874483  1
  Te  Te76  1  0.06007735  0.40760472  0.40206422  1
  Te  Te77  1  0.06961001  0.46291730  0.74055807  1
  Te  Te78  1  0.07375099  0.74724437  0.09213776  1
  Te  Te79  1  0.10454926  0.74269022  0.42211260  1
  Te  Te80  1  0.06948136  0.73577174  0.70299400  1
  Te  Te81  1  0.42313791  0.08922006  0.07697144  1
  Te  Te82  1  0.41796842  0.11746156  0.42458247  1
  Te  Te83  1  0.45780582  0.05172022  0.74728311  1
  Te  Te84  1  0.43291801  0.41490829  0.10328779  1
  Te  Te85  1  0.41515747  0.40730729  0.43155805  1
  Te  Te86  1  0.41109919  0.40470344  0.75553489  1
  Te  Te87  1  0.39933372  0.74212634  0.07012468  1
  Te  Te88  1  0.39657301  0.73545543  0.42142431  1
  Te  Te89  1  0.42400713  0.74815040  0.72326802  1
  Te  Te90  1  0.73546131  0.08791217  0.07163506  1
  Te  Te91  1  0.75472404  0.08963238  0.41985244  1
  Te  Te92  1  0.77075998  0.09426087  0.73292598  1
  Te  Te93  1  0.77343389  0.39211354  0.11316726  1
  Te  Te94  1  0.73789322  0.43031542  0.39469752  1
  Te  Te95  1  0.77504552  0.45849592  0.71515425  1
  Te  Te96  1  0.77821113  0.75975344  0.07405603  1
  Te  Te97  1  0.75556012  0.73962535  0.41939149  1
  Te  Te98  1  0.74630186  0.73824180  0.74296271  1
  Te  Te99  1  0.06146174  0.26742959  0.26131535  1
  Te  Te100  1  0.06651595  0.24374434  0.56760528  1
  Te  Te101  1  0.09060293  0.25491131  0.92362307  1
  Te  Te102  1  0.07640595  0.56471896  0.24760446  1
  Te  Te103  1  0.09846377  0.62448415  0.59468599  1
  Te  Te104  1  0.08503983  0.57894806  0.91645351  1
  Te  Te105  1  0.09015742  0.90117395  0.27192531  1
  Te  Te106  1  0.08898725  0.91411232  0.58182427  1
  Te  Te107  1  0.07002120  0.88842718  0.89538607  1
  Te  Te108  1  0.42224684  0.27761670  0.25762047  1
  Te  Te109  1  0.40622545  0.20316201  0.57393680  1
  Te  Te110  1  0.41332862  0.24300335  0.91392099  1
  Te  Te111  1  0.39808788  0.59032383  0.27068986  1
  Te  Te112  1  0.41097361  0.58566117  0.59186364  1
  Te  Te113  1  0.42087834  0.56964956  0.92964878  1
  Te  Te114  1  0.43013466  0.92508528  0.22876817  1
  Te  Te115  1  0.42023546  0.89696913  0.57210806  1
  Te  Te116  1  0.43144167  0.91440847  0.90067831  1
  Te  Te117  1  0.74555255  0.26494112  0.28096080  1
  Te  Te118  1  0.75455277  0.25194887  0.58133717  1
  Te  Te119  1  0.74415377  0.25970710  0.91071974  1
  Te  Te120  1  0.78846126  0.54033128  0.29597326  1
  Te  Te121  1  0.71930684  0.56567272  0.61332525  1
  Te  Te122  1  0.74912455  0.58726671  0.91384555  1
  Te  Te123  1  0.77491028  0.93926936  0.23096302  1
  Te  Te124  1  0.73671226  0.93171509  0.59970605  1
  Te  Te125  1  0.73701123  0.91069343  0.92004565  1
  Te  Te126  1  0.24639734  0.24631978  0.08233582  1
  Te  Te127  1  0.25833245  0.25741953  0.42242311  1
  Te  Te128  1  0.24817751  0.26303009  0.75194587  1
  Te  Te129  1  0.25545553  0.58395596  0.07340072  1
  Te  Te130  1  0.23091478  0.60082097  0.43273939  1
  Te  Te131  1  0.25145045  0.59937371  0.73246262  1
  Te  Te132  1  0.24231429  0.91884928  0.07831111  1
  Te  Te133  1  0.25875160  0.91599163  0.41657579  1
  Te  Te134  1  0.23878309  0.89841350  0.73579962  1
  Te  Te135  1  0.57610029  0.25902982  0.09893006  1
  Te  Te136  1  0.59510355  0.28793463  0.42528947  1
  Te  Te137  1  0.56539075  0.23684327  0.72206602  1
  Te  Te138  1  0.57672586  0.58133495  0.08534679  1
  Te  Te139  1  0.59869238  0.56492262  0.44218917  1
  Te  Te140  1  0.58994166  0.58024308  0.74183681  1
  Te  Te141  1  0.59120000  0.93197730  0.08445142  1
  Te  Te142  1  0.59415770  0.90892837  0.41491821  1
  Te  Te143  1  0.57449926  0.94640521  0.73013200  1
  Te  Te144  1  0.91744281  0.25986411  0.11580665  1
  Te  Te145  1  0.92748160  0.26012359  0.40212878  1
  Te  Te146  1  0.90161970  0.25169897  0.73446560  1
  Te  Te147  1  0.92287787  0.57016162  0.10280403  1
  Te  Te148  1  0.92527048  0.57087398  0.43109046  1
  Te  Te149  1  0.94102929  0.55410171  0.73809807  1
  Te  Te150  1  0.91503441  0.92745653  0.06720128  1
  Te  Te151  1  0.93839711  0.92854304  0.40584601  1
  Te  Te152  1  0.91707557  0.90470926  0.75817650  1
  Te  Te153  1  0.25290012  0.07956585  0.25314711  1
  Te  Te154  1  0.27116173  0.09511721  0.58060040  1
  Te  Te155  1  0.25198812  0.09817212  0.91432583  1
  Te  Te156  1  0.25985769  0.39887686  0.26891993  1
  Te  Te157  1  0.23637720  0.42229710  0.60295501  1
  Te  Te158  1  0.23544368  0.42822145  0.92636350  1
  Te  Te159  1  0.23266329  0.75603427  0.27120923  1
  Te  Te160  1  0.21935954  0.72369161  0.61682401  1
  Te  Te161  1  0.25680992  0.72795765  0.91304573  1
  Te  Te162  1  0.57187799  0.08254791  0.24133511  1
  Te  Te163  1  0.59776773  0.06460098  0.59636460  1
  Te  Te164  1  0.59977040  0.06329533  0.90833895  1
  Te  Te165  1  0.59313440  0.41759247  0.25845834  1
  Te  Te166  1  0.57215986  0.38841507  0.56694766  1
  Te  Te167  1  0.56520814  0.43407959  0.93210021  1
  Te  Te168  1  0.58627216  0.75646913  0.25358294  1
  Te  Te169  1  0.57295285  0.75179025  0.61216944  1
  Te  Te170  1  0.57956255  0.74947626  0.90565107  1
  Te  Te171  1  0.91567819  0.05975791  0.22904479  1
  Te  Te172  1  0.91845247  0.10048346  0.57368642  1
  Te  Te173  1  0.92902428  0.09081625  0.92125755  1
  Te  Te174  1  0.89246355  0.44887621  0.19922937  1
  Te  Te175  1  0.91736899  0.42149132  0.57248757  1
  Te  Te176  1  0.92795309  0.42737347  0.90859643  1
  Te  Te177  1  0.90398414  0.73817955  0.24988715  1
  Te  Te178  1  0.92141416  0.72266533  0.58665151  1
  Te  Te179  1  0.90888646  0.75939108  0.90388883  1
