# generated using pymatgen
data_In2Te3
_symmetry_space_group_name_H-M   'P 1'
_cell_length_a   19.04083831
_cell_length_b   19.00049838
_cell_length_c   19.03988881
_cell_angle_alpha   90.14027689
_cell_angle_beta   90.07100907
_cell_angle_gamma   89.95365554
_symmetry_Int_Tables_number   1
_chemical_formula_structural   In2Te3
_chemical_formula_sum   'In72 Te108'
_cell_volume   6888.32594750
_cell_formula_units_Z   36
loop_
 _symmetry_equiv_pos_site_id
 _symmetry_equiv_pos_as_xyz
  1  'x, y, z'
loop_
 _atom_site_type_symbol
 _atom_site_label
 _atom_site_symmetry_multiplicity
 _atom_site_fract_x
 _atom_site_fract_y
 _atom_site_fract_z
 _atom_site_occupancy
  In  In0  1  0.16190029  0.64061825  0.46475964  1
  In  In1  1  0.32533797  0.48953572  0.16699330  1
  In  In2  1  0.17147532  -0.01959847  0.49177262  1
  In  In3  1  0.34601426  0.83103217  0.46949879  1
  In  In4  1  0.48765512  0.14320703  0.33046948  1
  In  In5  1  0.52137528  0.14113467  0.67364697  1
  In  In6  1  0.16531166  -0.00277721  0.81922859  1
  In  In7  1  0.66886282  0.47593740  0.83191557  1
  In  In8  1  0.66156978  0.35098356  0.01825471  1
  In  In9  1  0.51926347  0.68228217  0.50345190  1
  In  In10  1  -0.00132022  0.33604931  0.35639258  1
  In  In11  1  0.20928016  0.84698969  0.66989054  1
  In  In12  1  0.51408710  0.19334108  -0.00417966  1
  In  In13  1  0.53196629  0.86792041  0.67696204  1
  In  In14  1  -0.02247122  0.17092704  0.17534987  1
  In  In15  1  0.33306791  0.32606346  0.66428332  1
  In  In16  1  0.35278562  -0.01296384  0.00489260  1
  In  In17  1  0.34551663  0.85294879  0.83253205  1
  In  In18  1  0.83591757  0.67400433  0.51296753  1
  In  In19  1  -0.02029941  0.46542977  0.84864313  1
  In  In20  1  0.50234488  0.51598651  0.32852942  1
  In  In21  1  0.77880326  0.89773665  -0.00796426  1
  In  In22  1  -0.01555356  0.19568351  0.50479032  1
  In  In23  1  0.17516150  0.51493915  0.67800732  1
  In  In24  1  -0.01286689  0.46562183  0.51857080  1
  In  In25  1  0.67919458  0.81789656  0.17033620  1
  In  In26  1  0.00638439  0.84836776  0.81461421  1
  In  In27  1  0.80425869  0.84633697  0.69045925  1
  In  In28  1  0.81382148  0.14690833  -0.01193243  1
  In  In29  1  0.84265531  0.02251381  0.47537955  1
  In  In30  1  0.15852362  0.83084145  0.00217684  1
  In  In31  1  0.67153111  0.34761810  0.33521047  1
  In  In32  1  -0.00034143  0.51109629  0.15751109  1
  In  In33  1  0.66047527  0.85072283  0.48317665  1
  In  In34  1  -0.01533642  0.00515492  0.65872413  1
  In  In35  1  0.31728976  0.18276304  0.17823707  1
  In  In36  1  0.49768789  -0.00645124  0.47988411  1
  In  In37  1  0.01001538  0.65764904  0.70930669  1
  In  In38  1  0.67978851  0.16306483  0.47812641  1
  In  In39  1  0.15703491  0.02350911  0.16156002  1
  In  In40  1  0.34860791  0.68104086  0.64164866  1
  In  In41  1  0.19593221  0.65862010  0.86441465  1
  In  In42  1  0.16399692  0.48067837  0.01370486  1
  In  In43  1  0.69536518  0.50662162  0.51604534  1
  In  In44  1  0.00347100  0.65347252  0.31674182  1
  In  In45  1  -0.00125800  0.80282238  0.50723961  1
  In  In46  1  0.32778754  0.52750893  0.49245762  1
  In  In47  1  0.49647513  0.64865817  0.84792796  1
  In  In48  1  0.83484155  0.83043042  0.32374970  1
  In  In49  1  0.17437931  0.32483285  0.80737132  1
  In  In50  1  0.51046970  0.46731250  0.69231604  1
  In  In51  1  -0.07165550  0.24848974  0.84313981  1
  In  In52  1  0.82370105  0.53338014  0.31148742  1
  In  In53  1  -0.00633938  0.65781694  0.01113053  1
  In  In54  1  0.48337549  0.80387336  0.02415010  1
  In  In55  1  0.17120624  0.16544019  0.61964956  1
  In  In56  1  0.33588924  0.82736344  0.20440812  1
  In  In57  1  0.81544422  0.33382608  0.17085505  1
  In  In58  1  0.66706179  0.67601122  -0.00704562  1
  In  In59  1  0.00346364  0.01106398  0.31054267  1
  In  In60  1  0.32868593  0.31998653  -0.01642310  1
  In  In61  1  0.17955003  0.17227487  0.36459870  1
  In  In62  1  0.48564111  0.33987160  0.50691925  1
  In  In63  1  0.50160219  0.31723528  0.18307129  1
  In  In64  1  0.52010396  0.52280221  0.02167544  1
  In  In65  1  -0.01480761  0.83512777  0.14984033  1
  In  In66  1  0.14812576  0.35965745  0.18121941  1
  In  In67  1  0.65821959  0.15752241  0.84272807  1
  In  In68  1  0.71241338  0.25032330  0.68259534  1
  In  In69  1  0.49034037  -0.00300543  0.16764203  1
  In  In70  1  0.15016811  0.16029361  -0.01736815  1
  In  In71  1  0.83109396  0.66690360  0.83617123  1
  Te  Te72  1  0.05450033  0.08528478  0.07130224  1
  Te  Te73  1  0.06851982  0.08071594  0.42869071  1
  Te  Te74  1  0.08345575  0.08834332  0.73426700  1
  Te  Te75  1  0.05390740  0.39631863  0.07007637  1
  Te  Te76  1  0.09064850  0.42637309  0.42518867  1
  Te  Te77  1  0.07654726  0.41896019  0.73966638  1
  Te  Te78  1  0.09072701  0.73586399  0.09679443  1
  Te  Te79  1  0.08681044  0.75382285  0.39554595  1
  Te  Te80  1  0.12378733  0.75658692  0.76439169  1
  Te  Te81  1  0.40868320  0.10660404  0.08485273  1
  Te  Te82  1  0.39632729  0.08855768  0.43059299  1
  Te  Te83  1  0.49260106  0.02791997  0.76534962  1
  Te  Te84  1  0.41884280  0.39351821  0.08147836  1
  Te  Te85  1  0.40951799  0.42800092  0.41195675  1
  Te  Te86  1  0.39632242  0.41430240  0.76224020  1
  Te  Te87  1  0.41456168  0.72710142  0.12747846  1
  Te  Te88  1  0.42382703  0.72638295  0.40188676  1
  Te  Te89  1  0.42994050  0.76165469  0.74070965  1
  Te  Te90  1  0.77890982  0.02728852  0.06982610  1
  Te  Te91  1  0.73122171  0.05809962  0.38885928  1
  Te  Te92  1  0.73486915  0.11057616  0.72578680  1
  Te  Te93  1  0.74897376  0.43964543  0.09537932  1
  Te  Te94  1  0.77299530  0.43191588  0.40989926  1
  Te  Te95  1  0.74538936  0.39202820  0.73679949  1
  Te  Te96  1  0.77041875  0.76221452  0.06096313  1
  Te  Te97  1  0.74861872  0.74576090  0.41443889  1
  Te  Te98  1  0.73273076  0.76021577  0.78221491  1
  Te  Te99  1  0.08830366  0.23756045  0.25999807  1
  Te  Te100  1  0.07410831  0.27489359  0.58928333  1
  Te  Te101  1  0.07489837  0.25632416  0.89741119  1
  Te  Te102  1  0.09834800  0.56580795  0.24984660  1
  Te  Te103  1  0.07844974  0.59518221  0.58883806  1
  Te  Te104  1  0.07820146  0.57522505  0.90818109  1
  Te  Te105  1  0.08661731  0.91108016  0.23524770  1
  Te  Te106  1  0.08144137  0.90152468  0.59878940  1
  Te  Te107  1  0.07713187  0.92894026  0.92150825  1
  Te  Te108  1  0.39860800  0.26002233  0.27726195  1
  Te  Te109  1  0.42727828  0.23183661  0.59141986  1
  Te  Te110  1  0.40600189  0.22566597  0.90389690  1
  Te  Te111  1  0.42680678  0.58411131  0.22120474  1
  Te  Te112  1  0.43964501  0.57268640  0.58709961  1
  Te  Te113  1  0.41234884  0.58338331  0.94554183  1
  Te  Te114  1  0.43237693  0.91436397  0.27486463  1
  Te  Te115  1  0.42302418  0.90473966  0.57789053  1
  Te  Te116  1  0.44890668  0.93409546  0.90507396  1
  Te  Te117  1  0.76429316  0.24738973  0.27856417  1
  Te  Te118  1  0.76242842  0.26843811  0.54111445  1
  Te  Te119  1  0.73716232  0.26338234  0.92236476  1
  Te  Te120  1  0.72338230  0.60730933  0.23647641  1
  Te  Te121  1  0.76630213  0.59224739  0.61047964  1
  Te  Te122  1  0.74841711  0.57065191  0.91969706  1
  Te  Te123  1  0.74720192  0.92092755  0.25125349  1
  Te  Te124  1  0.76870343  0.92017459  0.56479202  1
  Te  Te125  1  0.69573447  0.96953383  0.89081802  1
  Te  Te126  1  0.22327770  0.25304276  0.08192317  1
  Te  Te127  1  0.21864126  0.23486973  0.49106368  1
  Te  Te128  1  0.25727746  0.22002907  0.74033339  1
  Te  Te129  1  0.23737999  0.57912853  0.08982820  1
  Te  Te130  1  0.28234093  0.61588167  0.37810525  1
  Te  Te131  1  0.27701882  0.59922402  0.75138231  1
  Te  Te132  1  0.25200231  0.91839883  0.09422113  1
  Te  Te133  1  0.24430943  0.90230969  0.39158978  1
  Te  Te134  1  0.28649575  0.95619640  0.73725503  1
  Te  Te135  1  0.60776335  0.24058457  0.10752835  1
  Te  Te136  1  0.57166790  0.25864333  0.41011473  1
  Te  Te137  1  0.57420003  0.25271439  0.75850837  1
  Te  Te138  1  0.60257649  0.61020987  0.11073903  1
  Te  Te139  1  0.60123703  0.58242510  0.42423564  1
  Te  Te140  1  0.59016849  0.58120407  0.75159251  1
  Te  Te141  1  0.57582106  0.90085422  0.08907710  1
  Te  Te142  1  0.56096956  0.89827543  0.38512634  1
  Te  Te143  1  0.62738539  0.95750162  0.74990166  1
  Te  Te144  1  0.89502202  0.24676149  0.07668873  1
  Te  Te145  1  0.89931362  0.23284774  0.38976066  1
  Te  Te146  1  0.87532655  0.30323711  0.71271401  1
  Te  Te147  1  0.89620480  0.56953130  0.07261423  1
  Te  Te148  1  0.92501917  0.58355471  0.42934549  1
  Te  Te149  1  0.90701857  0.55836859  0.75241527  1
  Te  Te150  1  0.91294772  0.92676174  0.06103695  1
  Te  Te151  1  0.93441705  0.90812169  0.41836249  1
  Te  Te152  1  0.89752240  0.93994772  0.76577644  1
  Te  Te153  1  0.25197353  0.07915985  0.26648481  1
  Te  Te154  1  0.26775013  0.06790119  0.55923993  1
  Te  Te155  1  0.25306492  0.06934299  0.92180205  1
  Te  Te156  1  0.25556278  0.40602076  0.26590971  1
  Te  Te157  1  0.25460636  0.43021674  0.58196287  1
  Te  Te158  1  0.24672928  0.41897352  0.90356095  1
  Te  Te159  1  0.25408946  0.74058554  0.28940828  1
  Te  Te160  1  0.23661174  0.74358556  0.56100757  1
  Te  Te161  1  0.27824662  0.76420078  0.93558367  1
  Te  Te162  1  0.58249583  0.08931984  0.23469024  1
  Te  Te163  1  0.59773103  0.06983469  0.56450888  1
  Te  Te164  1  0.60068122  0.07851857  0.95644319  1
  Te  Te165  1  0.58877315  0.42767589  0.23858073  1
  Te  Te166  1  0.59539857  0.41003305  0.58203404  1
  Te  Te167  1  0.56335154  0.41667727  0.92253190  1
  Te  Te168  1  0.61022571  0.71263308  0.24583134  1
  Te  Te169  1  0.60784306  0.76271988  0.59567256  1
  Te  Te170  1  0.57414538  0.76226259  0.91056209  1
  Te  Te171  1  0.89305756  0.06925442  0.23773689  1
  Te  Te172  1  0.89561822  0.10588256  0.59064699  1
  Te  Te173  1  0.90644539  0.10984153  0.88158152  1
  Te  Te174  1  0.92038293  0.42125202  0.25683712  1
  Te  Te175  1  0.88672820  0.37557637  0.57469954  1
  Te  Te176  1  0.88256503  0.37526271  0.90822633  1
  Te  Te177  1  0.90786662  0.73432809  0.23240312  1
  Te  Te178  1  0.92145636  0.75224933  0.62811428  1
  Te  Te179  1  0.93531010  0.75189534  0.90677772  1
