# generated using pymatgen
data_In2Te3
_symmetry_space_group_name_H-M   'P 1'
_cell_length_a   18.83218504
_cell_length_b   18.82561457
_cell_length_c   18.81390711
_cell_angle_alpha   89.94725915
_cell_angle_beta   89.96207100
_cell_angle_gamma   89.95052835
_symmetry_Int_Tables_number   1
_chemical_formula_structural   In2Te3
_chemical_formula_sum   'In72 Te108'
_cell_volume   6670.03987666
_cell_formula_units_Z   36
loop_
 _symmetry_equiv_pos_site_id
 _symmetry_equiv_pos_as_xyz
  1  'x, y, z'
loop_
 _atom_site_type_symbol
 _atom_site_label
 _atom_site_symmetry_multiplicity
 _atom_site_fract_x
 _atom_site_fract_y
 _atom_site_fract_z
 _atom_site_occupancy
  In  In0  1  -0.00194415  0.51104178  0.80955979  1
  In  In1  1  0.18339248  0.14363870  0.65395585  1
  In  In2  1  0.00575125  0.65972376  0.33718670  1
  In  In3  1  0.48828597  0.00560860  0.49924037  1
  In  In4  1  0.16855341  0.14357138  0.32652630  1
  In  In5  1  0.62000344  0.13496719  0.84823943  1
  In  In6  1  0.19117142  0.67267252  0.48161769  1
  In  In7  1  0.34692529  0.67847568  0.65715710  1
  In  In8  1  -0.01492928  0.50352672  0.52595701  1
  In  In9  1  0.81925780  0.85235587  -0.01268992  1
  In  In10  1  -0.00190794  0.16239526  0.47584395  1
  In  In11  1  0.34433713  0.32789851  -0.01287950  1
  In  In12  1  0.01446719  -0.00820243  0.66577481  1
  In  In13  1  0.34791157  0.68690267  -0.00351528  1
  In  In14  1  0.67079621  -0.00831365  0.33735251  1
  In  In15  1  0.81382050  -0.01167437  0.50041564  1
  In  In16  1  0.34305447  0.33520653  0.66788753  1
  In  In17  1  0.01162227  -0.01395198  0.34041579  1
  In  In18  1  0.82152736  0.51174153  0.00331162  1
  In  In19  1  0.65577816  0.15941273  0.16967194  1
  In  In20  1  0.17432295  0.67845519  0.83166047  1
  In  In21  1  0.49831408  0.85392934  0.65360023  1
  In  In22  1  0.83378752  0.34811055  0.82300403  1
  In  In23  1  0.67543875  0.49880606  0.50609531  1
  In  In24  1  0.34020836  0.52330332  0.16381470  1
  In  In25  1  0.15349022  0.34619089  0.50705319  1
  In  In26  1  0.32858927  0.15229940  0.49962074  1
  In  In27  1  0.01875656  0.01700632  0.01880283  1
  In  In28  1  0.47701908  0.83237911  0.32544176  1
  In  In29  1  0.17849198  0.84211148  0.00852221  1
  In  In30  1  0.83021374  0.66684811  0.16265362  1
  In  In31  1  0.83548505  0.51213299  0.33140691  1
  In  In32  1  0.01139833  0.83598055  0.19194685  1
  In  In33  1  0.65944993  0.51160412  0.85139886  1
  In  In34  1  0.49055213  0.49018259  0.31912024  1
  In  In35  1  0.35223203  0.15726517  0.82567053  1
  In  In36  1  0.48947871  0.50550976  0.66428760  1
  In  In37  1  0.17719203  0.68139154  0.21276514  1
  In  In38  1  0.48957763  0.84783134  0.01040603  1
  In  In39  1  -0.01850013  0.67131640  -0.00394647  1
  In  In40  1  0.81981844  0.00625554  0.82249386  1
  In  In41  1  0.00489586  0.34083070  0.34896074  1
  In  In42  1  0.66195718  0.69935161  0.32835731  1
  In  In43  1  0.01087339  0.83094621  0.81640245  1
  In  In44  1  0.50166931  0.49264240  0.01924540  1
  In  In45  1  0.66631708  0.32327987  0.00204516  1
  In  In46  1  0.34654522  0.33278562  0.32883056  1
  In  In47  1  -0.01585527  0.81313103  0.52546048  1
  In  In48  1  0.19217591  0.34303099  0.18967054  1
  In  In49  1  0.49623474  0.15186802  0.65887212  1
  In  In50  1  0.66452466  0.65164257  0.00533668  1
  In  In51  1  0.14684981  0.14885921  0.01240133  1
  In  In52  1  0.00378803  0.31742357  0.01815003  1
  In  In53  1  0.49178990  0.68462552  0.48425303  1
  In  In54  1  0.33869550  -0.00922383  0.00488683  1
  In  In55  1  0.21009062  -0.03289287  0.80252699  1
  In  In56  1  0.17028660  0.51574125  0.66148742  1
  In  In57  1  0.68222033  0.82234979  0.51866370  1
  In  In58  1  0.00096902  0.37167519  0.65186919  1
  In  In59  1  0.83354559  0.00406411  0.19313276  1
  In  In60  1  0.84284914  0.52268787  0.65722354  1
  In  In61  1  0.63031383  0.31298298  0.34893356  1
  In  In62  1  0.50625907  -0.00615075  0.17291555  1
  In  In63  1  0.82659482  0.33084324  0.16159881  1
  In  In64  1  0.66584753  0.81864673  0.79470900  1
  In  In65  1  0.18958709  0.48007541  0.00448519  1
  In  In66  1  0.80930671  0.17692676  0.02048244  1
  In  In67  1  0.65905898  0.31820673  0.65149583  1
  In  In68  1  0.00857603  0.17728937  0.85387989  1
  In  In69  1  0.35584013  0.16488274  0.17755980  1
  In  In70  1  0.81698955  0.18486255  0.65133192  1
  In  In71  1  0.50061080  0.65227242  0.82976127  1
  Te  Te72  1  0.09908189  0.07170895  0.12991508  1
  Te  Te73  1  0.10472726  0.06151419  0.43833827  1
  Te  Te74  1  0.08975927  0.08053841  0.76754189  1
  Te  Te75  1  0.08964916  0.41485053  0.09875599  1
  Te  Te76  1  0.08389096  0.44958971  0.41977591  1
  Te  Te77  1  0.10245612  0.41366871  0.75655734  1
  Te  Te78  1  0.08062539  0.74935809  0.08401544  1
  Te  Te79  1  0.08814862  0.76806960  0.40815637  1
  Te  Te80  1  0.09817934  0.75158662  0.72863518  1
  Te  Te81  1  0.43863241  0.09411314  0.06410080  1
  Te  Te82  1  0.40304067  0.07386788  0.39662151  1
  Te  Te83  1  0.41617155  0.05696697  0.73898762  1
  Te  Te84  1  0.41114790  0.40272896  0.10368042  1
  Te  Te85  1  0.42531475  0.41004163  0.42575469  1
  Te  Te86  1  0.42465459  0.41558534  0.76095013  1
  Te  Te87  1  0.42133313  0.75434401  0.10382600  1
  Te  Te88  1  0.38075825  0.76041047  0.41827702  1
  Te  Te89  1  0.42452419  0.76112959  0.75803481  1
  Te  Te90  1  0.73889210  0.06055711  0.08379912  1
  Te  Te91  1  0.76848189  0.08470214  0.39938681  1
  Te  Te92  1  0.72943014  0.09778127  0.74103447  1
  Te  Te93  1  0.73133426  0.42882483  0.09159461  1
  Te  Te94  1  0.74125109  0.41420351  0.39892429  1
  Te  Te95  1  0.73744266  0.42835406  0.73844211  1
  Te  Te96  1  0.74175942  0.76049478  0.08165970  1
  Te  Te97  1  0.76537024  0.75623071  0.41603838  1
  Te  Te98  1  0.76041890  0.75148543  0.70395930  1
  Te  Te99  1  0.08799372  0.25201002  0.25498577  1
  Te  Te100  1  0.07752562  0.24299528  0.59174975  1
  Te  Te101  1  0.10940844  0.26927164  0.91940357  1
  Te  Te102  1  0.07907106  0.57622666  0.24041734  1
  Te  Te103  1  0.08623744  0.60714966  0.57614183  1
  Te  Te104  1  0.08034866  0.58113725  0.91792146  1
  Te  Te105  1  0.11862733  0.92417552  0.24899374  1
  Te  Te106  1  0.09011255  0.90361190  0.57655334  1
  Te  Te107  1  0.08656815  0.92323486  0.91416354  1
  Te  Te108  1  0.44618441  0.24795745  0.26058048  1
  Te  Te109  1  0.42196881  0.25058283  0.56843543  1
  Te  Te110  1  0.43671086  0.23839353  0.91517543  1
  Te  Te111  1  0.42105176  0.60476900  0.25490110  1
  Te  Te112  1  0.40666474  0.57966137  0.55822931  1
  Te  Te113  1  0.41161360  0.57080341  0.92191881  1
  Te  Te114  1  0.39341566  0.92662445  0.24354167  1
  Te  Te115  1  0.39351882  0.90808035  0.56217381  1
  Te  Te116  1  0.42765986  0.92942777  0.90149488  1
  Te  Te117  1  0.74322718  0.24831227  0.25654021  1
  Te  Te118  1  0.72886128  0.24098918  0.54239171  1
  Te  Te119  1  0.74892607  0.24219687  0.89454312  1
  Te  Te120  1  0.73399643  0.58420470  0.24470772  1
  Te  Te121  1  0.75121829  0.60644164  0.57556386  1
  Te  Te122  1  0.77089869  0.60419696  0.89525884  1
  Te  Te123  1  0.75331808  0.89915252  0.25636956  1
  Te  Te124  1  0.73512492  0.92726545  0.60976762  1
  Te  Te125  1  0.71830244  0.92389291  0.90002265  1
  Te  Te126  1  0.25085430  0.24205680  0.08931610  1
  Te  Te127  1  0.23638006  0.25387500  0.41787667  1
  Te  Te128  1  0.25018271  0.24314806  0.74730747  1
  Te  Te129  1  0.23819818  0.60611940  0.07736076  1
  Te  Te130  1  0.23083822  0.56707329  0.38757736  1
  Te  Te131  1  0.26854044  0.58712764  0.75341910  1
  Te  Te132  1  0.25922594  0.91641204  0.10611177  1
  Te  Te133  1  0.20214730  0.86995164  0.37453164  1
  Te  Te134  1  0.26567353  0.88300155  0.69693192  1
  Te  Te135  1  0.57336818  0.25265367  0.09022487  1
  Te  Te136  1  0.59790041  0.21030357  0.45155221  1
  Te  Te137  1  0.57120488  0.24686492  0.75446588  1
  Te  Te138  1  0.57071424  0.59269991  0.10174086  1
  Te  Te139  1  0.58647473  0.58727876  0.41357923  1
  Te  Te140  1  0.59927610  0.58837964  0.73401364  1
  Te  Te141  1  0.59649654  0.91711885  0.08506054  1
  Te  Te142  1  0.57760522  0.89943561  0.42616117  1
  Te  Te143  1  0.58741102  0.93295824  0.74178595  1
  Te  Te144  1  0.92565957  0.22216286  0.10633860  1
  Te  Te145  1  0.90477914  0.26123769  0.42174969  1
  Te  Te146  1  0.92626432  0.25124581  0.74837863  1
  Te  Te147  1  0.92723315  0.56943545  0.09627983  1
  Te  Te148  1  0.90596573  0.59922219  0.43447823  1
  Te  Te149  1  0.93577699  0.61712399  0.72753301  1
  Te  Te150  1  0.92524268  0.91107481  0.08238088  1
  Te  Te151  1  0.91289033  0.90251962  0.42232289  1
  Te  Te152  1  0.90596173  0.91292068  0.73901289  1
  Te  Te153  1  0.28702394  0.06960781  0.27235710  1
  Te  Te154  1  0.25747553  0.04475440  0.57483853  1
  Te  Te155  1  0.24282062  0.07812858  0.91579131  1
  Te  Te156  1  0.25117715  0.45414415  0.27924958  1
  Te  Te157  1  0.26084899  0.42819935  0.57496616  1
  Te  Te158  1  0.27113478  0.42132107  0.89824969  1
  Te  Te159  1  0.27322214  0.76116096  0.29224973  1
  Te  Te160  1  0.24171175  0.76632064  0.59307982  1
  Te  Te161  1  0.26723611  0.77625393  0.90291901  1
  Te  Te162  1  0.57052807  0.08807407  0.27424921  1
  Te  Te163  1  0.59525313  0.09301425  0.55916452  1
  Te  Te164  1  0.53931760  0.06137622  0.94619809  1
  Te  Te165  1  0.58221662  0.40238712  0.24244042  1
  Te  Te166  1  0.56898370  0.41132512  0.57139992  1
  Te  Te167  1  0.57208562  0.40611091  0.91308891  1
  Te  Te168  1  0.56530980  0.75651528  0.23255026  1
  Te  Te169  1  0.57938246  0.73829762  0.59496892  1
  Te  Te170  1  0.58452159  0.74654932  0.91537660  1
  Te  Te171  1  0.92742835  0.08639460  0.26990422  1
  Te  Te172  1  0.91665214  0.08583049  0.58911778  1
  Te  Te173  1  0.90876294  0.08306789  0.92377501  1
  Te  Te174  1  0.91963599  0.41771834  0.24584245  1
  Te  Te175  1  0.87953914  0.39887951  0.56885711  1
  Te  Te176  1  0.92190522  0.41510068  0.92815547  1
  Te  Te177  1  0.90704913  0.75251153  0.26262248  1
  Te  Te178  1  0.88923375  0.74106040  0.61418385  1
  Te  Te179  1  0.90298203  0.75879150  0.89975805  1
