# generated using pymatgen
data_In2Te3
_symmetry_space_group_name_H-M   'P 1'
_cell_length_a   18.77152583
_cell_length_b   18.76786714
_cell_length_c   18.76931409
_cell_angle_alpha   90.02199565
_cell_angle_beta   90.00273782
_cell_angle_gamma   89.98549330
_symmetry_Int_Tables_number   1
_chemical_formula_structural   In2Te3
_chemical_formula_sum   'In72 Te108'
_cell_volume   6612.45685485
_cell_formula_units_Z   36
loop_
 _symmetry_equiv_pos_site_id
 _symmetry_equiv_pos_as_xyz
  1  'x, y, z'
loop_
 _atom_site_type_symbol
 _atom_site_label
 _atom_site_symmetry_multiplicity
 _atom_site_fract_x
 _atom_site_fract_y
 _atom_site_fract_z
 _atom_site_occupancy
  In  In0  1  0.83782385  0.18308255  0.34512405  1
  In  In1  1  0.31896519  0.33030062  0.64590456  1
  In  In2  1  0.30858376  0.35431812  -0.00957418  1
  In  In3  1  0.32412302  0.67200924  -0.03743533  1
  In  In4  1  0.16276782  0.82459854  0.66150106  1
  In  In5  1  0.17034991  -0.00292620  0.83577843  1
  In  In6  1  0.66819084  0.18276490  0.52645345  1
  In  In7  1  -0.02098972  0.81989260  0.20715102  1
  In  In8  1  0.16704022  0.00483242  0.50570240  1
  In  In9  1  0.50565199  0.85684267  0.67689521  1
  In  In10  1  0.68829590  0.49701366  0.83079802  1
  In  In11  1  0.48862032  -0.00191181  0.51872478  1
  In  In12  1  0.70504217  0.80918796  0.48438039  1
  In  In13  1  0.16013107  0.35913423  0.48285952  1
  In  In14  1  -0.00787960  0.80818576  0.50834233  1
  In  In15  1  0.30415958  0.64546817  0.66930160  1
  In  In16  1  0.80998802  -0.00350990  0.17255711  1
  In  In17  1  0.81067427  -0.01119541  0.82014645  1
  In  In18  1  0.14754092  0.19205344  0.00084402  1
  In  In19  1  -0.00749549  0.68279683  0.00450932  1
  In  In20  1  0.00153038  0.19613456  0.81656273  1
  In  In21  1  0.33999560  0.83450971  0.16798992  1
  In  In22  1  0.84923664  0.50793013  0.35343368  1
  In  In23  1  0.34147081  0.82090262  0.81882080  1
  In  In24  1  -0.00528101  0.14826287  0.48702552  1
  In  In25  1  0.47694678  0.32545547  0.48368397  1
  In  In26  1  0.66879895  0.33346724  0.01372248  1
  In  In27  1  0.01479625  0.81202384  0.80945249  1
  In  In28  1  0.67141844  0.32868499  0.32685110  1
  In  In29  1  0.81751292  0.34999705  0.17654262  1
  In  In30  1  -0.00868593  0.33448636  -0.01653894  1
  In  In31  1  0.50580821  0.49198324  0.34629054  1
  In  In32  1  0.17727436  0.16411449  0.66908859  1
  In  In33  1  0.16039673  0.49292118  -0.00814341  1
  In  In34  1  -0.00815658  0.51092566  0.19476528  1
  In  In35  1  0.51759912  0.67882906  0.16964975  1
  In  In36  1  0.66192370  0.15651876  0.81886328  1
  In  In37  1  0.50218549  0.65933881  0.50196362  1
  In  In38  1  0.21243128  0.82674678  -0.00351161  1
  In  In39  1  0.48815708  0.52719754  -0.00225849  1
  In  In40  1  0.82501567  0.66558804  0.19173322  1
  In  In41  1  0.66417096  -0.00560285  0.32415710  1
  In  In42  1  0.83334502  0.83954891  -0.01188970  1
  In  In43  1  0.52237161  0.84427816  -0.01421661  1
  In  In44  1  0.66619217  0.67381388  -0.01599097  1
  In  In45  1  0.33934441  0.48519562  0.16969069  1
  In  In46  1  0.84762399  0.34392415  0.81136990  1
  In  In47  1  0.47653646  0.30578987  0.20275047  1
  In  In48  1  -0.00219168  0.50010194  0.81078238  1
  In  In49  1  0.01317191  0.35830939  0.65998458  1
  In  In50  1  0.15138313  0.83230013  0.34940593  1
  In  In51  1  0.51154064  0.16000474  -0.00925571  1
  In  In52  1  0.32878172  0.16866445  0.49571968  1
  In  In53  1  0.83220400  -0.01527052  0.51618962  1
  In  In54  1  0.51732568  0.00567126  0.16041962  1
  In  In55  1  0.00652196  0.01557766  0.00249576  1
  In  In56  1  0.33646186  0.00091705  0.00983670  1
  In  In57  1  0.50391322  0.81403348  0.33933801  1
  In  In58  1  0.00879319  0.00050469  0.35781227  1
  In  In59  1  0.50201270  0.31842641  0.82249599  1
  In  In60  1  0.83975543  0.50337280  0.65658861  1
  In  In61  1  0.31136715  0.02476316  0.33129718  1
  In  In62  1  0.36412209  0.13894311  0.80315448  1
  In  In63  1  0.50807209  0.50016123  0.65997789  1
  In  In64  1  0.68718167  0.66577969  0.67976268  1
  In  In65  1  0.82534185  0.82993650  0.67091673  1
  In  In66  1  0.30600670  0.63426149  0.36272984  1
  In  In67  1  0.80877331  0.14494601  0.00503299  1
  In  In68  1  0.00585551  0.19141153  0.18602108  1
  In  In69  1  0.66238608  0.50568506  0.48934425  1
  In  In70  1  0.14937073  0.65874239  0.17021527  1
  In  In71  1  0.16794217  0.33629523  0.19895217  1
  Te  Te72  1  0.09128533  0.09260046  0.10313485  1
  Te  Te73  1  0.11397889  0.10282480  0.40089300  1
  Te  Te74  1  0.07662249  0.07994673  0.74757722  1
  Te  Te75  1  0.07406718  0.41307206  0.09075988  1
  Te  Te76  1  0.05825798  0.45313540  0.42366190  1
  Te  Te77  1  0.11454815  0.44188733  0.73258758  1
  Te  Te78  1  0.08798064  0.77058992  0.08738162  1
  Te  Te79  1  0.09637907  0.72774381  0.43763436  1
  Te  Te80  1  0.07259709  0.71608244  0.71254777  1
  Te  Te81  1  0.41421506  0.09879590  0.09518935  1
  Te  Te82  1  0.42725856  0.08720880  0.41025632  1
  Te  Te83  1  0.46951421  0.06017718  0.72924651  1
  Te  Te84  1  0.43173573  0.40514825  0.07664845  1
  Te  Te85  1  0.39258759  0.42202627  0.40895267  1
  Te  Te86  1  0.41325450  0.41161104  0.74019797  1
  Te  Te87  1  0.41689807  0.74641494  0.06928041  1
  Te  Te88  1  0.39910407  0.74114579  0.42341943  1
  Te  Te89  1  0.41953098  0.73322401  0.72468421  1
  Te  Te90  1  0.71348451  0.06303425  0.08182542  1
  Te  Te91  1  0.75104244  0.08423994  0.42639294  1
  Te  Te92  1  0.75944959  0.09114605  0.72756566  1
  Te  Te93  1  0.75637083  0.43518294  0.07434006  1
  Te  Te94  1  0.75643367  0.40320058  0.42677802  1
  Te  Te95  1  0.73778374  0.40416210  0.71748698  1
  Te  Te96  1  0.75426535  0.75190082  0.08529735  1
  Te  Te97  1  0.79352723  0.74579553  0.38471742  1
  Te  Te98  1  0.73318272  0.77120698  0.77269945  1
  Te  Te99  1  0.07662307  0.26455487  0.29217531  1
  Te  Te100  1  0.09454604  0.24995613  0.57530385  1
  Te  Te101  1  0.10155438  0.28701354  0.88860959  1
  Te  Te102  1  0.09290329  0.57799582  0.27957211  1
  Te  Te103  1  0.07950233  0.55658675  0.54227683  1
  Te  Te104  1  0.07466329  0.59160419  0.91383831  1
  Te  Te105  1  0.08535066  0.92531197  0.24865137  1
  Te  Te106  1  0.06951019  0.92047695  0.58379718  1
  Te  Te107  1  0.08173996  0.90737862  0.92295157  1
  Te  Te108  1  0.36749024  0.24133662  0.28078284  1
  Te  Te109  1  0.42572304  0.23399824  0.59563321  1
  Te  Te110  1  0.40502984  0.24758237  0.92146068  1
  Te  Te111  1  0.41711870  0.59529049  0.25288905  1
  Te  Te112  1  0.40517770  0.56788837  0.57219841  1
  Te  Te113  1  0.41592267  0.58662012  0.88456114  1
  Te  Te114  1  0.42170090  0.92205029  0.26298365  1
  Te  Te115  1  0.40133936  0.89599149  0.58010326  1
  Te  Te116  1  0.41636629  0.92270594  0.90772014  1
  Te  Te117  1  0.74423192  0.22958664  0.23374405  1
  Te  Te118  1  0.74942814  0.26244896  0.61891039  1
  Te  Te119  1  0.75702743  0.25750891  0.90887014  1
  Te  Te120  1  0.74822921  0.55863307  0.25899157  1
  Te  Te121  1  0.75791013  0.59743717  0.56333548  1
  Te  Te122  1  0.76674745  0.59249707  0.90961079  1
  Te  Te123  1  0.76143666  0.89473970  0.26949606  1
  Te  Te124  1  0.72246173  0.91543957  0.59437350  1
  Te  Te125  1  0.72828284  0.91766341  0.91899536  1
  Te  Te126  1  0.25012579  0.25859869  0.09411458  1
  Te  Te127  1  0.26205054  0.27232152  0.40927431  1
  Te  Te128  1  0.26088920  0.24962043  0.76253263  1
  Te  Te129  1  0.25469506  0.58742619  0.08081591  1
  Te  Te130  1  0.21925688  0.57341478  0.46829057  1
  Te  Te131  1  0.22989264  0.54987299  0.75478054  1
  Te  Te132  1  0.24068506  0.93341038  0.10683721  1
  Te  Te133  1  0.25838572  0.91352553  0.42314977  1
  Te  Te134  1  0.25857667  0.92197279  0.73864875  1
  Te  Te135  1  0.57917539  0.24508014  0.09815566  1
  Te  Te136  1  0.58092765  0.23955765  0.41102900  1
  Te  Te137  1  0.59417937  0.25345115  0.72699204  1
  Te  Te138  1  0.59833841  0.57762919  0.08874328  1
  Te  Te139  1  0.59649909  0.60560779  0.39389615  1
  Te  Te140  1  0.58432042  0.58533407  0.75958587  1
  Te  Te141  1  0.59899096  0.89852166  0.09960403  1
  Te  Te142  1  0.58876012  0.90848760  0.42985355  1
  Te  Te143  1  0.57396633  0.95198978  0.76767536  1
  Te  Te144  1  0.90984203  0.24444279  0.07671639  1
  Te  Te145  1  0.91210984  0.26313729  0.44383725  1
  Te  Te146  1  0.90852840  0.24886947  0.70758555  1
  Te  Te147  1  0.91120384  0.58558116  0.08870661  1
  Te  Te148  1  0.94290278  0.55909679  0.46164029  1
  Te  Te149  1  0.92373185  0.60287968  0.72997018  1
  Te  Te150  1  0.92228487  0.91997972  0.08743316  1
  Te  Te151  1  0.91027483  0.90092665  0.41490632  1
  Te  Te152  1  0.92580032  0.91928702  0.74647311  1
  Te  Te153  1  0.26695563  0.13113100  0.24059677  1
  Te  Te154  1  0.27192110  0.06881752  0.59744124  1
  Te  Te155  1  0.24773539  0.09463925  0.92500967  1
  Te  Te156  1  0.24676420  0.43833136  0.27402562  1
  Te  Te157  1  0.24606931  0.44095124  0.57576470  1
  Te  Te158  1  0.26337184  0.45323274  0.88845199  1
  Te  Te159  1  0.25337414  0.74428100  0.25657451  1
  Te  Te160  1  0.24462239  0.73997294  0.57083863  1
  Te  Te161  1  0.22114587  0.73879317  0.87262243  1
  Te  Te162  1  0.57971991  0.09693366  0.25917997  1
  Te  Te163  1  0.57986906  0.08432551  0.60180446  1
  Te  Te164  1  0.58527804  0.06108923  0.90692142  1
  Te  Te165  1  0.58025973  0.41425153  0.23827529  1
  Te  Te166  1  0.58059767  0.40436174  0.56775352  1
  Te  Te167  1  0.57964277  0.41759192  0.91483806  1
  Te  Te168  1  0.60962033  0.76154632  0.25032027  1
  Te  Te169  1  0.59291188  0.75017006  0.58369654  1
  Te  Te170  1  0.57406602  0.74400543  0.89098834  1
  Te  Te171  1  0.91598916  0.07781334  0.25408404  1
  Te  Te172  1  0.92061501  0.07567804  0.59137929  1
  Te  Te173  1  0.91881154  0.09668797  0.90668213  1
  Te  Te174  1  0.92491678  0.39648605  0.27090908  1
  Te  Te175  1  0.91859567  0.41796661  0.56044393  1
  Te  Te176  1  0.90361274  0.43960064  0.91751604  1
  Te  Te177  1  0.92301901  0.71449972  0.29884231  1
  Te  Te178  1  0.90669940  0.72658543  0.59932167  1
  Te  Te179  1  0.90641167  0.74365543  0.89377049  1
