# generated using pymatgen
data_In2Te3
_symmetry_space_group_name_H-M   'P 1'
_cell_length_a   18.82303526
_cell_length_b   18.83724418
_cell_length_c   18.82894673
_cell_angle_alpha   89.94406407
_cell_angle_beta   90.01460238
_cell_angle_gamma   90.01936383
_symmetry_Int_Tables_number   1
_chemical_formula_structural   In2Te3
_chemical_formula_sum   'In72 Te108'
_cell_volume   6676.25327865
_cell_formula_units_Z   36
loop_
 _symmetry_equiv_pos_site_id
 _symmetry_equiv_pos_as_xyz
  1  'x, y, z'
loop_
 _atom_site_type_symbol
 _atom_site_label
 _atom_site_symmetry_multiplicity
 _atom_site_fract_x
 _atom_site_fract_y
 _atom_site_fract_z
 _atom_site_occupancy
  In  In0  1  0.86010211  0.01346362  0.19251502  1
  In  In1  1  0.01023932  0.68481289  0.01697008  1
  In  In2  1  0.33847541  0.15809315  0.49082721  1
  In  In3  1  0.30172391  0.15885132  0.82452951  1
  In  In4  1  0.66294336  0.68032073  0.01397623  1
  In  In5  1  0.68071054  0.33810497  0.68792002  1
  In  In6  1  0.32163449  0.67393537  0.32247435  1
  In  In7  1  0.48214130  0.00279022  0.49855378  1
  In  In8  1  0.49367866  -0.02690275  0.17609325  1
  In  In9  1  0.17222924  0.83543200  0.01102084  1
  In  In10  1  0.86900538  0.66736953  0.50801720  1
  In  In11  1  0.82931675  -0.01026008  0.82370388  1
  In  In12  1  0.50035289  0.51129675  0.66658763  1
  In  In13  1  0.14521724  0.14323637  0.34710318  1
  In  In14  1  0.34886325  0.52589157  0.84236790  1
  In  In15  1  0.01562049  0.81843601  0.81325335  1
  In  In16  1  0.31012319  0.34535192  0.31333179  1
  In  In17  1  0.65471653  0.66121506  0.68787790  1
  In  In18  1  0.67604755  0.82811494  0.52487469  1
  In  In19  1  0.86032192  0.82232867  0.64714159  1
  In  In20  1  0.17756796  0.01911166  0.83789453  1
  In  In21  1  0.16299937  -0.01056190  0.15605885  1
  In  In22  1  0.17326361  0.49436845  0.65967969  1
  In  In23  1  0.30773382  0.67989074  0.64735295  1
  In  In24  1  -0.00683624  -0.00003761  0.01990739  1
  In  In25  1  0.48684248  0.81349553  0.32710175  1
  In  In26  1  0.85581849  0.34482117  0.16720190  1
  In  In27  1  0.64998437  -0.02377515  0.01861192  1
  In  In28  1  0.86582986  -0.01725736  0.49444320  1
  In  In29  1  0.15919480  0.16460988  0.64728340  1
  In  In30  1  0.48189217  0.35531705  0.82727023  1
  In  In31  1  0.84618348  0.82838245  0.31081888  1
  In  In32  1  0.29959498  0.82684197  0.48892112  1
  In  In33  1  0.66792216  0.49391031  0.48199282  1
  In  In34  1  0.50058485  0.52466055  -0.00940838  1
  In  In35  1  0.48926013  0.15238382  0.66663630  1
  In  In36  1  0.66982558  0.16387113  0.86553363  1
  In  In37  1  0.31670557  0.83755513  0.83949408  1
  In  In38  1  0.66423036  0.50028622  0.79815930  1
  In  In39  1  0.85289825  0.65616409  0.85170161  1
  In  In40  1  0.01745435  0.32773223  0.33460210  1
  In  In41  1  0.67666491  0.16084514  0.18458284  1
  In  In42  1  0.49572168  0.35945950  0.19015482  1
  In  In43  1  0.66224345  0.82702581  0.84493860  1
  In  In44  1  0.67494956  0.33387494  0.34223419  1
  In  In45  1  0.32565630  -0.01196589  -0.01117177  1
  In  In46  1  0.30851534  0.50084923  0.48397504  1
  In  In47  1  0.31341065  0.17859456  0.16852772  1
  In  In48  1  0.84531003  0.50469262  0.01606738  1
  In  In49  1  0.01419149  0.32417441  0.65114894  1
  In  In50  1  0.47231368  0.32593805  0.49798271  1
  In  In51  1  0.03247198  0.19035523  0.85300474  1
  In  In52  1  -0.00469310  0.50590064  0.85017858  1
  In  In53  1  0.30779276  0.32486370  0.00226160  1
  In  In54  1  0.15456675  0.84136782  0.32351716  1
  In  In55  1  0.51327861  0.82633362  0.67985902  1
  In  In56  1  0.16028521  0.49757409  0.00895480  1
  In  In57  1  0.86197357  0.17373206  0.02351517  1
  In  In58  1  0.66536899  0.66038994  0.32905910  1
  In  In59  1  0.84474141  0.52041151  0.68153180  1
  In  In60  1  0.85075012  0.15560415  0.66060174  1
  In  In61  1  0.69314263  0.33741370  0.01384681  1
  In  In62  1  0.16931184  0.65700889  0.47955870  1
  In  In63  1  0.67349449  -0.01007289  0.33402621  1
  In  In64  1  0.86676220  0.31470345  0.47510593  1
  In  In65  1  0.31646959  -0.00525536  0.67527398  1
  In  In66  1  0.51008866  0.15995172  0.00124014  1
  In  In67  1  0.47442948  0.69231468  0.15030726  1
  In  In68  1  0.67279555  0.15731538  0.49381010  1
  In  In69  1  0.83826296  0.65929977  0.16980052  1
  In  In70  1  0.32316247  0.50349088  0.16854184  1
  In  In71  1  0.00081857  0.49906905  0.46720263  1
  Te  Te72  1  0.08436509  0.09356350  0.08676015  1
  Te  Te73  1  0.07613519  0.02326710  0.41871632  1
  Te  Te74  1  0.07484789  0.08658563  0.74952053  1
  Te  Te75  1  0.04808339  0.40043340  0.03625637  1
  Te  Te76  1  0.10365830  0.39789443  0.43546010  1
  Te  Te77  1  0.07784656  0.41839704  0.75394482  1
  Te  Te78  1  0.09973214  0.75486260  0.11470371  1
  Te  Te79  1  0.07621206  0.75806027  0.42280580  1
  Te  Te80  1  0.10826542  0.75662405  0.71954857  1
  Te  Te81  1  0.41207417  0.08386853  0.08910272  1
  Te  Te82  1  0.42100833  0.08410856  0.39378780  1
  Te  Te83  1  0.41232493  0.06785902  0.76793298  1
  Te  Te84  1  0.41800060  0.41256761  0.06787828  1
  Te  Te85  1  0.41229388  0.42422145  0.40096645  1
  Te  Te86  1  0.39155830  0.42371559  0.72901798  1
  Te  Te87  1  0.36796498  0.75850976  0.07379651  1
  Te  Te88  1  0.40792980  0.73554568  0.43184376  1
  Te  Te89  1  0.40248728  0.74695622  0.74701164  1
  Te  Te90  1  0.74971367  0.08297519  0.07575575  1
  Te  Te91  1  0.77030731  0.07658188  0.41223709  1
  Te  Te92  1  0.74343718  0.09313265  0.75003802  1
  Te  Te93  1  0.74514386  0.43878418  0.11280443  1
  Te  Te94  1  0.78104171  0.42418254  0.40802856  1
  Te  Te95  1  0.78538079  0.41121483  0.77035488  1
  Te  Te96  1  0.77426557  0.75311266  0.07469679  1
  Te  Te97  1  0.76461014  0.75501307  0.42467766  1
  Te  Te98  1  0.76794360  0.74447930  0.74882957  1
  Te  Te99  1  0.09558802  0.23828884  0.24279962  1
  Te  Te100  1  0.07626406  0.23877784  0.54854875  1
  Te  Te101  1  0.09856534  0.28839802  0.94003912  1
  Te  Te102  1  0.02139870  0.56950106  0.26046696  1
  Te  Te103  1  0.07855054  0.57778710  0.57325776  1
  Te  Te104  1  0.09031880  0.60373312  0.91578853  1
  Te  Te105  1  0.05948812  0.92599173  0.24224295  1
  Te  Te106  1  0.08579722  0.98903692  0.56155592  1
  Te  Te107  1  0.08254955  0.92230069  0.91856170  1
  Te  Te108  1  0.41765830  0.24964332  0.25765851  1
  Te  Te109  1  0.39183562  0.24907908  0.60349752  1
  Te  Te110  1  0.41631992  0.24513355  0.91337608  1
  Te  Te111  1  0.42294797  0.58645939  0.24886002  1
  Te  Te112  1  0.40151714  0.58292185  0.57457311  1
  Te  Te113  1  0.39131843  0.61785188  0.95249965  1
  Te  Te114  1  0.39408920  0.91046209  0.26741268  1
  Te  Te115  1  0.40709507  0.90207231  0.58688325  1
  Te  Te116  1  0.42334345  0.91452835  0.90738040  1
  Te  Te117  1  0.77234882  0.25008375  0.25875298  1
  Te  Te118  1  0.75555281  0.25867820  0.57754390  1
  Te  Te119  1  0.77774938  0.25452111  0.91936376  1
  Te  Te120  1  0.76298696  0.57271783  0.26308290  1
  Te  Te121  1  0.74810556  0.58871763  0.58302207  1
  Te  Te122  1  0.74162712  0.57315560  0.91490480  1
  Te  Te123  1  0.74599622  0.91174498  0.22863589  1
  Te  Te124  1  0.76324043  0.93032769  0.59556914  1
  Te  Te125  1  0.75847418  0.90910023  0.93165260  1
  Te  Te126  1  0.21554748  0.27163540  0.10557546  1
  Te  Te127  1  0.24469840  0.24492384  0.40953193  1
  Te  Te128  1  0.22200881  0.25457067  0.74844794  1
  Te  Te129  1  0.23275637  0.59436196  0.09528298  1
  Te  Te130  1  0.22487471  0.56480858  0.37317243  1
  Te  Te131  1  0.24190171  0.59275118  0.75414771  1
  Te  Te132  1  0.28817776  0.89075197  0.10224133  1
  Te  Te133  1  0.25193911  0.92941842  0.39608355  1
  Te  Te134  1  0.21478725  0.90490668  0.74293431  1
  Te  Te135  1  0.58822895  0.25584485  0.09300540  1
  Te  Te136  1  0.57463860  0.24424762  0.41698178  1
  Te  Te137  1  0.57902615  0.24680771  0.75823131  1
  Te  Te138  1  0.58169739  0.58550368  0.10127276  1
  Te  Te139  1  0.57443032  0.58886514  0.42189228  1
  Te  Te140  1  0.55015837  0.59932458  0.78104884  1
  Te  Te141  1  0.55601438  0.88090565  0.07935156  1
  Te  Te142  1  0.58405040  0.90112661  0.42326629  1
  Te  Te143  1  0.60600794  0.91908773  0.74404762  1
  Te  Te144  1  0.95695047  0.25847743  0.09905124  1
  Te  Te145  1  0.93370008  0.21063560  0.39137683  1
  Te  Te146  1  0.92667035  0.24962594  0.75161030  1
  Te  Te147  1  0.95604151  0.56766461  0.10022417  1
  Te  Te148  1  0.93242161  0.60674681  0.38374427  1
  Te  Te149  1  0.94853047  0.61161036  0.74173153  1
  Te  Te150  1  0.91968652  0.90794475  0.10821972  1
  Te  Te151  1  0.94350637  0.92204831  0.38099858  1
  Te  Te152  1  0.93488754  0.92290589  0.73563977  1
  Te  Te153  1  0.24745409  0.07254182  0.25399346  1
  Te  Te154  1  0.24203365  0.05870987  0.56005200  1
  Te  Te155  1  0.23415539  0.10459009  0.95027200  1
  Te  Te156  1  0.21557356  0.41814643  0.22558721  1
  Te  Te157  1  0.23112900  0.40014759  0.56027906  1
  Te  Te158  1  0.25020001  0.42598601  0.90500664  1
  Te  Te159  1  0.21447822  0.73266775  0.23717515  1
  Te  Te160  1  0.19851708  0.77469429  0.59155582  1
  Te  Te161  1  0.23682128  0.74070233  0.91824605  1
  Te  Te162  1  0.57461044  0.07892555  0.25919792  1
  Te  Te163  1  0.58882472  0.06943313  0.58642038  1
  Te  Te164  1  0.57339390  0.05537455  0.91084151  1
  Te  Te165  1  0.59340699  0.43319001  0.26943632  1
  Te  Te166  1  0.58117731  0.40431672  0.58798216  1
  Te  Te167  1  0.59362013  0.41091749  0.91605198  1
  Te  Te168  1  0.59190090  0.75484439  0.23516578  1
  Te  Te169  1  0.57309194  0.72898160  0.57788649  1
  Te  Te170  1  0.56721721  0.74868757  0.92521435  1
  Te  Te171  1  0.92645139  0.12222786  0.26157710  1
  Te  Te172  1  0.94941845  0.07990139  0.57656135  1
  Te  Te173  1  0.91923090  0.08487774  0.90585069  1
  Te  Te174  1  0.94328839  0.43508798  0.25503920  1
  Te  Te175  1  0.90995542  0.42527401  0.58117800  1
  Te  Te176  1  0.92000116  0.40494987  0.93238065  1
  Te  Te177  1  0.94340460  0.73532908  0.24564536  1
  Te  Te178  1  0.96440083  0.77240177  0.55358040  1
  Te  Te179  1  0.92221251  0.76981386  0.92426827  1
