# generated using pymatgen
data_In2Te3
_symmetry_space_group_name_H-M   'P 1'
_cell_length_a   19.01812621
_cell_length_b   18.98912216
_cell_length_c   18.98142248
_cell_angle_alpha   89.98374447
_cell_angle_beta   89.86848925
_cell_angle_gamma   89.85500302
_symmetry_Int_Tables_number   1
_chemical_formula_structural   In2Te3
_chemical_formula_sum   'In72 Te108'
_cell_volume   6854.86360424
_cell_formula_units_Z   36
loop_
 _symmetry_equiv_pos_site_id
 _symmetry_equiv_pos_as_xyz
  1  'x, y, z'
loop_
 _atom_site_type_symbol
 _atom_site_label
 _atom_site_symmetry_multiplicity
 _atom_site_fract_x
 _atom_site_fract_y
 _atom_site_fract_z
 _atom_site_occupancy
  In  In0  1  0.68534781  0.34260506  0.29780817  1
  In  In1  1  0.31073634  0.13516020  0.48295308  1
  In  In2  1  0.67448554  0.17471280  0.16081199  1
  In  In3  1  0.30458783  0.32277884  0.35762959  1
  In  In4  1  0.51739741  0.52440522  0.66149061  1
  In  In5  1  0.67964313  0.51188348  0.16805355  1
  In  In6  1  0.35233378  0.12319880  0.14375645  1
  In  In7  1  0.18589030  0.82585161  0.00664623  1
  In  In8  1  0.67120562  0.33740399  0.67644003  1
  In  In9  1  0.15992703  0.51052218  0.67133216  1
  In  In10  1  0.83260288  0.66777905  0.82741912  1
  In  In11  1  0.15386910  0.09032791  0.36760293  1
  In  In12  1  0.68920210  0.36248186  0.00164509  1
  In  In13  1  0.17274846  0.17407258  0.66670347  1
  In  In14  1  0.66072471  0.82729837  0.81877913  1
  In  In15  1  0.84765373  0.34607437  0.49652576  1
  In  In16  1  0.65333731  0.15457127  0.49451865  1
  In  In17  1  0.02075549  0.84929024  0.19144278  1
  In  In18  1  0.49655928  0.32973772  0.16506171  1
  In  In19  1  0.52012994  -0.00960426  0.51425013  1
  In  In20  1  0.17218097  0.69024667  0.81321422  1
  In  In21  1  0.84277090  0.13593670  0.63958280  1
  In  In22  1  0.33354588  0.32749262  -0.02516465  1
  In  In23  1  0.33393258  -0.01442754  0.69238827  1
  In  In24  1  0.86353766  -0.00502674  0.82255785  1
  In  In25  1  0.31208270  0.49519092  0.83861781  1
  In  In26  1  -0.00192376  0.34497451  0.33536601  1
  In  In27  1  0.67872616  0.68315332  -0.03344366  1
  In  In28  1  0.00805375  0.35371144  0.66786569  1
  In  In29  1  0.34721346  0.66125677  0.32665966  1
  In  In30  1  0.49960527  0.67018768  0.15923342  1
  In  In31  1  0.48233064  0.32310006  0.50098335  1
  In  In32  1  0.13667689  0.67701578  0.50691235  1
  In  In33  1  0.85612562  0.50380441  0.34991027  1
  In  In34  1  0.30895065  0.33484175  0.69611266  1
  In  In35  1  0.65617426  0.00029442  0.32520800  1
  In  In36  1  0.83351697  0.13160713  0.37233956  1
  In  In37  1  0.13212506  0.50864136  0.33428422  1
  In  In38  1  0.50152599  0.69771195  0.49182906  1
  In  In39  1  0.66338332  0.52704918  0.83388277  1
  In  In40  1  0.49606084  0.66534084  0.81392582  1
  In  In41  1  0.80604836  0.34099030  0.81320059  1
  In  In42  1  0.32388489  0.65506293  0.01364331  1
  In  In43  1  0.51065663  0.83978751  0.67311011  1
  In  In44  1  0.46708483  0.13701106  0.66452436  1
  In  In45  1  0.16688424  0.01207503  0.83136863  1
  In  In46  1  0.15996577  0.34322943  0.16258467  1
  In  In47  1  0.69172007  0.54618741  0.51063245  1
  In  In48  1  0.13596180  0.83916512  0.64251043  1
  In  In49  1  0.65484879  0.16085845  0.83552304  1
  In  In50  1  0.69312056  0.66940016  0.36661250  1
  In  In51  1  -0.00901617  0.16594035  0.17551031  1
  In  In52  1  0.83484504  0.83048792  0.00739436  1
  In  In53  1  0.31914721  0.85120009  0.18839045  1
  In  In54  1  -0.01442734  0.82128677  0.81096301  1
  In  In55  1  0.00159765  0.51253450  0.86630028  1
  In  In56  1  0.46071878  0.90726412  0.02073786  1
  In  In57  1  0.49176442  0.82112135  0.31378316  1
  In  In58  1  0.17257171  0.15017803  0.02252324  1
  In  In59  1  0.83697048  0.00683576  0.18575335  1
  In  In60  1  0.00425834  0.17161194  0.82094020  1
  In  In61  1  0.66112419  -0.01410574  0.01221678  1
  In  In62  1  0.15131038  0.65416981  0.15830560  1
  In  In63  1  0.00219032  0.69527599  0.34280283  1
  In  In64  1  0.46227513  0.31084141  0.83804881  1
  In  In65  1  0.50634966  0.47040215  0.00160363  1
  In  In66  1  0.01121552  0.31890200  0.00157570  1
  In  In67  1  0.85358449  0.85030476  0.36136232  1
  In  In68  1  0.50764030  0.15693827  0.32313159  1
  In  In69  1  0.32491877  0.50525368  0.51337719  1
  In  In70  1  0.02563671  0.01051600  -0.00518559  1
  In  In71  1  0.84199106  0.85037349  0.61553296  1
  Te  Te72  1  0.09182886  0.06627236  0.11869977  1
  Te  Te73  1  0.07426717  0.05651042  0.48812496  1
  Te  Te74  1  0.07207626  0.07190999  0.73088970  1
  Te  Te75  1  0.05912874  0.42878634  0.09341403  1
  Te  Te76  1  0.06348546  0.42943697  0.43727377  1
  Te  Te77  1  0.09711539  0.41663864  0.76873757  1
  Te  Te78  1  0.07234986  0.75858514  0.08099661  1
  Te  Te79  1  0.10379036  0.78503671  0.40493243  1
  Te  Te80  1  0.05888704  0.72667708  0.71949285  1
  Te  Te81  1  0.44412234  0.05873492  0.04863759  1
  Te  Te82  1  0.43064203  0.06848703  0.41746015  1
  Te  Te83  1  0.40312147  0.07896450  0.78357948  1
  Te  Te84  1  0.39775097  0.41331612  0.08671653  1
  Te  Te85  1  0.40728185  0.42225966  0.41532387  1
  Te  Te86  1  0.42179398  0.42681843  0.73804028  1
  Te  Te87  1  0.40417663  0.76174083  0.08559573  1
  Te  Te88  1  0.39161600  0.77327509  0.41725077  1
  Te  Te89  1  0.41044341  0.76134418  0.74756919  1
  Te  Te90  1  0.76014176  0.08100021  0.07853353  1
  Te  Te91  1  0.74351893  0.03308677  0.45136063  1
  Te  Te92  1  0.75968006  0.08206770  0.75420169  1
  Te  Te93  1  0.77469021  0.41640349  0.10644775  1
  Te  Te94  1  0.73556773  0.42476683  0.41629583  1
  Te  Te95  1  0.75063842  0.45448292  0.72906898  1
  Te  Te96  1  0.74200194  0.74580369  0.08156005  1
  Te  Te97  1  0.75165430  0.78128359  0.44341557  1
  Te  Te98  1  0.77535148  0.77423032  0.73679036  1
  Te  Te99  1  0.08711852  0.25017986  0.25621448  1
  Te  Te100  1  0.07465541  0.25009938  0.58945639  1
  Te  Te101  1  0.10468053  0.23397208  0.91636219  1
  Te  Te102  1  0.04275806  0.58786555  0.24220435  1
  Te  Te103  1  0.07196684  0.55569956  0.56151887  1
  Te  Te104  1  0.11574309  0.60193289  0.91892319  1
  Te  Te105  1  0.10383648  0.91286490  0.29391213  1
  Te  Te106  1  0.06767368  0.90040897  0.52375494  1
  Te  Te107  1  0.07920490  0.90012208  0.90483452  1
  Te  Te108  1  0.40842015  0.25404498  0.26360059  1
  Te  Te109  1  0.38774539  0.23655628  0.58084418  1
  Te  Te110  1  0.42749643  0.21899078  0.94582284  1
  Te  Te111  1  0.41859846  0.57496532  0.23368308  1
  Te  Te112  1  0.41708438  0.60306110  0.58155669  1
  Te  Te113  1  0.42472624  0.56953170  0.91695729  1
  Te  Te114  1  0.42922823  0.93115028  0.24103334  1
  Te  Te115  1  0.41016290  0.91402916  0.58218407  1
  Te  Te116  1  0.37711005  0.95688599  0.90947273  1
  Te  Te117  1  0.77217314  0.22501134  0.26411072  1
  Te  Te118  1  0.74761054  0.24816860  0.57732202  1
  Te  Te119  1  0.74747117  0.24722283  0.91720521  1
  Te  Te120  1  0.76992130  0.59188984  0.25982274  1
  Te  Te121  1  0.80167748  0.62711234  0.56235847  1
  Te  Te122  1  0.77110524  0.56847764  0.92992787  1
  Te  Te123  1  0.74991885  0.90653183  0.25311691  1
  Te  Te124  1  0.74583974  0.95616533  0.58580710  1
  Te  Te125  1  0.76114345  0.91664771  0.90563665  1
  Te  Te126  1  0.26079278  0.24519071  0.10090789  1
  Te  Te127  1  0.20947516  0.23036214  0.42611603  1
  Te  Te128  1  0.25387338  0.22860197  0.77764243  1
  Te  Te129  1  0.23759513  0.56158997  0.08343165  1
  Te  Te130  1  0.24102649  0.58586749  0.41502565  1
  Te  Te131  1  0.26595888  0.59634401  0.73732282  1
  Te  Te132  1  0.23617055  0.93028376  0.09526207  1
  Te  Te133  1  0.23576587  0.96616770  0.35646528  1
  Te  Te134  1  0.22695442  0.89802971  0.75254969  1
  Te  Te135  1  0.59355158  0.26383745  0.06986602  1
  Te  Te136  1  0.58871109  0.26151100  0.40002755  1
  Te  Te137  1  0.56425046  0.24659339  0.73643594  1
  Te  Te138  1  0.59019849  0.58088745  0.06087496  1
  Te  Te139  1  0.57583172  0.58445461  0.42190667  1
  Te  Te140  1  0.61330441  0.62158932  0.72615670  1
  Te  Te141  1  0.58907923  0.88343690  0.08647792  1
  Te  Te142  1  0.58141185  0.90041362  0.41037384  1
  Te  Te143  1  0.57747218  0.93312351  0.76475131  1
  Te  Te144  1  0.91484387  0.23666866  0.07449108  1
  Te  Te145  1  0.92615422  0.24026506  0.42440562  1
  Te  Te146  1  0.90130778  0.24414474  0.73594560  1
  Te  Te147  1  1.00236907  0.55110508  0.01173793  1
  Te  Te148  1  0.91205882  0.61566541  0.43527475  1
  Te  Te149  1  0.93268358  0.58684337  0.75859825  1
  Te  Te150  1  0.92523621  0.92830429  0.08314791  1
  Te  Te151  1  0.94108475  0.94115848  0.44076353  1
  Te  Te152  1  0.93784987  0.92460679  0.71188302  1
  Te  Te153  1  0.26416473  0.09263680  0.25797278  1
  Te  Te154  1  0.24386602  0.05706593  0.59161244  1
  Te  Te155  1  0.25550066  0.04729449  0.94730572  1
  Te  Te156  1  0.23813358  0.42282423  0.26453432  1
  Te  Te157  1  0.23787272  0.40439150  0.58458920  1
  Te  Te158  1  0.22855614  0.41632672  0.92736918  1
  Te  Te159  1  0.24106507  0.73741347  0.24930209  1
  Te  Te160  1  0.23663734  0.75101983  0.58244109  1
  Te  Te161  1  0.27594444  0.75360683  0.90918792  1
  Te  Te162  1  0.57736429  0.07381856  0.21823414  1
  Te  Te163  1  0.59542859  0.07617071  0.61298265  1
  Te  Te164  1  0.57885489  0.07584600  0.92780297  1
  Te  Te165  1  0.57504986  0.43156517  0.24562021  1
  Te  Te166  1  0.57923291  0.41290237  0.57680025  1
  Te  Te167  1  0.58555969  0.40682883  0.88720356  1
  Te  Te168  1  0.59626146  0.72736629  0.25888989  1
  Te  Te169  1  0.59555625  0.75711363  0.58510596  1
  Te  Te170  1  0.56084455  0.76054860  0.91330870  1
  Te  Te171  1  0.93698834  0.06739575  0.28046418  1
  Te  Te172  1  0.92736770  0.06235068  0.54344633  1
  Te  Te173  1  0.92197760  0.09358526  0.92206869  1
  Te  Te174  1  0.90144850  0.41001308  0.24600901  1
  Te  Te175  1  0.90606840  0.43278313  0.59671723  1
  Te  Te176  1  0.91413107  0.38952267  0.90380600  1
  Te  Te177  1  0.90774996  0.76552393  0.24637663  1
  Te  Te178  1  0.91066633  0.73748210  0.54554601  1
  Te  Te179  1  0.92459429  0.74162745  0.92415995  1
