# generated using pymatgen
data_In2Te3
_symmetry_space_group_name_H-M   'P 1'
_cell_length_a   18.89430775
_cell_length_b   18.91326288
_cell_length_c   18.92191202
_cell_angle_alpha   90.06811827
_cell_angle_beta   90.11979058
_cell_angle_gamma   90.14141984
_symmetry_Int_Tables_number   1
_chemical_formula_structural   In2Te3
_chemical_formula_sum   'In72 Te108'
_cell_volume   6761.76200889
_cell_formula_units_Z   36
loop_
 _symmetry_equiv_pos_site_id
 _symmetry_equiv_pos_as_xyz
  1  'x, y, z'
loop_
 _atom_site_type_symbol
 _atom_site_label
 _atom_site_symmetry_multiplicity
 _atom_site_fract_x
 _atom_site_fract_y
 _atom_site_fract_z
 _atom_site_occupancy
  In  In0  1  0.32458411  0.33018180  0.65744738  1
  In  In1  1  -0.01288758  0.01111926  -0.00615708  1
  In  In2  1  0.66785970  0.84099988  0.16689075  1
  In  In3  1  0.82607298  0.84959130  0.66773419  1
  In  In4  1  0.52531835  0.86412188  0.36905995  1
  In  In5  1  0.16238729  0.17026665  0.01924461  1
  In  In6  1  0.50299484  0.14768404  0.00145175  1
  In  In7  1  0.85275559  0.67600063  0.16950547  1
  In  In8  1  0.71380211  0.30924942  -0.00687760  1
  In  In9  1  0.31771341  0.68411526  -0.00666228  1
  In  In10  1  0.00901391  0.48634239  0.16409688  1
  In  In11  1  0.66210223  0.66202493  -0.01416974  1
  In  In12  1  0.31844232  0.84466205  0.15062637  1
  In  In13  1  -0.00947848  0.15567750  0.49623374  1
  In  In14  1  0.16588830  0.83305432  0.66739448  1
  In  In15  1  0.50876620  0.52231522  0.00983619  1
  In  In16  1  -0.03877957  0.63846968  0.68038542  1
  In  In17  1  0.79595386  0.00483919  0.51929607  1
  In  In18  1  0.16882841  0.65941251  0.48669287  1
  In  In19  1  0.19588223  0.00150059  0.50031931  1
  In  In20  1  0.83652897  -0.01056346  0.14504589  1
  In  In21  1  0.83540457  0.64774165  0.48829683  1
  In  In22  1  0.50416718  0.66968136  0.14523174  1
  In  In23  1  0.83332114  0.31879243  0.50363497  1
  In  In24  1  0.13857579  0.19362044  0.31071714  1
  In  In25  1  0.32885393  -0.01017065  0.33230072  1
  In  In26  1  -0.00421023  0.33815931  0.67884540  1
  In  In27  1  -0.01901923  0.33230486  0.00992054  1
  In  In28  1  0.31081470  0.15395717  0.83459118  1
  In  In29  1  0.49670951  0.02084224  0.15542341  1
  In  In30  1  0.13058821  0.14124820  0.70626236  1
  In  In31  1  0.13028305  0.35454295  0.84449188  1
  In  In32  1  -0.00312259  0.49480999  0.48884391  1
  In  In33  1  0.67180988  0.68427448  0.68082437  1
  In  In34  1  0.00436313  -0.03187730  0.33053717  1
  In  In35  1  0.32311325  0.33742803  0.34376980  1
  In  In36  1  0.68101057  0.64184042  0.31168572  1
  In  In37  1  0.15971635  -0.01336933  0.15919823  1
  In  In38  1  0.66802447  0.49393418  0.51020742  1
  In  In39  1  0.02163695  0.82661822  0.49450042  1
  In  In40  1  0.83327281  0.17899685  0.66776264  1
  In  In41  1  0.51727117  0.32945961  0.17899096  1
  In  In42  1  0.84047258  0.82342779  0.32928543  1
  In  In43  1  0.65760727  -0.00045312  0.66509792  1
  In  In44  1  0.32001844  0.32413622  0.00836788  1
  In  In45  1  0.50322359  0.13366923  0.34140428  1
  In  In46  1  0.31398586  0.51701401  0.80577858  1
  In  In47  1  0.52111231  0.33637660  0.83693447  1
  In  In48  1  0.33968869  -0.00344056  0.66866298  1
  In  In49  1  0.00776315  0.82996640  0.85357334  1
  In  In50  1  0.64476819  0.15578496  0.49345557  1
  In  In51  1  0.67889043  0.32264127  0.34349832  1
  In  In52  1  0.32108056  0.48381282  0.19203593  1
  In  In53  1  0.14071807  0.53198764  -0.01861533  1
  In  In54  1  0.31917356  0.66018664  0.65616821  1
  In  In55  1  0.83509344  0.48643814  0.00100961  1
  In  In56  1  0.49609477  0.84260287  0.64024405  1
  In  In57  1  0.49288574  0.19216071  0.68701220  1
  In  In58  1  0.71271978  0.45293808  0.82465106  1
  In  In59  1  0.34325769  0.68225781  0.34208692  1
  In  In60  1  0.88107213  0.03167819  0.83459589  1
  In  In61  1  0.13718710  0.67528751  0.14046158  1
  In  In62  1  0.50062839  0.67736127  0.80394454  1
  In  In63  1  0.86410105  0.83908950  -0.01275372  1
  In  In64  1  0.50992713  0.51710008  0.65789992  1
  In  In65  1  0.67238661  0.01442740  -0.01342517  1
  In  In66  1  0.49645582  0.48083732  0.35234623  1
  In  In67  1  0.16969579  0.34281504  0.50301093  1
  In  In68  1  0.67412347  0.82792629  0.81445019  1
  In  In69  1  0.32216570  0.85077657  0.86124212  1
  In  In70  1  0.34596977  0.15525097  0.14652034  1
  In  In71  1  0.86371562  0.18793341  0.32360897  1
  Te  Te72  1  0.06355990  0.08903934  0.10182455  1
  Te  Te73  1  0.08741385  0.08036624  0.40908166  1
  Te  Te74  1  0.01687288  0.08271337  0.77604087  1
  Te  Te75  1  0.10018255  0.41331631  0.06444547  1
  Te  Te76  1  0.09770588  0.42630280  0.40487303  1
  Te  Te77  1  0.10569977  0.43081233  0.71952322  1
  Te  Te78  1  0.04291864  0.76667969  0.07536503  1
  Te  Te79  1  0.06988798  0.72730861  0.39929935  1
  Te  Te80  1  0.05573681  0.74973164  0.73038382  1
  Te  Te81  1  0.38283704  0.04804761  0.04219930  1
  Te  Te82  1  0.40849547  0.06683476  0.43050964  1
  Te  Te83  1  0.42218263  0.07956239  0.76592268  1
  Te  Te84  1  0.42261905  0.41403119  0.08321139  1
  Te  Te85  1  0.39922681  0.41736544  0.44090236  1
  Te  Te86  1  0.42047937  0.41860304  0.75483598  1
  Te  Te87  1  0.42315078  0.76742009  0.06437847  1
  Te  Te88  1  0.43124068  0.76749839  0.42456697  1
  Te  Te89  1  0.39678603  0.76845928  0.74424401  1
  Te  Te90  1  0.75460851  0.09466515  0.08106477  1
  Te  Te91  1  0.76439487  0.10774159  0.41527190  1
  Te  Te92  1  0.75773630  0.07392092  0.74940803  1
  Te  Te93  1  0.75692848  0.40508192  0.09505821  1
  Te  Te94  1  0.76614698  0.42371555  0.41683761  1
  Te  Te95  1  0.80058114  0.40203629  0.72010455  1
  Te  Te96  1  0.75421732  0.75795339  0.07125461  1
  Te  Te97  1  0.74256434  0.74057399  0.41018942  1
  Te  Te98  1  0.78829736  0.74016026  0.76698541  1
  Te  Te99  1  0.03816190  0.26450215  0.22558094  1
  Te  Te100  1  0.07829795  0.23752066  0.59153456  1
  Te  Te101  1  0.06734477  0.24057121  0.92181114  1
  Te  Te102  1  0.09508998  0.57853900  0.24096966  1
  Te  Te103  1  0.06626695  0.59107237  0.58349245  1
  Te  Te104  1  0.05829310  0.59683389  0.88048897  1
  Te  Te105  1  0.12010538  0.89685676  0.27217153  1
  Te  Te106  1  0.08715855  0.93289659  0.58192179  1
  Te  Te107  1  0.09090092  0.92796818  0.92861878  1
  Te  Te108  1  0.41488591  0.24333177  0.25169589  1
  Te  Te109  1  0.41712099  0.25251719  0.57637091  1
  Te  Te110  1  0.41215820  0.24902276  0.91471343  1
  Te  Te111  1  0.43113345  0.57745190  0.24317089  1
  Te  Te112  1  0.41384662  0.58619832  0.57185281  1
  Te  Te113  1  0.41835406  0.58966616  0.90796261  1
  Te  Te114  1  0.42662785  0.91340777  0.24315810  1
  Te  Te115  1  0.40593887  0.92531371  0.55743312  1
  Te  Te116  1  0.41207322  0.93836317  0.93461731  1
  Te  Te117  1  0.75688730  0.24868859  0.24304826  1
  Te  Te118  1  0.72684070  0.24846878  0.58399890  1
  Te  Te119  1  0.80865197  0.24467769  0.90113004  1
  Te  Te120  1  0.79805775  0.56945304  0.25831137  1
  Te  Te121  1  0.75404091  0.58439218  0.59991437  1
  Te  Te122  1  0.75787738  0.57902561  0.90509131  1
  Te  Te123  1  0.75338935  0.92647922  0.25745246  1
  Te  Te124  1  0.70877992  0.88515972  0.56881451  1
  Te  Te125  1  0.76281209  0.91676669  0.90496954  1
  Te  Te126  1  0.23768959  0.26094644  0.11678199  1
  Te  Te127  1  0.23802528  0.23409208  0.41910134  1
  Te  Te128  1  0.22820353  0.25942025  0.76202235  1
  Te  Te129  1  0.26099469  0.57254133  0.07926412  1
  Te  Te130  1  0.27072493  0.57922622  0.41689177  1
  Te  Te131  1  0.22190352  0.62257710  0.76220904  1
  Te  Te132  1  0.21147383  0.89079952  0.05850068  1
  Te  Te133  1  0.23160698  0.89839327  0.39960824  1
  Te  Te134  1  0.23725820  0.93040313  0.75908521  1
  Te  Te135  1  0.58964834  0.25105910  0.07277767  1
  Te  Te136  1  0.56281250  0.25655387  0.41499446  1
  Te  Te137  1  0.60886961  0.24647742  0.76318340  1
  Te  Te138  1  0.61759398  0.57638319  0.10273126  1
  Te  Te139  1  0.58751261  0.58453990  0.41757409  1
  Te  Te140  1  0.60426947  0.57014830  0.76995169  1
  Te  Te141  1  0.58354853  0.92455679  0.07326499  1
  Te  Te142  1  0.62664819  0.93582087  0.44398309  1
  Te  Te143  1  0.56681923  0.91667774  0.75479059  1
  Te  Te144  1  0.91441344  0.26578930  0.12535888  1
  Te  Te145  1  0.94920079  0.27697345  0.41541722  1
  Te  Te146  1  0.90465506  0.26244249  0.77287269  1
  Te  Te147  1  0.92795505  0.58111273  0.07677832  1
  Te  Te148  1  0.91627319  0.57225714  0.39027882  1
  Te  Te149  1  0.94678508  0.53637760  0.78908525  1
  Te  Te150  1  0.95197069  0.89280562  0.10266336  1
  Te  Te151  1  0.90278493  0.92281466  0.43695209  1
  Te  Te152  1  0.93597131  0.91632796  0.74826622  1
  Te  Te153  1  0.24782068  0.08876475  0.24542203  1
  Te  Te154  1  0.24070642  0.09847375  0.60942137  1
  Te  Te155  1  0.21486859  0.07867994  0.91612965  1
  Te  Te156  1  0.21833866  0.41157821  0.26881178  1
  Te  Te157  1  0.23302140  0.43361325  0.60313916  1
  Te  Te158  1  0.25446679  0.42481756  0.91474289  1
  Te  Te159  1  0.25511375  0.73070366  0.22845367  1
  Te  Te160  1  0.25151884  0.76264523  0.56591991  1
  Te  Te161  1  0.22487216  0.74480808  0.89808949  1
  Te  Te162  1  0.59579384  0.08932656  0.23847678  1
  Te  Te163  1  0.55672768  0.08365516  0.59217055  1
  Te  Te164  1  0.59913001  0.10806551  0.89848236  1
  Te  Te165  1  0.60224580  0.42555645  0.25740607  1
  Te  Te166  1  0.58736619  0.40901278  0.59799636  1
  Te  Te167  1  0.59927947  0.42345504  0.93439097  1
  Te  Te168  1  0.57957262  0.75106748  0.25195243  1
  Te  Te169  1  0.56749108  0.72568571  0.58611706  1
  Te  Te170  1  0.57449343  0.75968094  0.90956030  1
  Te  Te171  1  0.92150060  0.06548417  0.25057441  1
  Te  Te172  1  0.91255290  0.07194880  0.59370582  1
  Te  Te173  1  0.87976685  0.11727908  0.96137462  1
  Te  Te174  1  0.92878059  0.37989995  0.23272099  1
  Te  Te175  1  0.89767132  0.42433366  0.59660894  1
  Te  Te176  1  0.93164000  0.42578882  0.90258453  1
  Te  Te177  1  0.94580491  0.75531726  0.25378299  1
  Te  Te178  1  0.90580501  0.75665574  0.57505322  1
  Te  Te179  1  0.94215376  0.72187376  0.93512685  1
