# generated using pymatgen
data_In2Te3
_symmetry_space_group_name_H-M   'P 1'
_cell_length_a   18.72917550
_cell_length_b   18.74378057
_cell_length_c   18.73033707
_cell_angle_alpha   89.96040446
_cell_angle_beta   90.01135051
_cell_angle_gamma   89.97760155
_symmetry_Int_Tables_number   1
_chemical_formula_structural   In2Te3
_chemical_formula_sum   'In72 Te108'
_cell_volume   6575.38668921
_cell_formula_units_Z   36
loop_
 _symmetry_equiv_pos_site_id
 _symmetry_equiv_pos_as_xyz
  1  'x, y, z'
loop_
 _atom_site_type_symbol
 _atom_site_label
 _atom_site_symmetry_multiplicity
 _atom_site_fract_x
 _atom_site_fract_y
 _atom_site_fract_z
 _atom_site_occupancy
  In  In0  1  0.82765570  0.66361297  0.52772735  1
  In  In1  1  0.16772339  0.33378952  0.17001704  1
  In  In2  1  0.68920139  0.18851743  0.17616270  1
  In  In3  1  0.16720033  0.32629458  0.84765419  1
  In  In4  1  0.49860922  0.31489137  0.17004436  1
  In  In5  1  0.47683894  -0.00907501  0.51731590  1
  In  In6  1  0.83472220  0.85229859  0.33281237  1
  In  In7  1  0.15913739  0.84595461  0.65068256  1
  In  In8  1  0.15840469  0.00952898  0.81377574  1
  In  In9  1  0.81976349  0.49373097  0.67711266  1
  In  In10  1  0.18345912  0.48632834  0.67912160  1
  In  In11  1  0.01497590  0.86044565  0.47485168  1
  In  In12  1  0.35057342  0.66707300  0.33465538  1
  In  In13  1  0.03259783  0.66744130  0.01363443  1
  In  In14  1  0.48644752  0.68346937  0.84569684  1
  In  In15  1  0.83749498  0.16708923  0.64707655  1
  In  In16  1  0.49729005  0.00044732  0.82381959  1
  In  In17  1  0.15702110  0.46732783  0.33609768  1
  In  In18  1  0.68494510  0.04388782  0.33590739  1
  In  In19  1  0.84158098  0.00833609  0.81035228  1
  In  In20  1  0.82527896  0.44543588  0.04252875  1
  In  In21  1  -0.00420808  0.49549116  0.86297513  1
  In  In22  1  0.83822952  0.46836520  0.33608200  1
  In  In23  1  0.16041262  0.64094259  0.82223177  1
  In  In24  1  0.83781324  0.00809047  0.17715166  1
  In  In25  1  0.66983517  0.65859629  0.00126792  1
  In  In26  1  0.83962459  0.20227609  0.03689179  1
  In  In27  1  0.81681108  0.87376746  0.66042751  1
  In  In28  1  0.50879207  0.16314863  0.65467325  1
  In  In29  1  0.51759352  0.32292736  0.48689458  1
  In  In30  1  0.00720450  0.01492689  0.32881831  1
  In  In31  1  0.32994837  0.84461033  0.82574506  1
  In  In32  1  0.64342894  0.83912175  0.81600513  1
  In  In33  1  0.33279147  0.33409302  0.65084823  1
  In  In34  1  0.50038043  0.50338936  0.00030453  1
  In  In35  1  0.32126719  0.33296311  0.00171349  1
  In  In36  1  0.49278702  0.48342103  0.66035540  1
  In  In37  1  0.01053935  0.63716524  0.30846207  1
  In  In38  1  0.65940134  0.66325413  0.64257866  1
  In  In39  1  0.37058697  0.03421500  0.03073003  1
  In  In40  1  0.33898232  0.18264890  0.82481182  1
  In  In41  1  0.49691957  0.68166137  0.48291205  1
  In  In42  1  0.18007210  0.17596561  0.33826900  1
  In  In43  1  0.67714542  0.17357113  0.84717432  1
  In  In44  1  0.49698854  0.33112814  0.84751240  1
  In  In45  1  0.00324979  0.47697397  0.17150820  1
  In  In46  1  0.50486056  0.47639273  0.31209275  1
  In  In47  1  -0.03530524  0.86028107  0.82617531  1
  In  In48  1  0.82986931  0.31528366  0.48659351  1
  In  In49  1  0.65820978  0.47378264  0.82504447  1
  In  In50  1  0.18639145  0.68314833  0.51279404  1
  In  In51  1  0.00621315  0.02399494  0.01482069  1
  In  In52  1  0.49133773  0.83876452  0.32686706  1
  In  In53  1  0.32602146  0.65004811  0.02624163  1
  In  In54  1  0.01272335  0.47252008  0.47573845  1
  In  In55  1  0.48903661  0.66683793  0.16695947  1
  In  In56  1  0.82793648  0.85325459  0.00551554  1
  In  In57  1  0.64472129  0.64382812  0.32922817  1
  In  In58  1  0.18083781  0.83580174  0.01385502  1
  In  In59  1  0.02204966  0.68632657  0.65376630  1
  In  In60  1  0.67620123  0.84415550  0.49176136  1
  In  In61  1  0.17983464  0.85713159  0.34070595  1
  In  In62  1  0.82701936  0.65495681  0.83730555  1
  In  In63  1  0.01813318  0.29700113  0.64132388  1
  In  In64  1  0.50537959  0.16930520  0.33667608  1
  In  In65  1  0.32979463  -0.00240927  0.33375124  1
  In  In66  1  0.02222051  0.16763571  0.82575335  1
  In  In67  1  0.62704525  -0.01694551  0.02747898  1
  In  In68  1  0.84089094  0.66833962  0.17634334  1
  In  In69  1  0.34802277  0.48281430  0.49716070  1
  In  In70  1  0.16136785  0.16252226  0.01046968  1
  In  In71  1  0.32658670  0.84491946  0.16991487  1
  Te  Te72  1  0.07743527  0.10143059  0.11849947  1
  Te  Te73  1  0.09659001  0.08289729  0.42757350  1
  Te  Te74  1  0.08099310  0.08879264  0.71138229  1
  Te  Te75  1  0.08036773  0.40153297  0.06904261  1
  Te  Te76  1  0.05777939  0.36585119  0.38392398  1
  Te  Te77  1  0.07110334  0.40996977  0.75027202  1
  Te  Te78  1  0.08766048  0.76728617  0.10678178  1
  Te  Te79  1  0.08088303  0.73532564  0.41317211  1
  Te  Te80  1  0.08776994  0.76938774  0.77127542  1
  Te  Te81  1  0.45899917  0.11295808  0.12203682  1
  Te  Te82  1  0.40498323  0.09350285  0.42622446  1
  Te  Te83  1  0.40403638  0.08113414  0.73126741  1
  Te  Te84  1  0.41240257  0.41779995  0.09132396  1
  Te  Te85  1  0.41020973  0.38826167  0.39487014  1
  Te  Te86  1  0.40107775  0.41549730  0.76248985  1
  Te  Te87  1  0.41632583  0.76405404  0.07304690  1
  Te  Te88  1  0.39288200  0.78078420  0.42753481  1
  Te  Te89  1  0.43106149  0.77326195  0.74318039  1
  Te  Te90  1  0.74876258  0.07453061  0.07069613  1
  Te  Te91  1  0.78184841  0.09260933  0.43954149  1
  Te  Te92  1  0.73355502  0.08519706  0.73648992  1
  Te  Te93  1  0.72430260  0.38838907  0.13110358  1
  Te  Te94  1  0.73039790  0.39960360  0.41072214  1
  Te  Te95  1  0.75509791  0.38683975  0.75484751  1
  Te  Te96  1  0.74659434  0.75666322  0.09250422  1
  Te  Te97  1  0.74920949  0.73689663  0.40770158  1
  Te  Te98  1  0.75608276  0.74846989  0.73840765  1
  Te  Te99  1  0.07664206  0.24045922  0.24596045  1
  Te  Te100  1  0.10147453  0.22415607  0.53531898  1
  Te  Te101  1  0.06544191  0.26041795  0.94017129  1
  Te  Te102  1  0.11822443  0.57389662  0.21710406  1
  Te  Te103  1  0.08692420  0.57179992  0.57349870  1
  Te  Te104  1  0.11201277  0.55796103  0.94216886  1
  Te  Te105  1  0.08239493  0.91650157  0.24698157  1
  Te  Te106  1  0.10535389  0.94790983  0.55450426  1
  Te  Te107  1  0.08049711  0.92356809  0.91973344  1
  Te  Te108  1  0.40141969  0.22654062  0.24385017  1
  Te  Te109  1  0.41058923  0.23970704  0.56359139  1
  Te  Te110  1  0.42369449  0.23455853  0.94003620  1
  Te  Te111  1  0.40149752  0.56242186  0.23742041  1
  Te  Te112  1  0.41652607  0.59017048  0.58280404  1
  Te  Te113  1  0.40024708  0.57657108  0.91102820  1
  Te  Te114  1  0.43529096  0.93909513  0.22593520  1
  Te  Te115  1  0.37318309  0.90329832  0.57314916  1
  Te  Te116  1  0.41236734  0.92747040  0.92897894  1
  Te  Te117  1  0.79422769  0.23332831  0.27400522  1
  Te  Te118  1  0.73389428  0.25067661  0.58038557  1
  Te  Te119  1  0.76126672  0.26705716  0.92825065  1
  Te  Te120  1  0.75275782  0.56885585  0.25127045  1
  Te  Te121  1  0.72944696  0.55116268  0.56578209  1
  Te  Te122  1  0.75516175  0.55465325  0.92664439  1
  Te  Te123  1  0.73130979  0.92449854  0.24796578  1
  Te  Te124  1  0.72259138  0.95499125  0.58023268  1
  Te  Te125  1  0.74266830  0.92480125  0.90081937  1
  Te  Te126  1  0.26496910  0.23037259  0.09837653  1
  Te  Te127  1  0.22580932  0.26656863  0.45051986  1
  Te  Te128  1  0.22638794  0.24183215  0.72998236  1
  Te  Te129  1  0.23445182  0.57434255  0.10879988  1
  Te  Te130  1  0.24827449  0.57860531  0.41568408  1
  Te  Te131  1  0.26669176  0.59664379  0.73008671  1
  Te  Te132  1  0.25172337  0.95142177  0.08662574  1
  Te  Te133  1  0.25409183  0.93198311  0.44834010  1
  Te  Te134  1  0.26089202  0.93943592  0.72652788  1
  Te  Te135  1  0.58377362  0.23100383  0.07834296  1
  Te  Te136  1  0.61410544  0.24560421  0.40350855  1
  Te  Te137  1  0.58591507  0.25476351  0.75045927  1
  Te  Te138  1  0.59237855  0.57296302  0.10170880  1
  Te  Te139  1  0.56838232  0.55763328  0.42784686  1
  Te  Te140  1  0.58525312  0.59216024  0.75842501  1
  Te  Te141  1  0.55353183  0.89264601  0.11416714  1
  Te  Te142  1  0.58503190  0.93442844  0.40193268  1
  Te  Te143  1  0.58040699  0.93236997  0.72114763  1
  Te  Te144  1  0.93958872  0.26842068  0.12318871  1
  Te  Te145  1  0.89884743  0.21959724  0.39245165  1
  Te  Te146  1  0.91783858  0.25039389  0.75006847  1
  Te  Te147  1  0.91650553  0.57706148  0.07884769  1
  Te  Te148  1  0.91187061  0.58661192  0.41980710  1
  Te  Te149  1  0.93178038  0.58825632  0.74598839  1
  Te  Te150  1  0.93119766  0.91626673  0.09761068  1
  Te  Te151  1  0.89552365  0.94755677  0.43439455  1
  Te  Te152  1  0.94099167  0.95280757  0.70677338  1
  Te  Te153  1  0.24499011  0.07863624  0.24417080  1
  Te  Te154  1  0.21275199  0.14049965  0.61465813  1
  Te  Te155  1  0.25232548  0.08437992  0.91144984  1
  Te  Te156  1  0.26522483  0.40096985  0.26106350  1
  Te  Te157  1  0.22756794  0.40269064  0.55661471  1
  Te  Te158  1  0.25816679  0.42687945  0.90554032  1
  Te  Te159  1  0.24671741  0.74713428  0.25499670  1
  Te  Te160  1  0.27586392  0.76380186  0.60089328  1
  Te  Te161  1  0.25055494  0.74265703  0.91351942  1
  Te  Te162  1  0.58046657  0.08399149  0.22647101  1
  Te  Te163  1  0.58495831  0.08559879  0.55393684  1
  Te  Te164  1  0.57715593  0.08417527  0.92386092  1
  Te  Te165  1  0.61012255  0.39385755  0.24094364  1
  Te  Te166  1  0.59023840  0.39567329  0.59591360  1
  Te  Te167  1  0.59578941  0.39828701  0.94331758  1
  Te  Te168  1  0.58992808  0.75683706  0.24225762  1
  Te  Te169  1  0.57237067  0.77201231  0.58134065  1
  Te  Te170  1  0.58072671  0.76461068  0.93490998  1
  Te  Te171  1  0.90721439  0.11141549  0.26200587  1
  Te  Te172  1  0.90640220  0.09740691  0.53527853  1
  Te  Te173  1  0.91242928  0.09537276  0.91626534  1
  Te  Te174  1  0.90369981  0.37664685  0.23206027  1
  Te  Te175  1  0.91920936  0.41206117  0.58234755  1
  Te  Te176  1  0.89963207  0.39922732  0.92177026  1
  Te  Te177  1  0.93128091  0.76247807  0.25577518  1
  Te  Te178  1  0.91755696  0.77892830  0.57704997  1
  Te  Te179  1  0.91667065  0.74399849  0.92541007  1
