# generated using pymatgen
data_In2Te3
_symmetry_space_group_name_H-M   'P 1'
_cell_length_a   18.93743160
_cell_length_b   18.97097075
_cell_length_c   18.95972751
_cell_angle_alpha   90.20830857
_cell_angle_beta   90.03490016
_cell_angle_gamma   90.03753500
_symmetry_Int_Tables_number   1
_chemical_formula_structural   In2Te3
_chemical_formula_sum   'In72 Te108'
_cell_volume   6811.45165130
_cell_formula_units_Z   36
loop_
 _symmetry_equiv_pos_site_id
 _symmetry_equiv_pos_as_xyz
  1  'x, y, z'
loop_
 _atom_site_type_symbol
 _atom_site_label
 _atom_site_symmetry_multiplicity
 _atom_site_fract_x
 _atom_site_fract_y
 _atom_site_fract_z
 _atom_site_occupancy
  In  In0  1  0.49925630  -0.00694582  0.50704255  1
  In  In1  1  0.34126845  0.34952559  0.65068151  1
  In  In2  1  0.49238985  0.81707206  0.66488886  1
  In  In3  1  0.49506535  0.16193541  0.33261194  1
  In  In4  1  0.52023606  0.49157373  0.65889878  1
  In  In5  1  0.84994710  0.65305992  0.51217898  1
  In  In6  1  0.67628294  0.02204549  0.64983826  1
  In  In7  1  0.66940098  0.18186556  0.49210224  1
  In  In8  1  0.67751292  0.83617584  0.16329782  1
  In  In9  1  0.81636157  0.16619295  0.33215258  1
  In  In10  1  0.69567160  0.65844886  0.67103422  1
  In  In11  1  0.46217395  0.66597271  0.16580333  1
  In  In12  1  -0.02634641  0.19883020  0.13814624  1
  In  In13  1  0.31843708  0.51885129  0.81765313  1
  In  In14  1  -0.00758550  0.65159923  0.33220259  1
  In  In15  1  0.68530619  0.66038047  -0.01975156  1
  In  In16  1  0.34823171  -0.00787576  0.69672503  1
  In  In17  1  0.67042381  0.51005162  0.17324177  1
  In  In18  1  0.84393734  0.85732090  0.00355113  1
  In  In19  1  0.53367700  0.82532579  0.00793309  1
  In  In20  1  0.48699938  0.35988602  0.47328701  1
  In  In21  1  0.31631453  0.15618451  0.49956796  1
  In  In22  1  0.50688552  0.34419779  0.18483268  1
  In  In23  1  0.49582401  0.67364383  0.82946377  1
  In  In24  1  0.86256546  0.00490935  0.50974464  1
  In  In25  1  0.27721598  0.81197272  0.48098648  1
  In  In26  1  0.13822981  0.15676558  0.31931837  1
  In  In27  1  0.85479531  0.64863199  0.81584990  1
  In  In28  1  0.83169411  0.19539945  0.69945661  1
  In  In29  1  0.02112185  0.48824612  0.81832582  1
  In  In30  1  0.52428822  0.00413713  0.82878876  1
  In  In31  1  0.16125057  0.50662551  0.01446243  1
  In  In32  1  0.13338966  -0.00530537  0.17489733  1
  In  In33  1  0.14215696  0.66072449  0.18252041  1
  In  In34  1  0.48677607  0.17244972  0.00313041  1
  In  In35  1  0.01511308  -0.01924370  0.67973290  1
  In  In36  1  -0.01363529  0.48703936  0.18253395  1
  In  In37  1  0.57380570  0.46862401  -0.00076289  1
  In  In38  1  -0.01920217  0.04083162  0.00084533  1
  In  In39  1  0.14699307  0.79615724  0.00508445  1
  In  In40  1  -0.00005850  0.81972511  0.50513560  1
  In  In41  1  0.31140854  0.65062203  -0.03002285  1
  In  In42  1  0.02731872  0.17469864  0.52454311  1
  In  In43  1  0.35621992  0.83459071  0.81269545  1
  In  In44  1  0.15524132  0.66511580  0.77371742  1
  In  In45  1  0.32680851  0.16955151  0.81798520  1
  In  In46  1  -0.00193706  0.50491647  0.51339260  1
  In  In47  1  0.00281784  0.83356957  0.83293400  1
  In  In48  1  0.34040828  -0.01796370  0.03387960  1
  In  In49  1  -0.01735449  0.33239091  0.32731245  1
  In  In50  1  0.15755887  0.18462250  0.66654459  1
  In  In51  1  0.18245919  0.19910545  -0.01892124  1
  In  In52  1  0.31007055  0.17099194  0.16293235  1
  In  In53  1  0.35234376  0.34930962  -0.00681457  1
  In  In54  1  0.00283281  -0.00449458  0.35196889  1
  In  In55  1  0.17505064  -0.01464380  0.83881928  1
  In  In56  1  -0.02063691  0.19010408  0.85951904  1
  In  In57  1  0.68134224  0.00009606  0.02836882  1
  In  In58  1  0.81971129  0.36074510  0.47025784  1
  In  In59  1  -0.00138610  0.63756856  0.01632789  1
  In  In60  1  0.83298343  0.48262443  -0.00252906  1
  In  In61  1  0.81688452  0.01270790  0.18452061  1
  In  In62  1  0.66023717  0.17651241  0.18476647  1
  In  In63  1  0.31524522  0.63637162  0.35499683  1
  In  In64  1  0.33739691  0.48228746  0.21113733  1
  In  In65  1  0.16712205  0.32044719  0.51422881  1
  In  In66  1  0.68212267  0.26198980  0.82491832  1
  In  In67  1  0.65369918  0.65451034  0.33903294  1
  In  In68  1  0.49395568  0.83400625  0.34653716  1
  In  In69  1  0.68812287  0.81126668  0.52337955  1
  In  In70  1  0.49846697  0.61588994  0.48433342  1
  In  In71  1  0.34738703  0.81294338  0.18102244  1
  Te  Te72  1  0.09942792  0.10996678  0.07323122  1
  Te  Te73  1  0.10297464  0.07026484  0.44321832  1
  Te  Te74  1  0.09109014  0.08876117  0.76743181  1
  Te  Te75  1  0.07123142  0.41440193  0.08375914  1
  Te  Te76  1  0.07227152  0.40329951  0.42696769  1
  Te  Te77  1  0.09980988  0.44336507  0.70162947  1
  Te  Te78  1  0.04193423  0.75740461  0.11374706  1
  Te  Te79  1  0.08538254  0.73178321  0.41880309  1
  Te  Te80  1  0.04634192  0.74854585  0.71844364  1
  Te  Te81  1  0.42366088  0.08431850  0.10848611  1
  Te  Te82  1  0.40580616  0.06802847  0.41442469  1
  Te  Te83  1  0.44303285  0.10161823  0.74520794  1
  Te  Te84  1  0.43077089  0.43756683  0.08956444  1
  Te  Te85  1  0.39050398  0.42359263  0.37334864  1
  Te  Te86  1  0.42013136  0.42439387  0.75660871  1
  Te  Te87  1  0.40430591  0.75394274  0.04518380  1
  Te  Te88  1  0.41037874  0.73931460  0.43046052  1
  Te  Te89  1  0.39419235  0.71565939  0.72443093  1
  Te  Te90  1  0.76388770  0.11302792  0.08571282  1
  Te  Te91  1  0.75040024  0.06912265  0.42768479  1
  Te  Te92  1  0.71872607  0.11657720  0.75820951  1
  Te  Te93  1  0.70856015  0.41864440  0.05732282  1
  Te  Te94  1  0.71911751  0.43284710  0.39276141  1
  Te  Te95  1  0.70434298  0.38894095  0.74722454  1
  Te  Te96  1  0.76464154  0.74858257  0.07634020  1
  Te  Te97  1  0.75989551  0.73445645  0.41610809  1
  Te  Te98  1  0.77248093  0.75228389  0.75227921  1
  Te  Te99  1  0.07818878  0.26305093  0.22979193  1
  Te  Te100  1  0.05523724  0.28931545  0.62179336  1
  Te  Te101  1  0.09906341  0.27179913  0.88730526  1
  Te  Te102  1  0.09546997  0.54851090  0.26840564  1
  Te  Te103  1  0.09120473  0.62264287  0.53881795  1
  Te  Te104  1  0.09948713  0.60262755  0.90582500  1
  Te  Te105  1  0.08414027  0.90048041  0.27369494  1
  Te  Te106  1  0.09510572  0.91610602  0.57214920  1
  Te  Te107  1  0.07734405  0.92424997  0.93831589  1
  Te  Te108  1  0.40541189  0.25273060  0.25044127  1
  Te  Te109  1  0.41570660  0.25291093  0.55986957  1
  Te  Te110  1  0.42508530  0.25872882  0.89568194  1
  Te  Te111  1  0.43885776  0.57226208  0.28162271  1
  Te  Te112  1  0.40951276  0.54775573  0.57707680  1
  Te  Te113  1  0.42814489  0.57030726  0.91711977  1
  Te  Te114  1  0.40537160  0.91751902  0.26411864  1
  Te  Te115  1  0.39945238  0.90390557  0.58014761  1
  Te  Te116  1  0.42736734  0.92348062  0.91584289  1
  Te  Te117  1  0.76412705  0.26859853  0.24065698  1
  Te  Te118  1  0.77235617  0.25668001  0.57268300  1
  Te  Te119  1  0.81267218  0.26418981  0.90591074  1
  Te  Te120  1  0.75433197  0.60811767  0.24257324  1
  Te  Te121  1  0.77028714  0.55668643  0.59425261  1
  Te  Te122  1  0.75670185  0.56005338  0.89175705  1
  Te  Te123  1  0.75719720  0.90604805  0.26347665  1
  Te  Te124  1  0.77160761  0.91712253  0.59572349  1
  Te  Te125  1  0.74083699  0.91991681  0.92162779  1
  Te  Te126  1  0.24988590  0.28723658  0.08681990  1
  Te  Te127  1  0.23577656  0.23981966  0.40301473  1
  Te  Te128  1  0.24787044  0.27663917  0.74784456  1
  Te  Te129  1  0.25634807  0.59058263  0.09906536  1
  Te  Te130  1  0.22395321  0.58557163  0.46013022  1
  Te  Te131  1  0.21574573  0.54395762  0.70812078  1
  Te  Te132  1  0.23155255  0.89512477  0.09215038  1
  Te  Te133  1  0.20352285  0.93107139  0.44678950  1
  Te  Te134  1  0.23669261  0.89430137  0.73471875  1
  Te  Te135  1  0.58193515  0.25913619  0.08281671  1
  Te  Te136  1  0.58418105  0.26460878  0.39978851  1
  Te  Te137  1  0.60062788  0.29286356  0.69755650  1
  Te  Te138  1  0.57907443  0.60703886  0.07610319  1
  Te  Te139  1  0.62566921  0.54868726  0.44249774  1
  Te  Te140  1  0.59321268  0.58330095  0.75635479  1
  Te  Te141  1  0.57014454  0.92955450  0.10838751  1
  Te  Te142  1  0.59622721  0.90089370  0.43660071  1
  Te  Te143  1  0.59091602  0.91486764  0.72581258  1
  Te  Te144  1  0.92278581  0.26565141  0.01585866  1
  Te  Te145  1  0.92578993  0.22832085  0.42524903  1
  Te  Te146  1  0.90830169  0.29619791  0.77865142  1
  Te  Te147  1  0.89190064  0.57676667  0.10284530  1
  Te  Te148  1  0.90212861  0.55607532  0.40495101  1
  Te  Te149  1  0.93447777  0.56377339  0.72654972  1
  Te  Te150  1  0.92378639  0.94227767  0.10014801  1
  Te  Te151  1  0.90503014  0.89677732  0.41273063  1
  Te  Te152  1  0.91189375  0.93577967  0.77545846  1
  Te  Te153  1  0.24293914  0.06805631  0.25184801  1
  Te  Te154  1  0.25283586  0.08001184  0.61266914  1
  Te  Te155  1  0.27296572  0.07421775  0.92626451  1
  Te  Te156  1  0.25659791  0.40863910  0.30552881  1
  Te  Te157  1  0.26888306  0.42371607  0.54476051  1
  Te  Te158  1  0.24677965  0.42765877  0.91558939  1
  Te  Te159  1  0.24641116  0.73833847  0.26512420  1
  Te  Te160  1  0.22517777  0.70688963  0.56837681  1
  Te  Te161  1  0.24104681  0.75875776  0.88846729  1
  Te  Te162  1  0.59698959  0.07708720  0.26989706  1
  Te  Te163  1  0.57091218  0.10528033  0.57922405  1
  Te  Te164  1  0.59192472  0.08708814  0.93585889  1
  Te  Te165  1  0.60125669  0.42170152  0.27114734  1
  Te  Te166  1  0.59539371  0.39147322  0.57436991  1
  Te  Te167  1  0.60340958  0.38454765  0.88225473  1
  Te  Te168  1  0.56978401  0.75005686  0.24276910  1
  Te  Te169  1  0.57535851  0.72303729  0.57847728  1
  Te  Te170  1  0.60426082  0.76018961  0.89307804  1
  Te  Te171  1  0.93341306  0.09658795  0.25228092  1
  Te  Te172  1  0.92565353  0.09666048  0.61555417  1
  Te  Te173  1  0.89637530  0.06942640  0.88463383  1
  Te  Te174  1  0.88359087  0.39199039  0.23467383  1
  Te  Te175  1  0.88851352  0.42936678  0.58312848  1
  Te  Te176  1  0.95994582  0.42667528  0.94095643  1
  Te  Te177  1  0.94528000  0.74745342  0.23417584  1
  Te  Te178  1  0.91487810  0.75024301  0.60517389  1
  Te  Te179  1  0.92301557  0.73933443  0.92887791  1
