# generated using pymatgen
data_In2Te3
_symmetry_space_group_name_H-M   'P 1'
_cell_length_a   18.92946875
_cell_length_b   18.95782742
_cell_length_c   18.98543074
_cell_angle_alpha   90.41537857
_cell_angle_beta   90.12634405
_cell_angle_gamma   90.12070066
_symmetry_Int_Tables_number   1
_chemical_formula_structural   In2Te3
_chemical_formula_sum   'In72 Te108'
_cell_volume   6812.93112927
_cell_formula_units_Z   36
loop_
 _symmetry_equiv_pos_site_id
 _symmetry_equiv_pos_as_xyz
  1  'x, y, z'
loop_
 _atom_site_type_symbol
 _atom_site_label
 _atom_site_symmetry_multiplicity
 _atom_site_fract_x
 _atom_site_fract_y
 _atom_site_fract_z
 _atom_site_occupancy
  In  In0  1  0.50341022  0.35006150  0.18667384  1
  In  In1  1  0.15742073  0.30226387  0.49715034  1
  In  In2  1  0.33450413  0.14865011  0.84307968  1
  In  In3  1  0.74516399  0.23895393  0.67058948  1
  In  In4  1  0.33965754  0.32107651  0.65282647  1
  In  In5  1  0.83600359  0.67068262  0.44568147  1
  In  In6  1  0.62233638  0.35263243  0.82983588  1
  In  In7  1  0.64426073  0.16446682  0.16789731  1
  In  In8  1  -0.01639172  0.50942992  0.15869903  1
  In  In9  1  0.90459803  0.65287785  0.88358820  1
  In  In10  1  0.84801476  0.80749678  0.05060092  1
  In  In11  1  0.82508223  0.16837253  0.33988328  1
  In  In12  1  0.35045629  0.01543877  0.64246272  1
  In  In13  1  0.51646983  0.00592263  0.47543888  1
  In  In14  1  0.31103770  0.50108661  0.15810324  1
  In  In15  1  0.67560369  -0.01985186  0.01108851  1
  In  In16  1  0.17883953  0.13745282  0.35000523  1
  In  In17  1  0.31703220  -0.03875375  0.02961802  1
  In  In18  1  0.14552904  0.51492470  0.31220634  1
  In  In19  1  0.16840997  -0.04837852  0.46886981  1
  In  In20  1  0.32685205  0.65275651  0.67438592  1
  In  In21  1  0.31599271  0.82334684  0.81635076  1
  In  In22  1  0.49860972  0.33234204  0.49901106  1
  In  In23  1  0.63906662  0.50536268  0.08088846  1
  In  In24  1  0.47261359  0.68367099  0.84555901  1
  In  In25  1  0.32127645  0.49265618  0.48217985  1
  In  In26  1  -0.01051181  0.85215756  0.20108700  1
  In  In27  1  0.32489480  0.33426528  -0.00568389  1
  In  In28  1  0.14520289  0.49749813  0.69523890  1
  In  In29  1  0.50964536  0.17692364  -0.00450931  1
  In  In30  1  0.16463049  0.14624394  -0.00999177  1
  In  In31  1  -0.02503543  0.35765026  -0.00579793  1
  In  In32  1  0.66262216  0.79809637  0.84522857  1
  In  In33  1  0.54583191  0.90224020  0.63760302  1
  In  In34  1  0.68764194  0.50746635  0.46180687  1
  In  In35  1  0.49139107  0.52042100  0.31710405  1
  In  In36  1  -0.02962675  0.51966477  0.52137830  1
  In  In37  1  0.48782062  -0.02398002  0.81592677  1
  In  In38  1  0.51957750  -0.00674247  0.16115250  1
  In  In39  1  0.31123191  0.69161324  -0.01105164  1
  In  In40  1  -0.00352046  0.16024915  0.50256677  1
  In  In41  1  0.16705151  0.32950179  0.82267176  1
  In  In42  1  0.50532825  0.15451747  0.32827106  1
  In  In43  1  0.31843795  0.13146861  0.18290456  1
  In  In44  1  -0.04387931  0.85997735  0.47409126  1
  In  In45  1  0.09183605  0.59520764  0.03520766  1
  In  In46  1  0.80748026  0.00134191  0.20513091  1
  In  In47  1  0.65817958  0.33383435  0.34525083  1
  In  In48  1  0.69088067  0.54765122  0.85379946  1
  In  In49  1  -0.00093730  0.15770408  0.13373488  1
  In  In50  1  0.48559807  0.69945100  0.50249167  1
  In  In51  1  0.03237585  0.33699688  0.32825098  1
  In  In52  1  0.30688541  0.81684130  0.19036978  1
  In  In53  1  0.82078500  0.00647354  0.85472924  1
  In  In54  1  -0.01719036  0.17383808  0.81870031  1
  In  In55  1  -0.01492761  -0.00188878  0.67602717  1
  In  In56  1  -0.00349507  0.68525012  0.67044622  1
  In  In57  1  0.33294864  0.51339424  0.80750697  1
  In  In58  1  0.51629503  0.47801618  0.65418585  1
  In  In59  1  0.14459091  0.34229975  0.15967401  1
  In  In60  1  0.16218029  0.82871891  0.67805434  1
  In  In61  1  0.48484087  0.83831107  0.33785791  1
  In  In62  1  0.01078142  -0.03181191  -0.02230861  1
  In  In63  1  0.63961375  0.67550968  0.65866513  1
  In  In64  1  0.51341444  0.83754729  0.02988864  1
  In  In65  1  0.66021212  0.17040611  0.83510020  1
  In  In66  1  0.14873313  0.13324879  0.64786061  1
  In  In67  1  0.16016859  0.69583925  0.48218293  1
  In  In68  1  0.69167515  0.66441554  0.26730926  1
  In  In69  1  0.80704281  0.86144046  0.64029987  1
  In  In70  1  0.82018423  0.49789166  0.65123227  1
  In  In71  1  0.76592882  0.37871394  -0.04091225  1
  Te  Te72  1  0.09304488  0.05076986  0.08084990  1
  Te  Te73  1  0.06888326  0.05846576  0.41836450  1
  Te  Te74  1  0.08327742  0.07060606  0.76826258  1
  Te  Te75  1  0.09837305  0.43800323  0.05534953  1
  Te  Te76  1  0.09879275  0.42596725  0.43278005  1
  Te  Te77  1  0.05650191  0.40437284  0.76255606  1
  Te  Te78  1  0.07463607  0.78188279  0.09643024  1
  Te  Te79  1  0.04283641  0.75697958  0.40529539  1
  Te  Te80  1  0.05488631  0.78093639  0.77002721  1
  Te  Te81  1  0.41962939  0.07868070  0.07198067  1
  Te  Te82  1  0.40946933  0.07025131  0.39799683  1
  Te  Te83  1  0.43583717  0.09607271  0.74174510  1
  Te  Te84  1  0.41538142  0.41927002  0.08269138  1
  Te  Te85  1  0.41813228  0.41122093  0.39887695  1
  Te  Te86  1  0.42378890  0.40539103  0.74982891  1
  Te  Te87  1  0.40637908  0.75123561  0.09258632  1
  Te  Te88  1  0.38560710  0.74662173  0.40464912  1
  Te  Te89  1  0.42456048  0.76250858  0.72696584  1
  Te  Te90  1  0.74856050  0.08749902  0.08833347  1
  Te  Te91  1  0.75428501  0.07435974  0.43222660  1
  Te  Te92  1  0.76438839  0.09888816  0.75164278  1
  Te  Te93  1  0.76573256  0.43047773  0.09943315  1
  Te  Te94  1  0.77400452  0.40878681  0.39875426  1
  Te  Te95  1  0.72184824  0.43900212  0.75202152  1
  Te  Te96  1  0.78354818  0.73833596  0.16448304  1
  Te  Te97  1  0.73580486  0.75609393  0.38327628  1
  Te  Te98  1  0.75077727  0.74700782  0.73418284  1
  Te  Te99  1  0.09781552  0.22284157  0.24129608  1
  Te  Te100  1  0.06895001  0.25415517  0.60745027  1
  Te  Te101  1  0.07788518  0.25213549  0.92660621  1
  Te  Te102  1  0.06758543  0.61071071  0.22983158  1
  Te  Te103  1  0.09324094  0.59890385  0.58285200  1
  Te  Te104  1  0.03954215  0.59077311  0.89906630  1
  Te  Te105  1  0.09829089  0.92293368  0.27503791  1
  Te  Te106  1  0.06573511  0.90572237  0.58045704  1
  Te  Te107  1  0.09650595  0.88880739  0.88947587  1
  Te  Te108  1  0.41538084  0.23903347  0.23949425  1
  Te  Te109  1  0.41811280  0.23177646  0.56921280  1
  Te  Te110  1  0.42205658  0.25885419  0.90329955  1
  Te  Te111  1  0.38950160  0.59309952  0.24232660  1
  Te  Te112  1  0.41963522  0.57030176  0.57899112  1
  Te  Te113  1  0.39934896  0.58186723  0.92845643  1
  Te  Te114  1  0.40963689  0.92388516  0.23568811  1
  Te  Te115  1  0.41767314  0.91346444  0.55671793  1
  Te  Te116  1  0.41462755  0.89640297  0.92267496  1
  Te  Te117  1  0.74095971  0.25236413  0.24557130  1
  Te  Te118  1  0.78021195  0.18920787  0.53619767  1
  Te  Te119  1  0.73842457  0.23502730  0.94254469  1
  Te  Te120  1  0.81532751  0.59121074  0.21001511  1
  Te  Te121  1  0.74306297  0.60272519  0.57033119  1
  Te  Te122  1  0.77317888  0.62495363  0.95166781  1
  Te  Te123  1  0.79989881  0.88505714  0.29755360  1
  Te  Te124  1  0.73562492  0.95875327  0.55697412  1
  Te  Te125  1  0.76598396  0.87632973  0.93567061  1
  Te  Te126  1  0.25129328  0.23483869  0.08250688  1
  Te  Te127  1  0.25895675  0.24452746  0.41214189  1
  Te  Te128  1  0.24659254  0.22485051  0.74277910  1
  Te  Te129  1  0.22976869  0.61558065  0.09257859  1
  Te  Te130  1  0.24256328  0.59417306  0.40180989  1
  Te  Te131  1  0.21946728  0.60784240  0.77069518  1
  Te  Te132  1  0.21271057  0.87233705  0.08596885  1
  Te  Te133  1  0.26965173  0.86598116  0.40392929  1
  Te  Te134  1  0.25717361  0.93524216  0.73364475  1
  Te  Te135  1  0.58600874  0.27469155  0.08128607  1
  Te  Te136  1  0.59032127  0.23006587  0.42999863  1
  Te  Te137  1  0.60019280  0.25078133  0.71884338  1
  Te  Te138  1  0.60042657  0.63360709  0.14288755  1
  Te  Te139  1  0.56733037  0.59426457  0.42676685  1
  Te  Te140  1  0.56343956  0.58906951  0.75824293  1
  Te  Te141  1  0.62456292  0.88874674  0.12046875  1
  Te  Te142  1  0.59765915  0.92154400  0.38490692  1
  Te  Te143  1  0.62149453  0.92298463  0.77101095  1
  Te  Te144  1  0.91571198  0.27571971  0.10278238  1
  Te  Te145  1  0.93066647  0.25783036  0.40844716  1
  Te  Te146  1  0.87238102  0.24679990  0.75513907  1
  Te  Te147  1  0.87224630  0.55808987  0.07171107  1
  Te  Te148  1  0.92740833  0.57014890  0.39170837  1
  Te  Te149  1  0.90447029  0.58866418  0.74093506  1
  Te  Te150  1  0.90503682  0.94122062  0.09561398  1
  Te  Te151  1  0.86809611  0.96130191  0.41079042  1
  Te  Te152  1  0.89212588  0.91144525  0.75832260  1
  Te  Te153  1  0.22836371  0.03684286  0.25090779  1
  Te  Te154  1  0.24027214  0.06626627  0.55072979  1
  Te  Te155  1  0.25421740  0.04586258  0.91970742  1
  Te  Te156  1  0.24172906  0.40729471  0.25525271  1
  Te  Te157  1  0.24745202  0.42875449  0.60038049  1
  Te  Te158  1  0.24793875  0.42841565  0.90512319  1
  Te  Te159  1  0.19174973  0.79965784  0.28858856  1
  Te  Te160  1  0.25641499  0.75406512  0.58544162  1
  Te  Te161  1  0.21284835  0.77083735  0.90939227  1
  Te  Te162  1  0.60822771  0.05717116  0.26853320  1
  Te  Te163  1  0.60172689  0.03641364  0.59552001  1
  Te  Te164  1  0.57828660  0.05944340  0.92462524  1
  Te  Te165  1  0.60549872  0.44433520  0.24854752  1
  Te  Te166  1  0.61264710  0.41273107  0.56021191  1
  Te  Te167  1  0.59670990  0.45914936  0.94104315  1
  Te  Te168  1  0.55641903  0.73827570  0.25268408  1
  Te  Te169  1  0.60094733  0.78159846  0.55873988  1
  Te  Te170  1  0.57839155  0.72597492  0.94746917  1
  Te  Te171  1  0.92211292  0.09279264  0.24841208  1
  Te  Te172  1  0.90306769  0.09073259  0.59482884  1
  Te  Te173  1  0.92396523  0.08768973  0.92939121  1
  Te  Te174  1  0.93464476  0.38944126  0.23023725  1
  Te  Te175  1  0.90583193  0.40326504  0.57920638  1
  Te  Te176  1  0.88984188  0.41988740  0.89431316  1
  Te  Te177  1  0.95192629  0.73423876  0.28368166  1
  Te  Te178  1  0.90122399  0.75120358  0.57101185  1
  Te  Te179  1  0.97329071  0.74684186  0.98964453  1
