# generated using pymatgen
data_In2Te3
_symmetry_space_group_name_H-M   'P 1'
_cell_length_a   18.97909949
_cell_length_b   19.01279988
_cell_length_c   18.99260059
_cell_angle_alpha   90.01058864
_cell_angle_beta   89.82679209
_cell_angle_gamma   89.80920254
_symmetry_Int_Tables_number   1
_chemical_formula_structural   In2Te3
_chemical_formula_sum   'In72 Te108'
_cell_volume   6853.33110132
_cell_formula_units_Z   36
loop_
 _symmetry_equiv_pos_site_id
 _symmetry_equiv_pos_as_xyz
  1  'x, y, z'
loop_
 _atom_site_type_symbol
 _atom_site_label
 _atom_site_symmetry_multiplicity
 _atom_site_fract_x
 _atom_site_fract_y
 _atom_site_fract_z
 _atom_site_occupancy
  In  In0  1  0.66287448  0.51098257  0.53780438  1
  In  In1  1  0.83078684  0.02557041  0.15812592  1
  In  In2  1  0.30038788  0.34644785  0.04349351  1
  In  In3  1  0.64741494  0.72591305  -0.02355141  1
  In  In4  1  0.47540924  0.35747340  0.84610839  1
  In  In5  1  0.56236475  -0.02202666  0.12014146  1
  In  In6  1  0.49925262  0.69082392  0.16948699  1
  In  In7  1  0.36153430  0.68055268  0.00509315  1
  In  In8  1  0.68902708  0.84700524  0.50349965  1
  In  In9  1  0.83773474  0.51872103  0.65596836  1
  In  In10  1  0.35483232  0.82307480  0.82157234  1
  In  In11  1  0.11349943  0.29936285  0.17043455  1
  In  In12  1  0.14591347  0.34728865  0.85220487  1
  In  In13  1  0.83896702  0.50090106  -0.02505631  1
  In  In14  1  0.50347231  0.54182589  0.71039454  1
  In  In15  1  0.52558237  0.50726748  0.29076240  1
  In  In16  1  0.19496872  0.85903245  0.00999845  1
  In  In17  1  0.32413448  0.33484180  0.33883521  1
  In  In18  1  0.19305548  -0.01818844  0.83383966  1
  In  In19  1  0.49764528  0.83651238  0.34471615  1
  In  In20  1  0.64484684  0.13754960  0.52197444  1
  In  In21  1  0.00935960  0.00359203  -0.00223742  1
  In  In22  1  0.35008791  -0.03049485  0.64715946  1
  In  In23  1  0.48142595  0.18170345  0.34412548  1
  In  In24  1  0.00529923  0.66552667  0.02554391  1
  In  In25  1  0.81929848  0.82714021  0.00907293  1
  In  In26  1  0.14712390  0.68439263  0.81425383  1
  In  In27  1  -0.08505287  0.40912892  0.13160097  1
  In  In28  1  0.35100177  0.51217785  0.19053128  1
  In  In29  1  -0.02442286  0.13455924  0.84075191  1
  In  In30  1  0.01689393  0.83992318  0.19143283  1
  In  In31  1  -0.03652616  0.70014893  0.64589263  1
  In  In32  1  0.35945626  0.52335004  0.48208987  1
  In  In33  1  0.67727060  -0.00493564  0.33913530  1
  In  In34  1  -0.05171684  0.29040796  -0.02202174  1
  In  In35  1  0.65181361  0.33633130  0.68029320  1
  In  In36  1  0.17454096  -0.00522314  0.20007641  1
  In  In37  1  0.79850856  -0.04876946  0.81458983  1
  In  In38  1  0.76267147  0.66964633  0.79334341  1
  In  In39  1  0.00913888  0.32923308  0.69297519  1
  In  In40  1  0.86937922  0.85033560  0.34352285  1
  In  In41  1  0.81802903  0.32164316  0.83965916  1
  In  In42  1  0.82831147  0.10415913  0.66537507  1
  In  In43  1  0.47892044  0.31696534  0.50773644  1
  In  In44  1  0.49802886  0.15596391  0.66304266  1
  In  In45  1  0.16017758  0.51735011  0.02970691  1
  In  In46  1  0.83198525  0.14639222  0.33904269  1
  In  In47  1  0.00118997  0.08551196  0.44283069  1
  In  In48  1  -0.03069918  0.83383608  0.81528889  1
  In  In49  1  0.17336416  0.16275872  0.68979068  1
  In  In50  1  0.50627420  0.32843008  0.14457385  1
  In  In51  1  0.50832446  -0.02669038  0.81124450  1
  In  In52  1  -0.01799512  0.65557649  0.34003129  1
  In  In53  1  0.75712997  0.37658461  0.29976292  1
  In  In54  1  0.53494026  0.54114807  -0.05447088  1
  In  In55  1  0.83102603  0.30662256  0.50699322  1
  In  In56  1  0.16782603  0.51075249  0.35952563  1
  In  In57  1  0.34555916  0.02433457  0.01556331  1
  In  In58  1  0.65912071  0.17708794  0.15392003  1
  In  In59  1  0.35670852  -0.00073167  0.32711385  1
  In  In60  1  0.69066447  0.50909354  0.14160608  1
  In  In61  1  0.32014568  0.17485506  0.84074684  1
  In  In62  1  0.18025961  0.52261964  0.64336116  1
  In  In63  1  -0.00083216  0.50806274  0.49204250  1
  In  In64  1  0.15098952  0.35443593  0.51321443  1
  In  In65  1  0.67282617  0.66397848  0.31851612  1
  In  In66  1  0.16494006  0.68894665  0.22856617  1
  In  In67  1  0.29509471  0.53053636  0.80633221  1
  In  In68  1  0.50733822  0.15255303  -0.03054168  1
  In  In69  1  0.30568147  0.15444653  0.50066275  1
  In  In70  1  0.19140156  0.82415711  0.37056770  1
  In  In71  1  0.52158393  0.69350144  0.50369516  1
  Te  Te72  1  0.10116057  0.06498772  0.09294829  1
  Te  Te73  1  0.13309773  0.05626017  0.38417855  1
  Te  Te74  1  0.08639677  0.06272138  0.76228675  1
  Te  Te75  1  0.06561840  0.40849640  0.07894124  1
  Te  Te76  1  0.06468768  0.40601337  0.40084089  1
  Te  Te77  1  0.09507788  0.44350784  0.74301643  1
  Te  Te78  1  0.10831712  0.75729437  0.09430226  1
  Te  Te79  1  0.06645076  0.74571033  0.42495935  1
  Te  Te80  1  0.07337686  0.77665549  0.71960849  1
  Te  Te81  1  0.45637302  0.08782415  0.09599260  1
  Te  Te82  1  0.42460137  0.08207330  0.44094306  1
  Te  Te83  1  0.39550009  0.07460405  0.75641221  1
  Te  Te84  1  0.41937739  0.43420603  0.07855784  1
  Te  Te85  1  0.43919521  0.41892457  0.39267416  1
  Te  Te86  1  0.39757147  0.43662191  0.74303960  1
  Te  Te87  1  0.43606858  0.78457609  0.07411615  1
  Te  Te88  1  0.41077865  0.77631962  0.44995800  1
  Te  Te89  1  0.45513856  0.77007691  0.72314725  1
  Te  Te90  1  0.69935772  0.04847007  0.08664789  1
  Te  Te91  1  0.75577336  0.06767932  0.44607574  1
  Te  Te92  1  0.72465691  0.07125134  0.76217868  1
  Te  Te93  1  0.76970509  0.40431594  0.07021010  1
  Te  Te94  1  0.73669449  0.40897297  0.44786405  1
  Te  Te95  1  0.75494341  0.42567793  0.74475107  1
  Te  Te96  1  0.74610911  0.72642965  0.08630918  1
  Te  Te97  1  0.75864252  0.76099401  0.39838615  1
  Te  Te98  1  0.76357454  0.81044746  0.74408083  1
  Te  Te99  1  0.00095485  0.20947313  0.20304881  1
  Te  Te100  1  0.08593654  0.24401724  0.59433776  1
  Te  Te101  1  0.07336248  0.23119052  0.91220521  1
  Te  Te102  1  0.07676458  0.57318630  0.25020015  1
  Te  Te103  1  0.06978152  0.60490484  0.58226087  1
  Te  Te104  1  0.08556817  0.59077903  0.91849068  1
  Te  Te105  1  0.08499110  0.92051410  0.29766730  1
  Te  Te106  1  0.03216260  0.87000956  0.51045201  1
  Te  Te107  1  0.08414341  0.89629271  0.91022328  1
  Te  Te108  1  0.40675991  0.25727562  0.23601706  1
  Te  Te109  1  0.38787048  0.23991505  0.59796296  1
  Te  Te110  1  0.39352344  0.26068135  0.94135081  1
  Te  Te111  1  0.42010160  0.61590703  0.27598523  1
  Te  Te112  1  0.43279782  0.60103325  0.58958868  1
  Te  Te113  1  0.40825944  0.59645408  0.88825994  1
  Te  Te114  1  0.46570297  0.94040286  0.23835474  1
  Te  Te115  1  0.43311482  0.85696558  0.59892559  1
  Te  Te116  1  0.41005502  0.92550412  0.91654941  1
  Te  Te117  1  0.77166789  0.23817461  0.23448810  1
  Te  Te118  1  0.73794527  0.23562468  0.60512130  1
  Te  Te119  1  0.80866528  0.23289300  0.95857450  1
  Te  Te120  1  0.76040134  0.55960164  0.25941087  1
  Te  Te121  1  0.75887072  0.61625250  0.57597575  1
  Te  Te122  1  0.74247307  0.60843017  0.93176004  1
  Te  Te123  1  0.76955548  0.91791783  0.24839175  1
  Te  Te124  1  0.78457520  0.89379933  0.61086629  1
  Te  Te125  1  0.71490994  0.89918297  0.93069735  1
  Te  Te126  1  0.22761854  0.23606734  0.10282943  1
  Te  Te127  1  0.22575036  0.25556975  0.42027255  1
  Te  Te128  1  0.24467968  0.27734473  0.75865846  1
  Te  Te129  1  0.26723785  0.60163738  0.09608799  1
  Te  Te130  1  0.25016769  0.60615026  0.43155092  1
  Te  Te131  1  0.25237310  0.64029445  0.71171013  1
  Te  Te132  1  0.28133497  0.92596238  0.11158481  1
  Te  Te133  1  0.28030550  0.92943323  0.43723221  1
  Te  Te134  1  0.25131852  0.88742460  0.73124356  1
  Te  Te135  1  0.59348353  0.25696649  0.04321109  1
  Te  Te136  1  0.58990429  0.24772371  0.43301823  1
  Te  Te137  1  0.55652959  0.25306163  0.76312101  1
  Te  Te138  1  0.56796053  0.57926609  0.08801206  1
  Te  Te139  1  0.58878774  0.57671687  0.41472296  1
  Te  Te140  1  0.62231594  0.61290408  0.75775233  1
  Te  Te141  1  0.59226923  0.86161960  0.03163727  1
  Te  Te142  1  0.58006537  0.92717911  0.43389830  1
  Te  Te143  1  0.59299679  0.85722177  0.76613630  1
  Te  Te144  1  0.91251240  0.18763557  0.08192145  1
  Te  Te145  1  0.92791469  0.22540846  0.42666084  1
  Te  Te146  1  0.90397619  0.23159018  0.74385882  1
  Te  Te147  1  0.91926349  0.56090513  0.08902323  1
  Te  Te148  1  0.89113021  0.58268899  0.42928935  1
  Te  Te149  1  0.90333854  0.61240430  0.75463705  1
  Te  Te150  1  0.92629711  0.91037921  0.09161585  1
  Te  Te151  1  0.92150793  0.95466632  0.43991252  1
  Te  Te152  1  0.92010790  0.94034662  0.72535327  1
  Te  Te153  1  0.25196206  0.09539760  0.28022953  1
  Te  Te154  1  0.23383467  0.06081593  0.59530457  1
  Te  Te155  1  0.23608633  0.08831879  0.93234776  1
  Te  Te156  1  0.24184200  0.42635685  0.25064367  1
  Te  Te157  1  0.27031723  0.42859862  0.56569040  1
  Te  Te158  1  0.25047593  0.43845350  0.92585288  1
  Te  Te159  1  0.27581875  0.77552367  0.25795990  1
  Te  Te160  1  0.19694353  0.83018545  0.52183736  1
  Te  Te161  1  0.24793288  0.74939904  0.91655625  1
  Te  Te162  1  0.59849465  0.11082340  0.27747675  1
  Te  Te163  1  0.58130532  0.04508768  0.61598654  1
  Te  Te164  1  0.59401094  0.07057369  0.88432188  1
  Te  Te165  1  0.60525426  0.38874059  0.24237575  1
  Te  Te166  1  0.55377963  0.41689468  0.59544843  1
  Te  Te167  1  0.59709804  0.41768190  0.90059229  1
  Te  Te168  1  0.59823178  0.77376029  0.24723561  1
  Te  Te169  1  0.63573512  0.73436390  0.58620225  1
  Te  Te170  1  0.55962686  0.73649279  0.85208460  1
  Te  Te171  1  0.93182484  0.06704160  0.25845472  1
  Te  Te172  1  0.94677928  0.07514879  0.58608252  1
  Te  Te173  1  0.88888447  0.03813567  0.91468394  1
  Te  Te174  1  0.89815272  0.40661191  0.27613214  1
  Te  Te175  1  0.92285213  0.40450816  0.59021720  1
  Te  Te176  1  0.92763737  0.41538204  0.88830812  1
  Te  Te177  1  0.91202823  0.74307202  0.23805774  1
  Te  Te178  1  0.89555150  0.79702713  0.55639835  1
  Te  Te179  1  0.91966050  0.74555239  0.92882778  1
