# generated using pymatgen
data_In2Te3
_symmetry_space_group_name_H-M   'P 1'
_cell_length_a   18.81006233
_cell_length_b   18.80673877
_cell_length_c   18.80112792
_cell_angle_alpha   90.04959085
_cell_angle_beta   89.93938622
_cell_angle_gamma   89.97649620
_symmetry_Int_Tables_number   1
_chemical_formula_structural   In2Te3
_chemical_formula_sum   'In72 Te108'
_cell_volume   6651.00368758
_cell_formula_units_Z   36
loop_
 _symmetry_equiv_pos_site_id
 _symmetry_equiv_pos_as_xyz
  1  'x, y, z'
loop_
 _atom_site_type_symbol
 _atom_site_label
 _atom_site_symmetry_multiplicity
 _atom_site_fract_x
 _atom_site_fract_y
 _atom_site_fract_z
 _atom_site_occupancy
  In  In0  1  -0.00291989  0.66724131  0.02210074  1
  In  In1  1  0.15686010  0.65059864  0.49575340  1
  In  In2  1  0.82282757  0.64855712  0.85753492  1
  In  In3  1  0.50734216  0.68700626  0.17005758  1
  In  In4  1  0.49115332  0.48792968  -0.00800486  1
  In  In5  1  0.82008097  0.49439964  0.67155730  1
  In  In6  1  0.34055502  0.17284716  0.16463510  1
  In  In7  1  -0.01193360  0.50174009  0.83724341  1
  In  In8  1  0.67797423  0.00659675  0.31787099  1
  In  In9  1  0.83718829  -0.00238593  0.17399633  1
  In  In10  1  0.84954074  0.83787886  0.65677487  1
  In  In11  1  0.14853430  0.00818589  0.45966798  1
  In  In12  1  0.00385237  0.16681947  0.48031754  1
  In  In13  1  0.34056479  0.19791950  0.84189274  1
  In  In14  1  -0.00474638  0.32225830  0.66565486  1
  In  In15  1  0.33512104  0.17364843  0.47101814  1
  In  In16  1  0.65964655  0.33885969  0.35279447  1
  In  In17  1  0.14785427  0.65428531  0.83178698  1
  In  In18  1  0.65921816  0.83229788  0.84002868  1
  In  In19  1  0.32153871  0.68548378  0.32399164  1
  In  In20  1  0.52151435  0.79785322  0.67179110  1
  In  In21  1  0.32129837  0.66064113  0.01386688  1
  In  In22  1  0.52370307  0.66825595  0.83485729  1
  In  In23  1  0.66916566  0.66150817  -0.03672419  1
  In  In24  1  0.33855330  0.51077280  0.50506134  1
  In  In25  1  -0.00160989  -0.00776610  0.66127508  1
  In  In26  1  -0.01052747  -0.00917389  0.00118695  1
  In  In27  1  0.83171961  0.31119723  0.48995064  1
  In  In28  1  0.64996315  0.01677480  0.01768177  1
  In  In29  1  0.83767822  0.02655954  0.82484194  1
  In  In30  1  0.31766963  0.83314208  0.84729401  1
  In  In31  1  0.51529902  0.33682910  0.50877867  1
  In  In32  1  0.33557322  0.01300868  0.02579471  1
  In  In33  1  0.66158099  0.17487241  0.49792223  1
  In  In34  1  0.66711116  0.32651489  0.00272810  1
  In  In35  1  0.50987546  0.01228560  0.47967652  1
  In  In36  1  0.31549919  0.84962562  0.49296696  1
  In  In37  1  0.17219340  0.33109976  0.85803605  1
  In  In38  1  0.35728070  0.01256245  0.63979022  1
  In  In39  1  0.52991158  0.51483544  0.33792883  1
  In  In40  1  0.31659044  0.49303846  0.16169330  1
  In  In41  1  0.81748493  0.33190471  0.84361236  1
  In  In42  1  0.33959280  0.32605989  -0.00091587  1
  In  In43  1  0.80861044  0.17660850  0.67108648  1
  In  In44  1  0.16594846  0.50164412  0.63864329  1
  In  In45  1  0.52652096  0.19340496  0.67166231  1
  In  In46  1  0.00637309  0.32711706  0.04988926  1
  In  In47  1  0.51192393  0.00915222  0.85174884  1
  In  In48  1  0.67956951  0.51167675  0.17185004  1
  In  In49  1  0.32169261  0.85818968  0.17209083  1
  In  In50  1  0.14538920  -0.01033301  0.84814909  1
  In  In51  1  0.15696957  0.82518101  0.69664709  1
  In  In52  1  0.33772931  0.63606868  0.64842809  1
  In  In53  1  0.33391537  0.31141342  0.33561822  1
  In  In54  1  0.83180269  0.84300672  0.01624103  1
  In  In55  1  0.66945248  0.64665707  0.65838349  1
  In  In56  1  0.83953132  0.67770492  0.20308009  1
  In  In57  1  0.09542183  0.47849337  0.27863906  1
  In  In58  1  0.16245753  0.16508732  0.01071393  1
  In  In59  1  0.16741454  0.16550694  0.67846129  1
  In  In60  1  0.82697072  0.52263920  0.01372529  1
  In  In61  1  0.36225280  0.45219732  0.82017197  1
  In  In62  1  0.50866415  0.84612417  0.31585085  1
  In  In63  1  0.83828166  -0.02091460  0.49169085  1
  In  In64  1  0.51943814  0.65693684  0.49887974  1
  In  In65  1  -0.01814489  0.51912564  0.46519246  1
  In  In66  1  0.66707085  0.17170838  0.16947790  1
  In  In67  1  -0.00422385  0.81352025  0.49061572  1
  In  In68  1  0.16546642  0.83833538  0.34071605  1
  In  In69  1  0.85956996  0.19004195  0.31656272  1
  In  In70  1  0.66971887  0.83915413  0.17159041  1
  In  In71  1  0.17160508  0.00244828  0.18110198  1
  Te  Te72  1  0.06988309  0.08237496  0.09533426  1
  Te  Te73  1  0.07345320  0.09761034  0.36717006  1
  Te  Te74  1  0.06660750  0.08786874  0.76156740  1
  Te  Te75  1  0.09523869  0.42257860  0.12754172  1
  Te  Te76  1  0.09163964  0.43175815  0.42077835  1
  Te  Te77  1  0.08430218  0.41562418  0.75248060  1
  Te  Te78  1  0.06753952  0.74207746  0.12863803  1
  Te  Te79  1  0.07741923  0.72275309  0.38909886  1
  Te  Te80  1  0.05485572  0.73532541  0.74895693  1
  Te  Te81  1  0.43380459  0.11794461  0.05938357  1
  Te  Te82  1  0.41126323  0.07487665  0.39210298  1
  Te  Te83  1  0.42138818  0.09547377  0.75080964  1
  Te  Te84  1  0.42484835  0.40515610  0.10071772  1
  Te  Te85  1  0.42622307  0.42483613  0.40922032  1
  Te  Te86  1  0.45560740  0.38118467  0.72868838  1
  Te  Te87  1  0.40906573  0.76343582  0.08506089  1
  Te  Te88  1  0.42252299  0.75248745  0.41750218  1
  Te  Te89  1  0.39957186  0.74429360  0.75062636  1
  Te  Te90  1  0.76632699  0.09251963  0.08092401  1
  Te  Te91  1  0.76447423  0.10045107  0.41371047  1
  Te  Te92  1  0.72334406  0.09202179  0.75689115  1
  Te  Te93  1  0.76216427  0.40990601  0.09274652  1
  Te  Te94  1  0.75819595  0.42185631  0.42448535  1
  Te  Te95  1  0.73409394  0.39238153  0.73610609  1
  Te  Te96  1  0.74633549  0.72927332  0.08340409  1
  Te  Te97  1  0.73634099  0.69095727  0.35569920  1
  Te  Te98  1  0.75019590  0.74453620  0.75629706  1
  Te  Te99  1  0.05207271  0.27134250  0.20018938  1
  Te  Te100  1  0.09354755  0.25051327  0.57462266  1
  Te  Te101  1  0.06711990  0.24786519  0.92484078  1
  Te  Te102  1  0.06461358  0.61579032  0.21504100  1
  Te  Te103  1  0.05364330  0.58976848  0.58755503  1
  Te  Te104  1  0.08080974  0.56681197  0.93827218  1
  Te  Te105  1  0.07514356  0.91490482  0.25330217  1
  Te  Te106  1  0.09553759  0.91040573  0.57368710  1
  Te  Te107  1  0.07118072  0.89112567  0.92594295  1
  Te  Te108  1  0.43482973  0.25543609  0.24525155  1
  Te  Te109  1  0.41413517  0.24485717  0.57925996  1
  Te  Te110  1  0.44666717  0.24779470  0.93100749  1
  Te  Te111  1  0.41875867  0.58751450  0.24743264  1
  Te  Te112  1  0.46026862  0.55167969  0.60048200  1
  Te  Te113  1  0.40866125  0.58818430  0.90833147  1
  Te  Te114  1  0.42645704  0.94039433  0.23668586  1
  Te  Te115  1  0.43545508  0.89651010  0.57773439  1
  Te  Te116  1  0.41310931  0.92092972  0.92790116  1
  Te  Te117  1  0.75198454  0.27229881  0.24955228  1
  Te  Te118  1  0.72275645  0.27683203  0.59324577  1
  Te  Te119  1  0.74815018  0.22828477  0.92343695  1
  Te  Te120  1  0.78543154  0.54988363  0.27150350  1
  Te  Te121  1  0.77015894  0.58725161  0.56681899  1
  Te  Te122  1  0.72766012  0.53682276  0.89715991  1
  Te  Te123  1  0.77076549  0.89609892  0.26867787  1
  Te  Te124  1  0.75046511  0.92879636  0.59696226  1
  Te  Te125  1  0.74671967  0.92686351  0.92197511  1
  Te  Te126  1  0.23819582  0.26562679  0.09427228  1
  Te  Te127  1  0.22178561  0.23680454  0.39968037  1
  Te  Te128  1  0.25482175  0.27380547  0.74144401  1
  Te  Te129  1  0.22343405  0.58377966  0.09253501  1
  Te  Te130  1  0.24771013  0.57538069  0.39995776  1
  Te  Te131  1  0.25084139  0.56613094  0.75557969  1
  Te  Te132  1  0.22694296  0.91587313  0.06554882  1
  Te  Te133  1  0.26909154  0.94416311  0.38623164  1
  Te  Te134  1  0.25984334  0.93173748  0.73824112  1
  Te  Te135  1  0.57086329  0.24726936  0.08483960  1
  Te  Te136  1  0.56086625  0.23338632  0.40171058  1
  Te  Te137  1  0.57344123  0.29170137  0.77148411  1
  Te  Te138  1  0.57949980  0.58449816  0.07650908  1
  Te  Te139  1  0.62791550  0.57634354  0.43191620  1
  Te  Te140  1  0.59025711  0.56548364  0.75420721  1
  Te  Te141  1  0.57188843  0.92037748  0.09800931  1
  Te  Te142  1  0.60516486  0.91167921  0.41542046  1
  Te  Te143  1  0.57962006  0.91955967  0.74463986  1
  Te  Te144  1  0.91566930  0.24043562  0.13080191  1
  Te  Te145  1  0.94935512  0.28400888  0.39672811  1
  Te  Te146  1  0.91411835  0.24078775  0.76223376  1
  Te  Te147  1  0.92631085  0.57050277  0.11873549  1
  Te  Te148  1  0.90409259  0.61385519  0.37947938  1
  Te  Te149  1  0.91166489  0.59348807  0.74488063  1
  Te  Te150  1  0.93287468  0.89334799  0.11440402  1
  Te  Te151  1  0.94050783  0.92129555  0.40404127  1
  Te  Te152  1  0.92447102  0.91182356  0.76736091  1
  Te  Te153  1  0.23546796  0.11539174  0.25394721  1
  Te  Te154  1  0.23689525  0.07815364  0.57160652  1
  Te  Te155  1  0.25270247  0.08465355  0.90574667  1
  Te  Te156  1  0.24284868  0.41467004  0.26780639  1
  Te  Te157  1  0.26129029  0.40814580  0.57773155  1
  Te  Te158  1  0.25512387  0.43385811  0.93194120  1
  Te  Te159  1  0.22873443  0.74998733  0.22469239  1
  Te  Te160  1  0.24260132  0.74579265  0.58208503  1
  Te  Te161  1  0.22395679  0.74651009  0.92912666  1
  Te  Te162  1  0.57627118  0.07833260  0.24201400  1
  Te  Te163  1  0.59022489  0.07799843  0.59103429  1
  Te  Te164  1  0.60475224  0.10873087  0.90909372  1
  Te  Te165  1  0.58479129  0.41263416  0.23942738  1
  Te  Te166  1  0.56886641  0.44088206  0.59793873  1
  Te  Te167  1  0.57859211  0.40358566  0.90648118  1
  Te  Te168  1  0.61192642  0.72656292  0.27946790  1
  Te  Te169  1  0.61792031  0.75808178  0.56191507  1
  Te  Te170  1  0.56328231  0.77060203  0.94093665  1
  Te  Te171  1  0.93291962  0.07533263  0.25915949  1
  Te  Te172  1  0.91400977  0.09577132  0.58373955  1
  Te  Te173  1  0.91405695  0.09568768  0.92982762  1
  Te  Te174  1  0.95966055  0.39063985  0.20748614  1
  Te  Te175  1  0.91945976  0.41633738  0.57443260  1
  Te  Te176  1  0.91459343  0.41496073  0.93861705  1
  Te  Te177  1  0.91998403  0.74990481  0.30398168  1
  Te  Te178  1  0.88686265  0.73728313  0.55487553  1
  Te  Te179  1  0.91338222  0.75070616  0.92517115  1
