# generated using pymatgen
data_In2Te3
_symmetry_space_group_name_H-M   'P 1'
_cell_length_a   18.89992470
_cell_length_b   18.87575745
_cell_length_c   18.88993246
_cell_angle_alpha   90.08888938
_cell_angle_beta   90.01650662
_cell_angle_gamma   90.06073642
_symmetry_Int_Tables_number   1
_chemical_formula_structural   In2Te3
_chemical_formula_sum   'In72 Te108'
_cell_volume   6738.97867685
_cell_formula_units_Z   36
loop_
 _symmetry_equiv_pos_site_id
 _symmetry_equiv_pos_as_xyz
  1  'x, y, z'
loop_
 _atom_site_type_symbol
 _atom_site_label
 _atom_site_symmetry_multiplicity
 _atom_site_fract_x
 _atom_site_fract_y
 _atom_site_fract_z
 _atom_site_occupancy
  In  In0  1  0.01032647  0.32338268  -0.00679609  1
  In  In1  1  0.70922395  0.69095142  0.35781327  1
  In  In2  1  0.16195604  0.32210405  0.82236929  1
  In  In3  1  0.84159557  0.84747520  0.65293040  1
  In  In4  1  0.50876586  0.83240948  -0.01155314  1
  In  In5  1  0.80315262  0.87222982  -0.02410989  1
  In  In6  1  0.81902064  0.51689566  -0.00683709  1
  In  In7  1  0.32768352  0.82743191  0.82248684  1
  In  In8  1  0.15811417  0.17254953  0.65666582  1
  In  In9  1  0.50219197  0.64546790  0.15045870  1
  In  In10  1  0.81162708  0.67885803  0.17641975  1
  In  In11  1  0.34817332  0.85933134  0.49814677  1
  In  In12  1  0.36688100  0.48445759  0.12283051  1
  In  In13  1  0.49648146  0.82338433  0.32201039  1
  In  In14  1  0.83105251  0.68434840  0.82492881  1
  In  In15  1  -0.01819722  0.51645224  0.51724657  1
  In  In16  1  0.14267954  -0.01601224  0.49169142  1
  In  In17  1  0.53038912  0.31422705  0.90892776  1
  In  In18  1  0.67677553  0.16052174  0.50298100  1
  In  In19  1  0.51664147  0.00770259  0.79536386  1
  In  In20  1  0.83766534  0.32137475  0.80772690  1
  In  In21  1  0.20115124  0.00248254  0.82622648  1
  In  In22  1  -0.01679884  0.01399734  0.00387535  1
  In  In23  1  0.82808565  0.49739070  0.67088497  1
  In  In24  1  0.84012377  0.33157951  0.18007343  1
  In  In25  1  0.33658417  0.30019073  0.62664731  1
  In  In26  1  0.34062750  0.49769574  0.51401788  1
  In  In27  1  0.81468835  0.13478446  0.66906829  1
  In  In28  1  0.17933681  0.00641846  0.16231113  1
  In  In29  1  0.17822955  0.47713661  0.30742189  1
  In  In30  1  0.33666206  0.15509499  0.49865675  1
  In  In31  1  0.33606603  0.02052885  -0.00324540  1
  In  In32  1  0.13167585  0.32336296  0.50929190  1
  In  In33  1  0.67257168  0.34345870  0.33795195  1
  In  In34  1  0.56779504  0.73368410  0.53302825  1
  In  In35  1  0.32780513  0.17182693  0.15496177  1
  In  In36  1  0.16161540  0.48837518  0.71191525  1
  In  In37  1  -0.00957266  0.68116522  0.67228242  1
  In  In38  1  0.00331669  0.82606138  0.83464309  1
  In  In39  1  0.34594228  0.68511129  0.00673560  1
  In  In40  1  0.49323345  0.16163031  0.32901594  1
  In  In41  1  0.13135966  0.83331056  0.03010589  1
  In  In42  1  0.03499097  0.48454446  0.84344038  1
  In  In43  1  0.16513708  0.52370982  -0.02001805  1
  In  In44  1  0.33197984  0.67177995  0.65237062  1
  In  In45  1  0.66668197  0.84307246  0.17368617  1
  In  In46  1  0.32610658  0.70275128  0.32673452  1
  In  In47  1  0.14796879  0.82732321  0.31487120  1
  In  In48  1  0.52866302  -0.00745967  0.52768955  1
  In  In49  1  0.15560096  0.66104062  0.47877354  1
  In  In50  1  0.36187777  0.46840220  0.85998384  1
  In  In51  1  0.65548657  0.17279269  0.13959820  1
  In  In52  1  0.49987429  -0.01478157  0.18436990  1
  In  In53  1  -0.03433300  0.66081816  0.33311446  1
  In  In54  1  0.65847982  0.32325610  0.67474230  1
  In  In55  1  0.15043953  0.66564981  0.82898033  1
  In  In56  1  0.33682596  0.32265460  0.31891234  1
  In  In57  1  0.51263863  0.49567389  0.70738741  1
  In  In58  1  0.00694644  0.15546435  0.18342196  1
  In  In59  1  0.69981210  -0.00077633  0.36553677  1
  In  In60  1  0.52345643  0.51033534  0.33255012  1
  In  In61  1  -0.00825586  0.31019219  0.34293760  1
  In  In62  1  0.81150936  0.14717245  -0.00624788  1
  In  In63  1  0.66330168  0.50843118  0.15466140  1
  In  In64  1  -0.00706323  0.49352426  0.17180719  1
  In  In65  1  -0.02985557  -0.01246007  0.34553398  1
  In  In66  1  0.68511502  0.50299503  0.51346744  1
  In  In67  1  0.46662435  0.30869666  0.53018682  1
  In  In68  1  0.67681233  0.16169233  0.82623840  1
  In  In69  1  0.52167990  0.68375189  0.81746402  1
  In  In70  1  -0.00795256  0.00231605  0.65157526  1
  In  In71  1  0.14700998  0.15924233  0.32790559  1
  Te  Te72  1  0.09483639  0.09658924  0.07495333  1
  Te  Te73  1  0.05567491  0.09060184  0.42394926  1
  Te  Te74  1  0.08939355  0.07241916  0.74714476  1
  Te  Te75  1  0.08786719  0.42619594  0.07406888  1
  Te  Te76  1  0.07933430  0.43259897  0.41755442  1
  Te  Te77  1  0.05503527  0.38231886  0.73048477  1
  Te  Te78  1  0.09526970  0.74132839  0.13561601  1
  Te  Te79  1  0.05880493  0.75660172  0.41554328  1
  Te  Te80  1  0.10062035  0.76850201  0.73031367  1
  Te  Te81  1  0.43685783  0.08683784  0.08863671  1
  Te  Te82  1  0.43010473  0.06278172  0.42434496  1
  Te  Te83  1  0.40968637  0.08812287  0.73740886  1
  Te  Te84  1  0.45720518  0.40531810  0.03157100  1
  Te  Te85  1  0.42094227  0.41626097  0.40980456  1
  Te  Te86  1  0.40187318  0.39616979  0.73425987  1
  Te  Te87  1  0.42669900  0.76889523  0.10353638  1
  Te  Te88  1  0.43060111  0.73878787  0.43457589  1
  Te  Te89  1  0.42823847  0.76361976  0.72688778  1
  Te  Te90  1  0.75007499  0.06773275  0.10057170  1
  Te  Te91  1  0.79418620  0.10883593  0.41954493  1
  Te  Te92  1  0.74624624  0.04131429  0.76573371  1
  Te  Te93  1  0.75378223  0.40976371  0.08181167  1
  Te  Te94  1  0.76387557  0.40978399  0.43162157  1
  Te  Te95  1  0.73161120  0.42253793  0.76376170  1
  Te  Te96  1  0.74015162  0.76011317  0.07081572  1
  Te  Te97  1  0.76052985  0.79436221  0.45539192  1
  Te  Te98  1  0.74975674  0.79135295  0.75966577  1
  Te  Te99  1  0.09407850  0.26969062  0.23761352  1
  Te  Te100  1  0.04715690  0.22365518  0.57294184  1
  Te  Te101  1  0.07727354  0.23163694  0.90120161  1
  Te  Te102  1  0.07998323  0.58226533  0.26029583  1
  Te  Te103  1  0.09821834  0.58609777  0.60062112  1
  Te  Te104  1  0.05330063  0.61261468  0.93154719  1
  Te  Te105  1  0.07143674  0.93363913  0.23941820  1
  Te  Te106  1  0.05435345  0.89673008  0.56889524  1
  Te  Te107  1  0.08979678  0.92482505  0.91528104  1
  Te  Te108  1  0.43767672  0.25823569  0.22588793  1
  Te  Te109  1  0.44214610  0.17975550  0.61553718  1
  Te  Te110  1  0.39316636  0.25955881  0.95090871  1
  Te  Te111  1  0.40987320  0.57364785  0.25002830  1
  Te  Te112  1  0.43827919  0.57797803  0.59534118  1
  Te  Te113  1  0.41972334  0.60361055  0.90288134  1
  Te  Te114  1  0.39720796  0.91094568  0.25853681  1
  Te  Te115  1  0.41624806  0.93422738  0.60548807  1
  Te  Te116  1  0.41699881  0.92198961  0.90387142  1
  Te  Te117  1  0.74313495  0.24033129  0.25156619  1
  Te  Te118  1  0.76138521  0.25626146  0.58773119  1
  Te  Te119  1  0.74875415  0.26275934  0.91665351  1
  Te  Te120  1  0.74684678  0.57308162  0.26402293  1
  Te  Te121  1  0.73693079  0.60144202  0.61377591  1
  Te  Te122  1  0.74015646  0.59093911  0.89435491  1
  Te  Te123  1  0.76614537  0.90762550  0.26522549  1
  Te  Te124  1  0.73880315  0.91082078  0.56125658  1
  Te  Te125  1  0.71353480  0.97079893  0.90540888  1
  Te  Te126  1  0.27590626  0.25021611  0.04129931  1
  Te  Te127  1  0.24275318  0.25666345  0.41922604  1
  Te  Te128  1  0.26265772  0.23794339  0.74603774  1
  Te  Te129  1  0.25890197  0.58541271  0.08245549  1
  Te  Te130  1  0.25847947  0.57283051  0.40608378  1
  Te  Te131  1  0.26851106  0.58592252  0.76382408  1
  Te  Te132  1  0.25786169  0.91357891  0.07200434  1
  Te  Te133  1  0.24269916  0.91359383  0.40128867  1
  Te  Te134  1  0.25110116  0.90716291  0.72557759  1
  Te  Te135  1  0.58705619  0.25443266  0.04126262  1
  Te  Te136  1  0.57316153  0.25148946  0.42572908  1
  Te  Te137  1  0.56690421  0.25101582  0.76874717  1
  Te  Te138  1  0.58858386  0.58151146  0.04863544  1
  Te  Te139  1  0.59886600  0.60032584  0.43034940  1
  Te  Te140  1  0.60988801  0.60803774  0.72225034  1
  Te  Te141  1  0.58983708  0.92895830  0.07559917  1
  Te  Te142  1  0.58496514  0.90743190  0.41201987  1
  Te  Te143  1  0.61079492  0.89079679  0.77827381  1
  Te  Te144  1  0.91626640  0.24105021  0.08294355  1
  Te  Te145  1  0.87746138  0.24002449  0.39759722  1
  Te  Te146  1  0.91090643  0.20202717  0.76270983  1
  Te  Te147  1  0.90667415  0.59080719  0.09330542  1
  Te  Te148  1  0.88637302  0.60225666  0.44448210  1
  Te  Te149  1  0.93276161  0.57431100  0.76370593  1
  Te  Te150  1  0.91074206  0.90612353  0.07110488  1
  Te  Te151  1  0.87514038  0.87867707  0.38978915  1
  Te  Te152  1  0.91697631  0.92485730  0.76248265  1
  Te  Te153  1  0.26275533  0.08595323  0.26438776  1
  Te  Te154  1  0.23851271  0.07088069  0.57579610  1
  Te  Te155  1  0.24850888  0.10902217  0.91827138  1
  Te  Te156  1  0.26581429  0.40114015  0.20931859  1
  Te  Te157  1  0.23532501  0.41700975  0.58739302  1
  Te  Te158  1  0.24267148  0.40412084  0.92590158  1
  Te  Te159  1  0.22964715  0.74495135  0.21838234  1
  Te  Te160  1  0.24895520  0.75464179  0.55618436  1
  Te  Te161  1  0.23445747  0.75367874  0.92565722  1
  Te  Te162  1  0.59902022  0.07228312  0.26617426  1
  Te  Te163  1  0.62311441  0.07321676  0.60907386  1
  Te  Te164  1  0.59018577  0.07014097  0.91221766  1
  Te  Te165  1  0.57905883  0.40887261  0.23438582  1
  Te  Te166  1  0.57247695  0.41324791  0.58224862  1
  Te  Te167  1  0.55955307  0.45850893  0.92889822  1
  Te  Te168  1  0.59354684  0.72710827  0.25073227  1
  Te  Te169  1  0.62097896  0.83426000  0.63487172  1
  Te  Te170  1  0.60910307  0.75299550  0.91536628  1
  Te  Te171  1  0.90454061  0.06818484  0.24029956  1
  Te  Te172  1  0.88029613  0.05083530  0.56483659  1
  Te  Te173  1  0.91333308  0.09399493  0.90027238  1
  Te  Te174  1  0.90846497  0.42571888  0.27707326  1
  Te  Te175  1  0.91344808  0.40881956  0.59023961  1
  Te  Te176  1  0.91366117  0.41574679  0.91471594  1
  Te  Te177  1  0.90344768  0.76878260  0.25189227  1
  Te  Te178  1  0.89523616  0.73152840  0.57272844  1
  Te  Te179  1  0.90619605  0.76268352  0.93211700  1
