# generated using pymatgen
data_In2Te3
_symmetry_space_group_name_H-M   'P 1'
_cell_length_a   18.76108903
_cell_length_b   18.76535033
_cell_length_c   18.75992349
_cell_angle_alpha   89.99628447
_cell_angle_beta   89.98597591
_cell_angle_gamma   89.96516785
_symmetry_Int_Tables_number   1
_chemical_formula_structural   In2Te3
_chemical_formula_sum   'In72 Te108'
_cell_volume   6604.58736740
_cell_formula_units_Z   36
loop_
 _symmetry_equiv_pos_site_id
 _symmetry_equiv_pos_as_xyz
  1  'x, y, z'
loop_
 _atom_site_type_symbol
 _atom_site_label
 _atom_site_symmetry_multiplicity
 _atom_site_fract_x
 _atom_site_fract_y
 _atom_site_fract_z
 _atom_site_occupancy
  In  In0  1  0.84483035  0.01225443  0.50460883  1
  In  In1  1  0.17992680  0.15495827  -0.00784105  1
  In  In2  1  0.65977866  0.32157180  0.00222256  1
  In  In3  1  0.65366785  0.14385179  0.85281834  1
  In  In4  1  0.46139623  0.50564114  0.66648094  1
  In  In5  1  0.15125889  0.32751558  0.16120091  1
  In  In6  1  0.67478999  0.29782919  0.67705940  1
  In  In7  1  0.67102417  0.47033326  0.48693311  1
  In  In8  1  0.16131070  0.16625523  0.68644499  1
  In  In9  1  0.64379971  0.67850660  0.00471341  1
  In  In10  1  0.69742309  0.68999767  0.70776577  1
  In  In11  1  0.16787636  0.50854124  0.31979900  1
  In  In12  1  0.35620104  0.67079820  0.32548640  1
  In  In13  1  0.15545089  0.00397160  0.50014929  1
  In  In14  1  0.17022044  0.83467043  0.33961827  1
  In  In15  1  0.85312652  0.68255749  0.17358990  1
  In  In16  1  0.47951242  0.83438492  0.67148180  1
  In  In17  1  0.30603662  0.85244064  0.52848205  1
  In  In18  1  -0.00507682  0.50133195  0.51635115  1
  In  In19  1  0.65634404  0.01807214  0.65356433  1
  In  In20  1  0.31723961  0.49087015  0.85003585  1
  In  In21  1  0.19517091  0.64427493  0.15173192  1
  In  In22  1  0.00844105  0.33256198  0.01056210  1
  In  In23  1  0.83685033  0.16492022  0.32782477  1
  In  In24  1  0.18212583  0.32152201  0.49949631  1
  In  In25  1  0.15926427  0.52228056  0.67653588  1
  In  In26  1  0.81907640  0.48756123  0.65838547  1
  In  In27  1  0.01071160  0.67790269  0.67891619  1
  In  In28  1  0.48843871  0.67286438  0.14498005  1
  In  In29  1  0.31867355  0.33821241  0.68666777  1
  In  In30  1  0.37033759  0.31984924  0.00583079  1
  In  In31  1  0.82552396  0.65699527  0.47756207  1
  In  In32  1  0.17938398  0.00364524  0.84273500  1
  In  In33  1  -0.01531658  0.31517198  0.67588501  1
  In  In34  1  0.84386528  0.47760011  0.32522865  1
  In  In35  1  0.01056189  0.50459376  0.86262733  1
  In  In36  1  0.66885383  0.83013204  0.48786161  1
  In  In37  1  -0.00721453  0.31482286  0.32558272  1
  In  In38  1  0.01842263  0.84315496  0.50679928  1
  In  In39  1  0.49638152  -0.00462388  0.86483152  1
  In  In40  1  0.35100684  0.29050742  0.30650889  1
  In  In41  1  0.64827327  0.48672435  0.17654608  1
  In  In42  1  0.86794414  0.85398615  0.68949910  1
  In  In43  1  0.83691889  0.86796011  -0.01582120  1
  In  In44  1  0.35294687  0.52116185  0.48813616  1
  In  In45  1  0.17495568  0.70988984  0.86979584  1
  In  In46  1  0.00889540  0.84436930  0.15444624  1
  In  In47  1  0.00623552  0.00788269  0.32320569  1
  In  In48  1  0.81867275  0.67467169  0.80220839  1
  In  In49  1  0.31604304  0.88526449  0.14152208  1
  In  In50  1  0.48933249  0.84696199  0.01686451  1
  In  In51  1  0.66811038  0.16111880  0.14645234  1
  In  In52  1  0.64854082  0.48520485  0.83127947  1
  In  In53  1  0.83826935  0.15482493  0.66048615  1
  In  In54  1  0.32915156  -0.00041728  0.67488628  1
  In  In55  1  0.67292390  -0.00279790  0.31179435  1
  In  In56  1  0.51994716  0.32495696  0.49792674  1
  In  In57  1  0.48307138  0.66926651  0.51419813  1
  In  In58  1  0.36351175  0.14719641  0.46816445  1
  In  In59  1  0.50199176  0.85585509  0.30369853  1
  In  In60  1  0.16484413  0.31695923  0.85516018  1
  In  In61  1  0.66987044  0.67234888  0.35167440  1
  In  In62  1  0.00985005  0.84690513  0.84946023  1
  In  In63  1  0.84445680  0.13165567  -0.01128021  1
  In  In64  1  0.00406207  0.15894947  0.15114026  1
  In  In65  1  0.66112981  0.86913580  0.14222751  1
  In  In66  1  0.50498542  0.16803132  0.66928063  1
  In  In67  1  0.83197973  0.49600227  -0.00368175  1
  In  In68  1  0.49983410  0.49069742  0.30306045  1
  In  In69  1  0.65099140  0.32534060  0.32207268  1
  In  In70  1  0.47333794  0.67331159  0.84219787  1
  In  In71  1  0.01221225  0.67324643  0.01520736  1
  Te  Te72  1  0.10172138  0.06468855  0.08566143  1
  Te  Te73  1  0.07893310  0.09837671  0.41553624  1
  Te  Te74  1  0.07232283  0.08555569  0.77386823  1
  Te  Te75  1  0.08414633  0.43528866  0.08470844  1
  Te  Te76  1  0.08630699  0.41576699  0.42262961  1
  Te  Te77  1  0.09029240  0.40725324  0.75128313  1
  Te  Te78  1  0.11725450  0.75798642  0.08370806  1
  Te  Te79  1  0.08111562  0.74556453  0.41663403  1
  Te  Te80  1  0.10253429  0.77556253  0.74756055  1
  Te  Te81  1  0.36447339  0.10737331  0.09755839  1
  Te  Te82  1  0.41946232  0.06492154  0.35890480  1
  Te  Te83  1  0.41963686  0.08418309  0.76325356  1
  Te  Te84  1  0.38578686  0.43452567  0.09823255  1
  Te  Te85  1  0.41290420  0.40441033  0.40879085  1
  Te  Te86  1  0.42433057  0.40694590  0.77521043  1
  Te  Te87  1  0.38101729  0.75086759  0.07048505  1
  Te  Te88  1  0.42605006  0.77203815  0.41580763  1
  Te  Te89  1  0.38634883  0.76490916  0.76255993  1
  Te  Te90  1  0.74992686  0.05836711  0.07566268  1
  Te  Te91  1  0.74295513  0.08511581  0.41903904  1
  Te  Te92  1  0.74966371  0.06969200  0.76120571  1
  Te  Te93  1  0.75069345  0.40969713  0.09223902  1
  Te  Te94  1  0.76528884  0.37976596  0.41332104  1
  Te  Te95  1  0.75395863  0.39782507  0.76260692  1
  Te  Te96  1  0.75669486  0.75445540  0.07557992  1
  Te  Te97  1  0.77523945  0.77457628  0.39198978  1
  Te  Te98  1  0.74645625  0.81601563  0.79053381  1
  Te  Te99  1  0.09454892  0.22240020  0.25652311  1
  Te  Te100  1  0.08005701  0.24050338  0.57996759  1
  Te  Te101  1  0.06265616  0.22367275  0.91757785  1
  Te  Te102  1  0.08435663  0.59697951  0.23701064  1
  Te  Te103  1  0.09240701  0.60777460  0.56887554  1
  Te  Te104  1  0.11335209  0.58387752  0.93824595  1
  Te  Te105  1  0.10878019  0.93233398  0.23999620  1
  Te  Te106  1  0.08272936  0.92998642  0.60650964  1
  Te  Te107  1  0.10724527  0.91231859  0.94398182  1
  Te  Te108  1  0.42742447  0.19390053  0.21736813  1
  Te  Te109  1  0.40413262  0.25948211  0.58485029  1
  Te  Te110  1  0.39406143  0.24672618  0.88103433  1
  Te  Te111  1  0.39341590  0.56472348  0.22215401  1
  Te  Te112  1  0.37234141  0.62212003  0.61317866  1
  Te  Te113  1  0.40301941  0.58070591  0.93441160  1
  Te  Te114  1  0.40669903  0.95690431  0.24263419  1
  Te  Te115  1  0.42575421  0.93721820  0.57157344  1
  Te  Te116  1  0.38654092  0.90549996  0.91888230  1
  Te  Te117  1  0.75476779  0.25454400  0.23536794  1
  Te  Te118  1  0.74669171  0.23092837  0.56960780  1
  Te  Te119  1  0.75501182  0.23827062  0.91697830  1
  Te  Te120  1  0.74634722  0.58235735  0.25029529  1
  Te  Te121  1  0.73172210  0.58511141  0.57777533  1
  Te  Te122  1  0.74011314  0.59030592  0.91458022  1
  Te  Te123  1  0.76475327  0.90700635  0.23900035  1
  Te  Te124  1  0.75422696  0.90827082  0.58957358  1
  Te  Te125  1  0.73011791  0.92250931  0.90151067  1
  Te  Te126  1  0.25869151  0.24427101  0.08922688  1
  Te  Te127  1  0.24864852  0.22479400  0.40142255  1
  Te  Te128  1  0.27146023  0.22763759  0.78620656  1
  Te  Te129  1  0.28752055  0.55359110  0.07836941  1
  Te  Te130  1  0.24948245  0.60300702  0.41112682  1
  Te  Te131  1  0.24053784  0.60125411  0.77514895  1
  Te  Te132  1  0.21889750  0.95471205  0.05019197  1
  Te  Te133  1  0.26015285  0.93709330  0.41058270  1
  Te  Te134  1  0.24112610  0.90579734  0.74616062  1
  Te  Te135  1  0.55955015  0.22873287  0.06399642  1
  Te  Te136  1  0.57278259  0.22727744  0.40181976  1
  Te  Te137  1  0.57234553  0.25226418  0.77850546  1
  Te  Te138  1  0.56707336  0.56366332  0.07037518  1
  Te  Te139  1  0.56855997  0.57126153  0.41849371  1
  Te  Te140  1  0.57232701  0.58921475  0.74468859  1
  Te  Te141  1  0.55776928  0.95930906  0.08682605  1
  Te  Te142  1  0.57776117  0.92726445  0.41703643  1
  Te  Te143  1  0.57134339  0.92949632  0.74789008  1
  Te  Te144  1  0.90403113  0.24821434  0.08168467  1
  Te  Te145  1  0.93170533  0.22477613  0.42510660  1
  Te  Te146  1  0.90204841  0.23686937  0.76734470  1
  Te  Te147  1  0.92389978  0.57332568  0.09155526  1
  Te  Te148  1  0.93116585  0.57965748  0.39961965  1
  Te  Te149  1  0.92614775  0.56144185  0.74181239  1
  Te  Te150  1  0.92952768  0.94069527  0.07178140  1
  Te  Te151  1  0.92215582  0.91684051  0.41384960  1
  Te  Te152  1  0.92078912  0.95524664  0.78949469  1
  Te  Te153  1  0.29682222  0.10154192  0.22724435  1
  Te  Te154  1  0.25809079  0.10177501  0.58197731  1
  Te  Te155  1  0.28710352  0.07185924  0.92543966  1
  Te  Te156  1  0.25078263  0.39843998  0.25569424  1
  Te  Te157  1  0.25220438  0.43486974  0.58132296  1
  Te  Te158  1  0.24161348  0.40358106  0.94970057  1
  Te  Te159  1  0.26913584  0.76500438  0.24260227  1
  Te  Te160  1  0.25673657  0.72621580  0.57790249  1
  Te  Te161  1  0.28857052  0.78020124  0.93479873  1
  Te  Te162  1  0.57876816  0.09503593  0.24928074  1
  Te  Te163  1  0.57638414  0.09920566  0.55916231  1
  Te  Te164  1  0.56297602  0.08990562  0.96108344  1
  Te  Te165  1  0.54993786  0.37629214  0.21691550  1
  Te  Te166  1  0.57941823  0.42079946  0.60267282  1
  Te  Te167  1  0.56842912  0.41950177  0.93538058  1
  Te  Te168  1  0.58941191  0.74433015  0.23870719  1
  Te  Te169  1  0.59053326  0.74884050  0.59244029  1
  Te  Te170  1  0.57225299  0.77072784  0.90954768  1
  Te  Te171  1  0.90423505  0.07089471  0.22852595  1
  Te  Te172  1  0.94197788  0.06369514  0.60240295  1
  Te  Te173  1  0.94337465  0.06029667  0.90389300  1
  Te  Te174  1  0.93031527  0.40733289  0.22918717  1
  Te  Te175  1  0.90172549  0.39319427  0.57137265  1
  Te  Te176  1  0.91044408  0.40054780  0.90663129  1
  Te  Te177  1  0.94646273  0.75732593  0.25834407  1
  Te  Te178  1  0.90042005  0.73767878  0.58960469  1
  Te  Te179  1  0.91892983  0.73473628  0.91115144  1
