# generated using pymatgen
data_In2Te3
_symmetry_space_group_name_H-M   'P 1'
_cell_length_a   19.01743813
_cell_length_b   19.02355655
_cell_length_c   19.03059036
_cell_angle_alpha   90.00705918
_cell_angle_beta   90.02219965
_cell_angle_gamma   90.14836882
_symmetry_Int_Tables_number   1
_chemical_formula_structural   In2Te3
_chemical_formula_sum   'In72 Te108'
_cell_volume   6884.85018838
_cell_formula_units_Z   36
loop_
 _symmetry_equiv_pos_site_id
 _symmetry_equiv_pos_as_xyz
  1  'x, y, z'
loop_
 _atom_site_type_symbol
 _atom_site_label
 _atom_site_symmetry_multiplicity
 _atom_site_fract_x
 _atom_site_fract_y
 _atom_site_fract_z
 _atom_site_occupancy
  In  In0  1  0.80600456  0.69082358  0.47248952  1
  In  In1  1  0.52062497  0.47875500  -0.00376272  1
  In  In2  1  0.32500172  -0.00730445  0.31488282  1
  In  In3  1  0.85131120  -0.00945312  0.84111882  1
  In  In4  1  -0.01126784  0.19673487  0.20935424  1
  In  In5  1  0.66180159  -0.00330291  0.70991172  1
  In  In6  1  -0.01504112  -0.00488197  0.64946166  1
  In  In7  1  0.46835074  0.16475263  0.34152065  1
  In  In8  1  0.01018831  0.64678422  -0.00852979  1
  In  In9  1  0.65629496  0.48392364  0.19852807  1
  In  In10  1  0.16659901  -0.00218371  0.81798053  1
  In  In11  1  0.32430542  0.15610142  0.86100471  1
  In  In12  1  -0.01462242  0.33197319  -0.03824874  1
  In  In13  1  0.24702462  0.16061445  0.45390167  1
  In  In14  1  0.67380063  0.17192890  0.82818070  1
  In  In15  1  0.33309543  0.51722221  0.80286853  1
  In  In16  1  0.49311768  0.65649621  0.83532167  1
  In  In17  1  0.83891669  0.32806826  0.20666424  1
  In  In18  1  0.83480766  0.50310782  0.64947171  1
  In  In19  1  0.81679613  0.48820002  0.33533953  1
  In  In20  1  0.49752177  0.16294326  0.00921764  1
  In  In21  1  0.34732200  0.01362033  0.67046820  1
  In  In22  1  0.32850466  0.51836512  0.13250316  1
  In  In23  1  0.08106449  0.52215391  0.19056135  1
  In  In24  1  0.84722817  0.47774760  0.00426771  1
  In  In25  1  0.51168918  0.01428735  0.52575761  1
  In  In26  1  0.82292683  0.34552020  0.81641831  1
  In  In27  1  0.35354760  0.83547035  0.48048381  1
  In  In28  1  0.16984814  0.36745020  0.50501982  1
  In  In29  1  0.16851419  -0.01199640  0.16662901  1
  In  In30  1  0.64454676  -0.02050320  0.01555498  1
  In  In31  1  0.52371420  0.65770338  0.48165706  1
  In  In32  1  0.17525233  0.80501022  -0.01662199  1
  In  In33  1  -0.01238607  0.82492705  0.19157676  1
  In  In34  1  0.79656121  -0.01665356  0.18704590  1
  In  In35  1  0.46554237  0.67568144  0.14561104  1
  In  In36  1  0.01852874  0.69040582  0.66135256  1
  In  In37  1  0.80730946  0.64733007  0.19269566  1
  In  In38  1  0.66096885  0.33614038  0.36088753  1
  In  In39  1  0.03222031  -0.02893494  0.02522635  1
  In  In40  1  0.05582355  -0.01969891  0.41826814  1
  In  In41  1  -0.00711528  0.53100277  0.50370452  1
  In  In42  1  0.84001836  0.14114066  0.01817091  1
  In  In43  1  0.16321334  0.35450398  0.14762190  1
  In  In44  1  -0.02456927  0.17795767  0.81668296  1
  In  In45  1  0.17597317  0.85704183  0.64995369  1
  In  In46  1  0.67307192  0.66526905  -0.00350993  1
  In  In47  1  0.82905917  0.81658006  0.66661666  1
  In  In48  1  0.81742697  0.65704614  0.83348654  1
  In  In49  1  0.13346184  0.18268441  0.00371824  1
  In  In50  1  0.65736082  -0.00225126  0.33972957  1
  In  In51  1  0.49019910  -0.02947029  0.16504062  1
  In  In52  1  0.33340134  0.51083900  0.53274076  1
  In  In53  1  0.34072371  0.33764485  -0.00878081  1
  In  In54  1  0.36076379  0.15259424  0.16069235  1
  In  In55  1  0.65502793  0.30775396  0.01675427  1
  In  In56  1  0.17861290  0.78462738  0.31099596  1
  In  In57  1  0.82056213  0.17230781  0.35712263  1
  In  In58  1  0.17332544  0.66563065  0.49251155  1
  In  In59  1  0.50041676  0.17248312  0.68875192  1
  In  In60  1  0.81878028  0.20402284  0.63750647  1
  In  In61  1  0.48976573  0.32257710  0.51093770  1
  In  In62  1  0.67888086  0.66335032  0.64900382  1
  In  In63  1  0.36747124  -0.10619628  -0.02217471  1
  In  In64  1  0.52488538  0.50516500  0.63700112  1
  In  In65  1  -0.00170278  0.35445625  0.35141464  1
  In  In66  1  0.17312196  0.50660448  -0.03579767  1
  In  In67  1  0.49924019  0.82627173  0.31853334  1
  In  In68  1  0.34621308  0.33822925  0.65690183  1
  In  In69  1  0.83863518  0.82544134  -0.01281210  1
  In  In70  1  0.17786317  0.18114361  0.64141957  1
  In  In71  1  0.83657687  -0.01153301  0.50466286  1
  Te  Te72  1  0.06633449  0.09928449  0.11277607  1
  Te  Te73  1  0.11679674  0.11371508  0.40648426  1
  Te  Te74  1  0.07158985  0.08650285  0.73790613  1
  Te  Te75  1  0.06608751  0.42390758  0.05624272  1
  Te  Te76  1  0.08978473  0.45725821  0.41220785  1
  Te  Te77  1  0.09649314  0.48706078  0.83707869  1
  Te  Te78  1  0.06516637  0.75787606  0.08116675  1
  Te  Te79  1  0.07652666  0.74190849  0.40991399  1
  Te  Te80  1  0.10936255  0.76791033  0.74670063  1
  Te  Te81  1  0.40954090  0.04680221  0.06028010  1
  Te  Te82  1  0.39986753  0.06049927  0.42754522  1
  Te  Te83  1  0.42695037  0.07647481  0.78254494  1
  Te  Te84  1  0.42636352  0.40684556  0.09156983  1
  Te  Te85  1  0.40243249  0.41703313  0.43853353  1
  Te  Te86  1  0.43774223  0.42717338  0.73597901  1
  Te  Te87  1  0.40208071  0.75724479  0.03971561  1
  Te  Te88  1  0.41351910  0.72800285  0.39459874  1
  Te  Te89  1  0.37975404  0.72741819  0.76847325  1
  Te  Te90  1  0.72575846  0.08335977  0.09634085  1
  Te  Te91  1  0.73401210  0.08063593  0.43999321  1
  Te  Te92  1  0.78538819  0.09481501  0.75366475  1
  Te  Te93  1  0.75222181  0.40768216  0.10228437  1
  Te  Te94  1  0.78330650  0.38271846  0.43610021  1
  Te  Te95  1  0.73977531  0.43176019  0.73526994  1
  Te  Te96  1  0.75740851  0.75015397  0.08864627  1
  Te  Te97  1  0.72295638  0.79131457  0.41107834  1
  Te  Te98  1  0.73002061  0.75685488  0.76316378  1
  Te  Te99  1  0.10326752  0.27715286  0.26296625  1
  Te  Te100  1  0.08517749  0.26931781  0.57478897  1
  Te  Te101  1  0.08925272  0.25848340  0.88027442  1
  Te  Te102  1  0.10085239  0.65001613  0.27108736  1
  Te  Te103  1  0.10063175  0.58219794  0.59826530  1
  Te  Te104  1  0.11367122  0.62849961  0.88049614  1
  Te  Te105  1  0.07112969  0.92799627  0.26314625  1
  Te  Te106  1  0.06934765  0.91303834  0.55764439  1
  Te  Te107  1  0.08523352  0.90086640  0.90416775  1
  Te  Te108  1  0.39285759  0.25712230  0.25636411  1
  Te  Te109  1  0.40330334  0.21995841  0.58391475  1
  Te  Te110  1  0.43235302  0.25364342  0.90659603  1
  Te  Te111  1  0.42309480  0.56786246  0.23426650  1
  Te  Te112  1  0.42811327  0.61119881  0.59397016  1
  Te  Te113  1  0.41631141  0.56056412  0.92440790  1
  Te  Te114  1  0.38694412  0.88325125  0.23280084  1
  Te  Te115  1  0.42651938  0.90946641  0.59452823  1
  Te  Te116  1  0.49585244  0.88910808  0.90152372  1
  Te  Te117  1  0.73017202  0.24072711  0.25681185  1
  Te  Te118  1  0.73804257  0.29882613  0.56092296  1
  Te  Te119  1  0.77536090  0.24344639  0.92528259  1
  Te  Te120  1  0.70765842  0.58919757  0.29443181  1
  Te  Te121  1  0.73307197  0.56713947  0.54101983  1
  Te  Te122  1  0.74634997  0.55664919  0.92145604  1
  Te  Te123  1  0.74280592  0.88474268  0.28767082  1
  Te  Te124  1  0.74215913  0.92132593  0.60328207  1
  Te  Te125  1  0.74260069  0.91681016  0.91440632  1
  Te  Te126  1  0.25258447  0.24635050  0.07809704  1
  Te  Te127  1  0.27396969  0.30178998  0.42165345  1
  Te  Te128  1  0.26755110  0.23856784  0.74675939  1
  Te  Te129  1  0.22961740  0.60415276  0.06341744  1
  Te  Te130  1  0.26909397  0.58177980  0.42136476  1
  Te  Te131  1  0.26115232  0.63646359  0.75870817  1
  Te  Te132  1  0.24853543  0.89803611  0.08034085  1
  Te  Te133  1  0.24332201  0.89693167  0.39794921  1
  Te  Te134  1  0.27375526  0.91319208  0.75712687  1
  Te  Te135  1  0.56208554  0.24657085  0.10957556  1
  Te  Te136  1  0.57404468  0.22738027  0.42780347  1
  Te  Te137  1  0.59596952  0.26582609  0.74976181  1
  Te  Te138  1  0.59431036  0.57375665  0.08927038  1
  Te  Te139  1  0.61423678  0.54730726  0.44911285  1
  Te  Te140  1  0.59509362  0.58345227  0.74778051  1
  Te  Te141  1  0.59206083  0.87884531  0.10917663  1
  Te  Te142  1  0.56518228  0.91288193  0.42435480  1
  Te  Te143  1  0.54995946  0.92009033  0.75946447  1
  Te  Te144  1  0.91948230  0.26095666  0.08397452  1
  Te  Te145  1  0.93038860  0.24531635  0.42129234  1
  Te  Te146  1  0.92274332  0.28049723  0.72153630  1
  Te  Te147  1  0.90441983  0.59101694  0.08544821  1
  Te  Te148  1  0.90196691  0.59414097  0.40111529  1
  Te  Te149  1  0.91466780  0.60148858  0.73279531  1
  Te  Te150  1  0.90104938  0.92480210  0.08648851  1
  Te  Te151  1  0.92052107  0.92756505  0.40270864  1
  Te  Te152  1  0.92726169  0.89808269  0.74998906  1
  Te  Te153  1  0.24373789  0.09593571  0.24102474  1
  Te  Te154  1  0.24138295  0.06299797  0.57528563  1
  Te  Te155  1  0.21995596  0.07625979  0.93688425  1
  Te  Te156  1  0.21660153  0.46859187  0.22946538  1
  Te  Te157  1  0.23624966  0.43452976  0.62475103  1
  Te  Te158  1  0.26214007  0.40533284  0.88509741  1
  Te  Te159  1  0.22677857  0.70074247  0.19908883  1
  Te  Te160  1  0.26214486  0.75959550  0.57371702  1
  Te  Te161  1  0.30367172  0.76491901  0.91411040  1
  Te  Te162  1  0.55721463  0.07195156  0.25458598  1
  Te  Te163  1  0.60602934  0.09652258  0.60987301  1
  Te  Te164  1  0.59112135  0.08490191  0.91900044  1
  Te  Te165  1  0.56421061  0.39976675  0.27267738  1
  Te  Te166  1  0.60195786  0.38746850  0.58497365  1
  Te  Te167  1  0.59906518  0.38950772  0.91097466  1
  Te  Te168  1  0.57366321  0.75007107  0.21585690  1
  Te  Te169  1  0.59043291  0.75090578  0.57367185  1
  Te  Te170  1  0.57306357  0.74793957  0.92538125  1
  Te  Te171  1  0.89014419  0.08855254  0.25010135  1
  Te  Te172  1  0.91348468  0.10295708  0.57230927  1
  Te  Te173  1  0.94820208  0.07504527  0.92708841  1
  Te  Te174  1  0.93563278  0.44023953  0.24116425  1
  Te  Te175  1  0.93295269  0.42102449  0.57917064  1
  Te  Te176  1  0.92769186  0.44530407  0.87881851  1
  Te  Te177  1  0.89153332  0.74373740  0.26507784  1
  Te  Te178  1  0.91377624  0.74756231  0.56415567  1
  Te  Te179  1  0.92540162  0.73932485  0.90190131  1
