# generated using pymatgen
data_In2Te3
_symmetry_space_group_name_H-M   'P 1'
_cell_length_a   18.77945762
_cell_length_b   18.77534665
_cell_length_c   18.77825334
_cell_angle_alpha   90.03935092
_cell_angle_beta   90.03663598
_cell_angle_gamma   90.01651276
_symmetry_Int_Tables_number   1
_chemical_formula_structural   In2Te3
_chemical_formula_sum   'In72 Te108'
_cell_volume   6621.03667562
_cell_formula_units_Z   36
loop_
 _symmetry_equiv_pos_site_id
 _symmetry_equiv_pos_as_xyz
  1  'x, y, z'
loop_
 _atom_site_type_symbol
 _atom_site_label
 _atom_site_symmetry_multiplicity
 _atom_site_fract_x
 _atom_site_fract_y
 _atom_site_fract_z
 _atom_site_occupancy
  In  In0  1  0.18291581  0.82522598  0.01833341  1
  In  In1  1  0.00009568  0.17492074  0.48244256  1
  In  In2  1  0.17979776  0.17115986  -0.00665897  1
  In  In3  1  0.67540294  -0.00477024  0.02275272  1
  In  In4  1  0.17318738  0.65767580  0.51605936  1
  In  In5  1  0.48540318  0.52028314  -0.01430231  1
  In  In6  1  0.49144329  0.51650565  0.65351984  1
  In  In7  1  0.68845284  -0.03182211  0.32004169  1
  In  In8  1  0.33011040  0.66416727  -0.00030687  1
  In  In9  1  0.66090527  0.32914696  0.64462737  1
  In  In10  1  0.16729322  0.47459556  0.32958154  1
  In  In11  1  0.17647427  0.83452083  0.34103397  1
  In  In12  1  0.80914895  0.49793192  0.34607004  1
  In  In13  1  0.34875966  0.49122142  0.49213137  1
  In  In14  1  0.49504192  0.82845087  -0.00851153  1
  In  In15  1  -0.00766438  0.82493965  0.84338904  1
  In  In16  1  -0.00906655  0.00694910  -0.01376230  1
  In  In17  1  0.46919810  0.16517069  0.00154208  1
  In  In18  1  0.51630979  0.68160074  0.18577984  1
  In  In19  1  0.17777504  0.66604147  0.17170931  1
  In  In20  1  0.35557545  0.68688107  0.34358838  1
  In  In21  1  0.00781601  0.33135667  0.33842690  1
  In  In22  1  0.00293429  0.50526449  0.13107046  1
  In  In23  1  0.50027755  0.17947693  0.32716219  1
  In  In24  1  0.32478905  0.33225825  0.65573029  1
  In  In25  1  0.81615955  0.82075017  0.02642546  1
  In  In26  1  0.32001340  0.50150380  0.82279559  1
  In  In27  1  0.81547789  0.16907711  0.67573612  1
  In  In28  1  0.31866761  0.51563802  0.18412730  1
  In  In29  1  -0.03378555  0.66544691  0.32731125  1
  In  In30  1  0.83182379  0.66558973  0.83602032  1
  In  In31  1  0.02687193  0.33018273  0.01592097  1
  In  In32  1  0.16641496  0.17146596  0.66608379  1
  In  In33  1  0.49640713  0.34372816  0.19090191  1
  In  In34  1  0.18855895  0.00819850  0.82276718  1
  In  In35  1  0.02173237  0.64625976  0.66162723  1
  In  In36  1  0.68366209  0.17764341  0.18224901  1
  In  In37  1  0.83617233  0.32292461  0.19068295  1
  In  In38  1  -0.01950448  0.84493983  0.48000774  1
  In  In39  1  0.15404001  0.63795365  0.85132318  1
  In  In40  1  0.67065627  0.50854547  0.83140883  1
  In  In41  1  0.65274482  0.85071722  0.85104676  1
  In  In42  1  0.32958327  0.32914390  -0.00426014  1
  In  In43  1  0.48650629  0.80392258  0.67596219  1
  In  In44  1  0.65063393  0.35714705  0.00612709  1
  In  In45  1  0.48095310  0.17898208  0.65668519  1
  In  In46  1  0.65555770  0.68921537  0.64785339  1
  In  In47  1  0.51949852  -0.00033757  0.50792324  1
  In  In48  1  0.17561501  -0.00264351  0.15738757  1
  In  In49  1  0.15799286  0.33367865  0.82039506  1
  In  In50  1  0.33780700  -0.01445930  0.32842751  1
  In  In51  1  0.64880841  0.82850227  0.49408099  1
  In  In52  1  0.66427112  0.16656812  0.49957824  1
  In  In53  1  0.01311755  -0.02141178  0.66571782  1
  In  In54  1  0.49469474  -0.01996140  0.83458201  1
  In  In55  1  0.31962648  0.18296497  0.50050823  1
  In  In56  1  0.16618539  0.17698210  0.34592190  1
  In  In57  1  0.83985731  0.85266437  0.64928246  1
  In  In58  1  -0.02080732  0.14649726  0.20836172  1
  In  In59  1  0.01619974  0.82597293  0.17341187  1
  In  In60  1  0.81697818  0.66128589  0.48115038  1
  In  In61  1  0.34687665  0.00410521  0.65959631  1
  In  In62  1  0.48382232  -0.00627872  0.16218812  1
  In  In63  1  0.82304651  0.14782280  0.00135635  1
  In  In64  1  0.64716700  0.51465577  0.18592059  1
  In  In65  1  0.84743071  0.50516017  0.64804499  1
  In  In66  1  0.84946752  0.50496497  -0.00189743  1
  In  In67  1  0.66309262  0.16212379  0.82381220  1
  In  In68  1  0.85482497  0.34724499  0.84986971  1
  In  In69  1  0.83958497  -0.00048931  0.48915163  1
  In  In70  1  -0.00203807  0.34783764  0.66186050  1
  In  In71  1  0.18979063  0.82958447  0.64358708  1
  Te  Te72  1  0.07120584  0.08993930  0.08882473  1
  Te  Te73  1  0.08372607  0.07498622  0.41366711  1
  Te  Te74  1  0.07637375  0.08577883  0.75496516  1
  Te  Te75  1  0.11288387  0.41011874  0.10523145  1
  Te  Te76  1  0.08119387  0.41738614  0.43512915  1
  Te  Te77  1  0.09646882  0.43427664  0.73167211  1
  Te  Te78  1  0.07865349  0.72913470  0.07286493  1
  Te  Te79  1  0.07710989  0.74000135  0.41717195  1
  Te  Te80  1  0.08602423  0.76275268  0.73992351  1
  Te  Te81  1  0.38976929  0.08660028  0.09661842  1
  Te  Te82  1  0.41968997  0.08611813  0.42929068  1
  Te  Te83  1  0.41539395  0.09166412  0.76374498  1
  Te  Te84  1  0.41711027  0.43059135  0.08832895  1
  Te  Te85  1  0.45050812  0.44957625  0.39153261  1
  Te  Te86  1  0.41870901  0.41555580  0.74433398  1
  Te  Te87  1  0.41211951  0.74885165  0.09479872  1
  Te  Te88  1  0.46624512  0.75585453  0.41121791  1
  Te  Te89  1  0.41441322  0.73723524  0.78218330  1
  Te  Te90  1  0.76972090  0.06732467  0.11945179  1
  Te  Te91  1  0.74819308  0.08551469  0.40075278  1
  Te  Te92  1  0.74648149  0.06405779  0.75293853  1
  Te  Te93  1  0.75636743  0.42082121  0.09512157  1
  Te  Te94  1  0.70176010  0.44246019  0.43297058  1
  Te  Te95  1  0.75480433  0.41090411  0.74696393  1
  Te  Te96  1  0.71053468  0.76904573  0.12004630  1
  Te  Te97  1  0.73086573  0.74824126  0.39440297  1
  Te  Te98  1  0.75444645  0.76054408  0.74296674  1
  Te  Te99  1  0.08589249  0.25084257  0.23568693  1
  Te  Te100  1  0.09101860  0.26135101  0.57168006  1
  Te  Te101  1  0.07404522  0.23697774  0.90463920  1
  Te  Te102  1  0.07940789  0.58526135  0.25597582  1
  Te  Te103  1  0.08650934  0.54881814  0.57004803  1
  Te  Te104  1  0.04983332  0.56872055  0.92564239  1
  Te  Te105  1  0.08651490  0.92937338  0.26168252  1
  Te  Te106  1  0.09563498  0.91479328  0.55605205  1
  Te  Te107  1  0.09629459  0.91512242  0.91649640  1
  Te  Te108  1  0.39640225  0.25141063  0.24931253  1
  Te  Te109  1  0.42868766  0.27824637  0.55462428  1
  Te  Te110  1  0.42368632  0.26300909  0.90267951  1
  Te  Te111  1  0.43433084  0.57680803  0.26372528  1
  Te  Te112  1  0.39388197  0.60407788  0.58088029  1
  Te  Te113  1  0.42207813  0.61445234  0.88158720  1
  Te  Te114  1  0.42790532  0.89267887  0.25584731  1
  Te  Te115  1  0.42212529  0.90216517  0.57531646  1
  Te  Te116  1  0.39780205  0.92330752  0.93020582  1
  Te  Te117  1  0.74544060  0.26064244  0.28940675  1
  Te  Te118  1  0.77033638  0.26069496  0.56194433  1
  Te  Te119  1  0.74354299  0.26484642  0.92128052  1
  Te  Te120  1  0.75587847  0.59599694  0.24707548  1
  Te  Te121  1  0.73242244  0.57774656  0.57652049  1
  Te  Te122  1  0.73995060  0.59492827  0.93623048  1
  Te  Te123  1  0.75250265  0.87631672  0.21973147  1
  Te  Te124  1  0.73252394  0.92959613  0.57367118  1
  Te  Te125  1  0.76625178  0.92246640  0.92284678  1
  Te  Te126  1  0.25161121  0.25172047  0.09395514  1
  Te  Te127  1  0.25415612  0.27941481  0.41011281  1
  Te  Te128  1  0.26347235  0.23941704  0.76138077  1
  Te  Te129  1  0.23315036  0.56851711  0.06815945  1
  Te  Te130  1  0.24888323  0.59088922  0.39844702  1
  Te  Te131  1  0.23732148  0.59060808  0.73919226  1
  Te  Te132  1  0.27684076  0.91770291  0.08425847  1
  Te  Te133  1  0.26780797  0.90586949  0.43194631  1
  Te  Te134  1  0.27246881  0.90404139  0.74899181  1
  Te  Te135  1  0.58193886  0.24684753  0.08822550  1
  Te  Te136  1  0.56995188  0.25794706  0.43168183  1
  Te  Te137  1  0.57365738  0.26111179  0.75009257  1
  Te  Te138  1  0.58359713  0.59645587  0.07281189  1
  Te  Te139  1  0.57767673  0.52872990  0.41182484  1
  Te  Te140  1  0.58173302  0.60059904  0.74818991  1
  Te  Te141  1  0.58588893  0.89770092  0.09758497  1
  Te  Te142  1  0.56526941  0.91038492  0.39171690  1
  Te  Te143  1  0.58305957  0.91125680  0.73024368  1
  Te  Te144  1  0.91286616  0.24705343  0.08165519  1
  Te  Te145  1  0.90105198  0.24737367  0.39900106  1
  Te  Te146  1  0.92075119  0.24958970  0.75307217  1
  Te  Te147  1  0.89510501  0.60142241  0.10198573  1
  Te  Te148  1  0.92214370  0.56395953  0.43182628  1
  Te  Te149  1  0.92699262  0.57436225  0.75918992  1
  Te  Te150  1  0.92309975  0.91569629  0.08677081  1
  Te  Te151  1  0.90593728  0.92362880  0.37553421  1
  Te  Te152  1  0.90859462  0.92577337  0.76489163  1
  Te  Te153  1  0.25357529  0.08760546  0.25356290  1
  Te  Te154  1  0.24104879  0.07483923  0.57459226  1
  Te  Te155  1  0.27076706  0.07651113  0.92457363  1
  Te  Te156  1  0.27340752  0.39575552  0.26102938  1
  Te  Te157  1  0.24470721  0.42671641  0.57622461  1
  Te  Te158  1  0.23351142  0.42199003  0.92066664  1
  Te  Te159  1  0.26765567  0.76527558  0.24003688  1
  Te  Te160  1  0.28532092  0.73646738  0.57649064  1
  Te  Te161  1  0.24864831  0.74992906  0.90344475  1
  Te  Te162  1  0.58734134  0.07693123  0.25129195  1
  Te  Te163  1  0.59316155  0.08729722  0.60921946  1
  Te  Te164  1  0.58490646  0.07839473  0.92986326  1
  Te  Te165  1  0.60526512  0.40177536  0.27562888  1
  Te  Te166  1  0.58096331  0.43048506  0.56726854  1
  Te  Te167  1  0.56390774  0.42100570  0.89902172  1
  Te  Te168  1  0.62580884  0.73063967  0.27413752  1
  Te  Te169  1  0.55167422  0.71652678  0.53814929  1
  Te  Te170  1  0.59164946  0.73917662  0.92263132  1
  Te  Te171  1  0.89499021  0.05717420  0.28742937  1
  Te  Te172  1  0.92247620  0.08056021  0.59052949  1
  Te  Te173  1  0.91036535  0.09261376  0.89692129  1
  Te  Te174  1  0.92399045  0.43299149  0.25043423  1
  Te  Te175  1  0.90503500  0.40319579  0.55940040  1
  Te  Te176  1  0.96425731  0.43607653  0.91354867  1
  Te  Te177  1  0.89870097  0.77035491  0.24901264  1
  Te  Te178  1  0.91904212  0.73979231  0.58268551  1
  Te  Te179  1  0.91648613  0.73802779  0.94108452  1
