# generated using pymatgen
data_In2Te3
_symmetry_space_group_name_H-M   'P 1'
_cell_length_a   18.77121275
_cell_length_b   18.77504431
_cell_length_c   18.77265145
_cell_angle_alpha   89.98184989
_cell_angle_beta   89.98418508
_cell_angle_gamma   90.04705314
_symmetry_Int_Tables_number   1
_chemical_formula_structural   In2Te3
_chemical_formula_sum   'In72 Te108'
_cell_volume   6616.04932579
_cell_formula_units_Z   36
loop_
 _symmetry_equiv_pos_site_id
 _symmetry_equiv_pos_as_xyz
  1  'x, y, z'
loop_
 _atom_site_type_symbol
 _atom_site_label
 _atom_site_symmetry_multiplicity
 _atom_site_fract_x
 _atom_site_fract_y
 _atom_site_fract_z
 _atom_site_occupancy
  In  In0  1  0.16645956  0.66097574  0.50695176  1
  In  In1  1  0.02420765  0.34586361  0.33609512  1
  In  In2  1  0.34083416  0.67056942  -0.01722541  1
  In  In3  1  0.48533190  0.84690688  0.33953363  1
  In  In4  1  0.49428992  0.34604955  0.51617239  1
  In  In5  1  0.86792743  0.50235895  -0.00901602  1
  In  In6  1  0.82761921  0.81862478  0.65175441  1
  In  In7  1  0.00334573  0.67641640  0.35573560  1
  In  In8  1  0.83002613  0.68146859  0.82047304  1
  In  In9  1  0.18450645  0.68973241  0.17922506  1
  In  In10  1  0.17603405  0.34226340  0.18351218  1
  In  In11  1  0.64517978  0.33888750  0.34731829  1
  In  In12  1  0.34091402  0.83274584  0.81394255  1
  In  In13  1  0.83776713  0.54179647  0.34440903  1
  In  In14  1  0.64255118  0.15579277  0.51866623  1
  In  In15  1  0.67115028  0.30782185  0.00042610  1
  In  In16  1  0.66208131  0.49845595  0.80803896  1
  In  In17  1  0.46939328  0.50097682  -0.01526774  1
  In  In18  1  0.82913146  -0.00670324  0.83106103  1
  In  In19  1  0.52718948  0.83293654  -0.01447842  1
  In  In20  1  0.63267518  -0.00629687  0.32923921  1
  In  In21  1  0.18662917  -0.00367008  0.50598577  1
  In  In22  1  0.84830156  0.34529545  0.49241504  1
  In  In23  1  0.15628426  0.48123763  -0.01628893  1
  In  In24  1  0.85073780  -0.01482163  0.16492198  1
  In  In25  1  0.32237607  0.32859844  0.65392319  1
  In  In26  1  0.65631421  0.33634665  0.66533930  1
  In  In27  1  0.50544257  0.67617774  0.50938368  1
  In  In28  1  0.82110650  0.16229223  -0.02657342  1
  In  In29  1  0.50293860  0.50466799  0.35249756  1
  In  In30  1  0.65432958  0.67680902  -0.01136972  1
  In  In31  1  0.82618330  0.33636224  0.15176982  1
  In  In32  1  0.02736189  -0.00008721  0.34748978  1
  In  In33  1  0.19723930  0.32151083  0.48451542  1
  In  In34  1  0.31735920  0.65276933  0.67582616  1
  In  In35  1  0.16806976  0.01683129  0.18599953  1
  In  In36  1  0.03422375  0.30947245  -0.04234432  1
  In  In37  1  0.31666829  0.33148781  -0.02300254  1
  In  In38  1  0.81865063  0.81240966  0.35181652  1
  In  In39  1  0.16847259  0.83598687  -0.00005680  1
  In  In40  1  -0.01976621  0.64733498  -0.01132589  1
  In  In41  1  0.01289953  0.67430931  0.65437367  1
  In  In42  1  0.66690910  0.49836144  0.20185686  1
  In  In43  1  0.31514011  0.01441463  -0.00555166  1
  In  In44  1  0.33763524  0.50686861  0.17221936  1
  In  In45  1  0.17209536  0.00264279  0.82703604  1
  In  In46  1  0.65292690  0.80465075  0.16771418  1
  In  In47  1  0.17058149  0.82801410  0.67020854  1
  In  In48  1  0.33651767  0.81324004  0.19845089  1
  In  In49  1  0.50906039  0.51656785  0.65976202  1
  In  In50  1  0.80535463  0.52682736  0.63905298  1
  In  In51  1  0.66634503  0.00001550  -0.03581553  1
  In  In52  1  0.00243722  0.86118418  0.17434326  1
  In  In53  1  0.00369160  0.00010243  0.00630688  1
  In  In54  1  0.17739369  0.49318592  0.34619343  1
  In  In55  1  0.66927227  0.83226282  0.51423342  1
  In  In56  1  0.51634082  0.66779046  0.19003276  1
  In  In57  1  0.48120339  0.00070775  0.16922531  1
  In  In58  1  0.47419378  0.14959310  0.66599576  1
  In  In59  1  0.18081354  0.16194704  0.66708708  1
  In  In60  1  0.84032106  0.15575223  0.68033905  1
  In  In61  1  0.51811694  -0.00642101  0.80415931  1
  In  In62  1  0.63420155  0.15188328  0.15423627  1
  In  In63  1  -0.01448543  0.51019431  0.16304270  1
  In  In64  1  0.83111001  0.18365505  0.34148775  1
  In  In65  1  0.00243039  -0.00772683  0.65543492  1
  In  In66  1  0.01951937  0.17919375  0.16597840  1
  In  In67  1  0.33887803  0.17588260  0.18334452  1
  In  In68  1  0.00856309  0.32606826  0.67112979  1
  In  In69  1  0.00666053  0.47909173  0.82679954  1
  In  In70  1  0.49432940  0.31757028  0.82640018  1
  In  In71  1  0.83291128  -0.01336988  0.50260773  1
  Te  Te72  1  0.10439973  0.09528290  0.06986570  1
  Te  Te73  1  0.09521289  0.09314431  0.43724055  1
  Te  Te74  1  0.07240075  0.08945906  0.74888912  1
  Te  Te75  1  0.06503706  0.40259363  0.08759317  1
  Te  Te76  1  0.08111361  0.43044539  0.44516729  1
  Te  Te77  1  0.10681706  0.41380618  0.74085033  1
  Te  Te78  1  0.07593382  0.74633991  0.08520695  1
  Te  Te79  1  0.10141516  0.76498688  0.41968943  1
  Te  Te80  1  0.08179547  0.75092482  0.76027717  1
  Te  Te81  1  0.41761117  0.09734372  0.07175250  1
  Te  Te82  1  0.39637453  0.03715099  0.44422547  1
  Te  Te83  1  0.39775805  0.07204121  0.76756541  1
  Te  Te84  1  0.40607567  0.40358209  0.08415319  1
  Te  Te85  1  0.40460571  0.43181961  0.43571008  1
  Te  Te86  1  0.42205948  0.41476038  0.73515669  1
  Te  Te87  1  0.42801035  0.75313485  0.08790411  1
  Te  Te88  1  0.40853864  0.75257576  0.42479297  1
  Te  Te89  1  0.42280125  0.75294740  0.71793802  1
  Te  Te90  1  0.75578699  0.08174374  0.08874517  1
  Te  Te91  1  0.74117714  0.08042857  0.41069415  1
  Te  Te92  1  0.73720306  0.07602089  0.74861856  1
  Te  Te93  1  0.73891061  0.43388959  0.07645947  1
  Te  Te94  1  0.75069316  0.42836380  0.40941403  1
  Te  Te95  1  0.76576071  0.41066249  0.73995601  1
  Te  Te96  1  0.74991149  0.75737929  0.06879214  1
  Te  Te97  1  0.76002199  0.72204417  0.45931760  1
  Te  Te98  1  0.72699093  0.74635086  0.73576023  1
  Te  Te99  1  0.11072664  0.23641918  0.27428995  1
  Te  Te100  1  0.09390253  0.24432638  0.57289413  1
  Te  Te101  1  0.14296618  0.24966953  0.88098145  1
  Te  Te102  1  0.09028048  0.58064916  0.24762594  1
  Te  Te103  1  0.11263576  0.57186781  0.61434057  1
  Te  Te104  1  0.08805326  0.58885061  0.89899221  1
  Te  Te105  1  0.11470582  0.90039765  0.27109427  1
  Te  Te106  1  0.08166264  0.89904095  0.56655701  1
  Te  Te107  1  0.07699817  0.91103521  0.90431337  1
  Te  Te108  1  0.39242930  0.25576682  0.29656414  1
  Te  Te109  1  0.40049934  0.23407984  0.56144389  1
  Te  Te110  1  0.40985865  0.23505012  0.91383356  1
  Te  Te111  1  0.40762301  0.59902353  0.27058591  1
  Te  Te112  1  0.40267036  0.57648324  0.57026123  1
  Te  Te113  1  0.41792948  0.59412312  0.87888966  1
  Te  Te114  1  0.38418154  0.94145684  0.26902379  1
  Te  Te115  1  0.38174895  0.95278082  0.56131301  1
  Te  Te116  1  0.41012239  0.91289075  0.92687281  1
  Te  Te117  1  0.73468180  0.25122470  0.24246227  1
  Te  Te118  1  0.75273290  0.25162028  0.57093944  1
  Te  Te119  1  0.73815615  0.24612965  0.88581931  1
  Te  Te120  1  0.74585748  0.61128349  0.25208911  1
  Te  Te121  1  0.71114700  0.60980478  0.55899630  1
  Te  Te122  1  0.75434435  0.57388788  0.91417774  1
  Te  Te123  1  0.74894543  0.91902016  0.25774374  1
  Te  Te124  1  0.73649314  0.93644352  0.60643613  1
  Te  Te125  1  0.74615573  0.89385157  0.90556417  1
  Te  Te126  1  0.24329973  0.24854269  0.08524603  1
  Te  Te127  1  0.28380318  0.23244313  0.40073064  1
  Te  Te128  1  0.25063311  0.25500010  0.76487684  1
  Te  Te129  1  0.24280462  0.58252477  0.07525998  1
  Te  Te130  1  0.26310934  0.58755203  0.41870219  1
  Te  Te131  1  0.27687922  0.56847727  0.79124206  1
  Te  Te132  1  0.25793128  0.91237949  0.09757083  1
  Te  Te133  1  0.29268272  0.91708875  0.43236954  1
  Te  Te134  1  0.26586230  0.93520721  0.72790891  1
  Te  Te135  1  0.56149934  0.25923125  0.08523361  1
  Te  Te136  1  0.55946922  0.23786630  0.42014680  1
  Te  Te137  1  0.58608489  0.22840866  0.74263558  1
  Te  Te138  1  0.57011390  0.57729560  0.07955444  1
  Te  Te139  1  0.60117382  0.58578192  0.43208405  1
  Te  Te140  1  0.59952043  0.60969412  0.73356839  1
  Te  Te141  1  0.59270696  0.92753459  0.09574685  1
  Te  Te142  1  0.56521313  0.92581397  0.44607397  1
  Te  Te143  1  0.57547415  0.87525105  0.73932307  1
  Te  Te144  1  0.91693014  0.24432288  0.07104652  1
  Te  Te145  1  0.94175082  0.24623716  0.42325708  1
  Te  Te146  1  0.92549029  0.24331245  0.76282848  1
  Te  Te147  1  0.88468413  0.60579458  0.10421055  1
  Te  Te148  1  0.93273753  0.58437857  0.44828335  1
  Te  Te149  1  0.91156068  0.57550175  0.74607206  1
  Te  Te150  1  0.90619765  0.89382876  0.05728888  1
  Te  Te151  1  0.92428727  0.90527947  0.41366021  1
  Te  Te152  1  0.91800322  0.90249722  0.74373345  1
  Te  Te153  1  0.25105743  0.09588436  0.27958708  1
  Te  Te154  1  0.28167114  0.09219603  0.57711949  1
  Te  Te155  1  0.23861114  0.10954738  0.90870335  1
  Te  Te156  1  0.28173218  0.40482711  0.27291159  1
  Te  Te157  1  0.24223371  0.42749570  0.57846345  1
  Te  Te158  1  0.26226974  0.44003539  0.88543508  1
  Te  Te159  1  0.25393335  0.74112495  0.29995830  1
  Te  Te160  1  0.26649701  0.75892164  0.57611941  1
  Te  Te161  1  0.24074491  0.74916997  0.89735228  1
  Te  Te162  1  0.54430592  0.10142881  0.26800333  1
  Te  Te163  1  0.56587402  0.05562537  0.59373423  1
  Te  Te164  1  0.56496439  0.08841176  0.91005836  1
  Te  Te165  1  0.55459684  0.40602670  0.24303896  1
  Te  Te166  1  0.60524530  0.43796551  0.56651387  1
  Te  Te167  1  0.58101289  0.41958620  0.91291554  1
  Te  Te168  1  0.59599095  0.74671460  0.29446369  1
  Te  Te169  1  0.55528760  0.78719774  0.60802663  1
  Te  Te170  1  0.57022939  0.73749556  0.88206230  1
  Te  Te171  1  0.92622801  0.08852197  0.25217875  1
  Te  Te172  1  0.92301580  0.09043107  0.56831514  1
  Te  Te173  1  0.93185431  0.08609278  0.90278044  1
  Te  Te174  1  0.90575103  0.41228368  0.25826648  1
  Te  Te175  1  0.91802853  0.43107642  0.59541385  1
  Te  Te176  1  0.91120650  0.38504963  0.90506996  1
  Te  Te177  1  0.92056086  0.75544748  0.25249567  1
  Te  Te178  1  0.91637295  0.73951002  0.56151968  1
  Te  Te179  1  0.92465667  0.75583811  0.90649026  1
