# generated using pymatgen
data_In2Te3
_symmetry_space_group_name_H-M   'P 1'
_cell_length_a   18.88990260
_cell_length_b   18.87579246
_cell_length_c   18.89604693
_cell_angle_alpha   89.94215116
_cell_angle_beta   90.05748183
_cell_angle_gamma   89.84928570
_symmetry_Int_Tables_number   1
_chemical_formula_structural   In2Te3
_chemical_formula_sum   'In72 Te108'
_cell_volume   6737.57988640
_cell_formula_units_Z   36
loop_
 _symmetry_equiv_pos_site_id
 _symmetry_equiv_pos_as_xyz
  1  'x, y, z'
loop_
 _atom_site_type_symbol
 _atom_site_label
 _atom_site_symmetry_multiplicity
 _atom_site_fract_x
 _atom_site_fract_y
 _atom_site_fract_z
 _atom_site_occupancy
  In  In0  1  0.68075886  0.18595582  0.17923929  1
  In  In1  1  0.00776757  0.65133361  0.34445403  1
  In  In2  1  -0.00645703  0.63802779  0.65684289  1
  In  In3  1  0.35004803  0.49042378  0.51295751  1
  In  In4  1  0.51497118  0.78383493  0.00734042  1
  In  In5  1  0.52495626  -0.00035653  0.46453363  1
  In  In6  1  0.66556410  -0.00784648  0.35150634  1
  In  In7  1  0.16801706  0.17278618  0.31660615  1
  In  In8  1  0.84893415  0.82896054  0.65833328  1
  In  In9  1  0.16603017  0.47933654  0.34105698  1
  In  In10  1  0.14843312  0.82472323  0.00526506  1
  In  In11  1  0.35005237  0.50696000  0.16890652  1
  In  In12  1  0.84338260  0.35852411  0.83149603  1
  In  In13  1  0.64510701  0.78250201  0.86258224  1
  In  In14  1  -0.03281641  0.52011824  0.14415905  1
  In  In15  1  0.70035899  0.18423555  0.51831505  1
  In  In16  1  0.37438099  0.83162138  0.18144680  1
  In  In17  1  0.14978262  0.33297828  0.83285627  1
  In  In18  1  0.50765170  0.16920791  0.02025843  1
  In  In19  1  0.34808368  0.66801891  0.32362267  1
  In  In20  1  0.84336791  0.33823008  0.47829989  1
  In  In21  1  0.68184744  0.49735939  0.83105772  1
  In  In22  1  0.35437975  0.33034797  0.65290722  1
  In  In23  1  0.01565698  0.01414344  0.34308237  1
  In  In24  1  0.79724466  0.39026637  0.16978448  1
  In  In25  1  0.85274829  0.00177828  0.16995280  1
  In  In26  1  0.00185645  -0.01860696  0.01568315  1
  In  In27  1  -0.00250875  0.81259185  0.16006446  1
  In  In28  1  0.82854730  0.67041063  0.84077533  1
  In  In29  1  0.00402954  0.80170389  0.80495092  1
  In  In30  1  0.84055653  0.01472077  0.48907637  1
  In  In31  1  -0.00768932  0.17737751  0.82516320  1
  In  In32  1  0.51035479  0.35321676  0.15460187  1
  In  In33  1  0.49883107  0.49767931  0.66671949  1
  In  In34  1  0.46879854  0.81865177  0.68107203  1
  In  In35  1  0.31670549  0.83664850  0.50017005  1
  In  In36  1  0.68916158  0.63613975  0.63761432  1
  In  In37  1  0.18036879  0.67976126  0.51575357  1
  In  In38  1  -0.00944503  0.19424537  0.15349832  1
  In  In39  1  0.51028977  0.16086737  0.33367888  1
  In  In40  1  0.17471165  0.53001209  0.69539122  1
  In  In41  1  0.15035471  0.17512988  0.64490338  1
  In  In42  1  0.65423857  0.32510248  0.33332196  1
  In  In43  1  0.67359596  -0.00066852  0.69511416  1
  In  In44  1  0.18425452  0.18632806  -0.02162338  1
  In  In45  1  0.79862880  0.00736681  0.84106881  1
  In  In46  1  0.65292901  0.18329050  0.80831058  1
  In  In47  1  -0.01037052  0.52868991  0.85081526  1
  In  In48  1  0.48612431  -0.00992101  0.85660890  1
  In  In49  1  0.14934585  0.35016403  0.14094554  1
  In  In50  1  0.17162970  0.00144927  0.50005314  1
  In  In51  1  0.32936910  -0.01539020  0.66648172  1
  In  In52  1  0.33977729  0.01941272  0.01170128  1
  In  In53  1  0.31984348  0.15011811  0.84255971  1
  In  In54  1  -0.00421720  0.84037031  0.49429367  1
  In  In55  1  0.36123834  0.34024915  0.34920725  1
  In  In56  1  0.65424295  0.83245237  0.48471778  1
  In  In57  1  0.14377137  0.33117465  0.50207416  1
  In  In58  1  0.65465472  -0.02725236  0.01839862  1
  In  In59  1  0.32222891  0.68401844  0.00442685  1
  In  In60  1  0.51684818  0.33902472  0.83402381  1
  In  In61  1  0.79199294  0.80074114  0.32929313  1
  In  In62  1  0.51418803  0.64124039  0.50596753  1
  In  In63  1  0.18296796  0.67704872  0.15868100  1
  In  In64  1  0.17733467  -0.00010200  0.16511059  1
  In  In65  1  0.32299840  0.34588518  0.00473909  1
  In  In66  1  -0.00620695  0.02067832  0.65280006  1
  In  In67  1  0.32384788  0.81437737  0.83863808  1
  In  In68  1  0.49078346  0.17687520  0.63718556  1
  In  In69  1  0.66452342  0.74033416  0.15347465  1
  In  In70  1  0.82860907  0.19008848  -0.00671263  1
  In  In71  1  0.81414110  0.52164779  0.32847316  1
  Te  Te72  1  0.08275882  0.09261201  0.08320068  1
  Te  Te73  1  0.08517458  0.11031364  0.43559596  1
  Te  Te74  1  0.08956141  0.08563522  0.75224076  1
  Te  Te75  1  0.06413653  0.44119960  0.06234260  1
  Te  Te76  1  0.05838850  0.41329326  0.41458167  1
  Te  Te77  1  0.07135293  0.43734274  0.75451287  1
  Te  Te78  1  0.06450375  0.71176766  0.06877864  1
  Te  Te79  1  0.09449005  0.75639450  0.41422332  1
  Te  Te80  1  0.09133577  0.73816722  0.70652645  1
  Te  Te81  1  0.44166079  0.06804210  0.10377002  1
  Te  Te82  1  0.41392274  0.07591342  0.40654700  1
  Te  Te83  1  0.43194321  0.08742356  0.75116866  1
  Te  Te84  1  0.43091656  0.43997457  0.05719499  1
  Te  Te85  1  0.45666679  0.43704357  0.41855063  1
  Te  Te86  1  0.40895305  0.42016232  0.76254123  1
  Te  Te87  1  0.42939946  0.70858684  0.11041453  1
  Te  Te88  1  0.41730311  0.74039262  0.43706469  1
  Te  Te89  1  0.43638788  0.72666722  0.79371205  1
  Te  Te90  1  0.75352516  0.08302525  0.07739118  1
  Te  Te91  1  0.75603498  0.10438190  0.40044469  1
  Te  Te92  1  0.76736160  0.11366469  0.73555337  1
  Te  Te93  1  0.72671683  0.45335158  0.05390929  1
  Te  Te94  1  0.72877864  0.42797711  0.41610932  1
  Te  Te95  1  0.74575802  0.41002838  0.72767450  1
  Te  Te96  1  0.75875990  0.71420880  0.04461736  1
  Te  Te97  1  0.74978989  0.72121124  0.44815328  1
  Te  Te98  1  0.74318667  0.75590154  0.73944798  1
  Te  Te99  1  0.07459485  0.27508456  0.25098019  1
  Te  Te100  1  0.05345612  0.28103074  0.60968734  1
  Te  Te101  1  0.06052132  0.25994170  0.93417336  1
  Te  Te102  1  0.09727061  0.57744780  0.24332065  1
  Te  Te103  1  0.09476759  0.56643941  0.56718116  1
  Te  Te104  1  0.08203141  0.63141827  0.89706472  1
  Te  Te105  1  0.07529404  0.91626615  0.24170146  1
  Te  Te106  1  0.08544948  0.91572209  0.59161916  1
  Te  Te107  1  0.06888964  0.90651964  0.90374518  1
  Te  Te108  1  0.43071063  0.25672714  0.24284251  1
  Te  Te109  1  0.40632547  0.24977428  0.54147635  1
  Te  Te110  1  0.41791171  0.24106247  0.91803733  1
  Te  Te111  1  0.44020515  0.56634941  0.26919954  1
  Te  Te112  1  0.40274508  0.59994258  0.60247838  1
  Te  Te113  1  0.38303751  0.60399817  0.89556759  1
  Te  Te114  1  0.42716721  0.91185360  0.29049866  1
  Te  Te115  1  0.43816270  0.92768846  0.57603045  1
  Te  Te116  1  0.41597743  0.89180681  0.94683931  1
  Te  Te117  1  0.77529901  0.26583495  0.26468125  1
  Te  Te118  1  0.75751920  0.29563424  0.59593088  1
  Te  Te119  1  0.73579399  0.26869422  0.90361189  1
  Te  Te120  1  0.73358478  0.61201700  0.23041212  1
  Te  Te121  1  0.75553961  0.51957694  0.57775209  1
  Te  Te122  1  0.77136783  0.56563016  0.93481938  1
  Te  Te123  1  0.74786933  0.91823400  0.24278011  1
  Te  Te124  1  0.75008943  0.92345601  0.57762616  1
  Te  Te125  1  0.73739061  0.89163622  0.92007902  1
  Te  Te126  1  0.25755356  0.24287350  0.09558424  1
  Te  Te127  1  0.24859444  0.26110028  0.41367815  1
  Te  Te128  1  0.25266400  0.24745810  0.74638618  1
  Te  Te129  1  0.24745122  0.56933676  0.07416838  1
  Te  Te130  1  0.25701662  0.57736344  0.41696132  1
  Te  Te131  1  0.28076991  0.58287477  0.78019909  1
  Te  Te132  1  0.25744728  0.89858035  0.08354570  1
  Te  Te133  1  0.24613503  0.92076941  0.40344627  1
  Te  Te134  1  0.24664419  0.91688221  0.76548265  1
  Te  Te135  1  0.60949198  0.26888088  0.07294224  1
  Te  Te136  1  0.58350562  0.24347401  0.43845804  1
  Te  Te137  1  0.58077897  0.27530271  0.71090712  1
  Te  Te138  1  0.63542753  0.54137247  0.13664632  1
  Te  Te139  1  0.62492520  0.62234576  0.40861174  1
  Te  Te140  1  0.59342884  0.58839051  0.74381036  1
  Te  Te141  1  0.58478586  0.87534590  0.10689269  1
  Te  Te142  1  0.56002232  0.87616899  0.36573465  1
  Te  Te143  1  0.57646774  0.90479564  0.76732437  1
  Te  Te144  1  0.88943089  0.28779046  0.08973620  1
  Te  Te145  1  0.93208086  0.22232685  0.45893496  1
  Te  Te146  1  0.92800441  0.27667891  0.73837440  1
  Te  Te147  1  0.85984014  0.60237867  0.08455734  1
  Te  Te148  1  0.91632275  0.57040371  0.42970425  1
  Te  Te149  1  0.88972750  0.57096656  0.74267188  1
  Te  Te150  1  0.89617524  0.88995896  0.07542015  1
  Te  Te151  1  0.90229555  0.91084314  0.39562680  1
  Te  Te152  1  0.90544628  0.93511287  0.75149566  1
  Te  Te153  1  0.26214127  0.08009899  0.25300289  1
  Te  Te154  1  0.26317291  0.09174545  0.58166620  1
  Te  Te155  1  0.22740741  0.05413682  0.91598307  1
  Te  Te156  1  0.26210281  0.40420310  0.24335432  1
  Te  Te157  1  0.24304803  0.41808018  0.59432016  1
  Te  Te158  1  0.23599706  0.42069438  0.91366486  1
  Te  Te159  1  0.25254291  0.76626931  0.25730897  1
  Te  Te160  1  0.25931990  0.75929046  0.61188952  1
  Te  Te161  1  0.20586768  0.72788861  0.89952392  1
  Te  Te162  1  0.59638881  0.07690012  0.23977821  1
  Te  Te163  1  0.59861568  0.07686142  0.58350829  1
  Te  Te164  1  0.59583221  0.08259690  0.91667383  1
  Te  Te165  1  0.59079041  0.43498093  0.25097319  1
  Te  Te166  1  0.54427806  0.42892680  0.54702767  1
  Te  Te167  1  0.57659366  0.44051104  0.92000489  1
  Te  Te168  1  0.59885914  0.70694109  0.28073467  1
  Te  Te169  1  0.58205067  0.75504309  0.59750371  1
  Te  Te170  1  0.59443401  0.67420838  0.94795252  1
  Te  Te171  1  0.92448426  0.10258842  0.25750815  1
  Te  Te172  1  0.91092541  0.11774010  0.57278706  1
  Te  Te173  1  0.91170225  0.07879347  0.92478691  1
  Te  Te174  1  0.91694339  0.43198852  0.25597019  1
  Te  Te175  1  0.89653826  0.45854385  0.55061941  1
  Te  Te176  1  0.92659245  0.42433857  0.93570350  1
  Te  Te177  1  0.91175382  0.73481849  0.25860638  1
  Te  Te178  1  0.91279860  0.73217407  0.56248226  1
  Te  Te179  1  0.92682382  0.74991009  0.91683042  1
