# generated using pymatgen
data_In2Te3
_symmetry_space_group_name_H-M   'P 1'
_cell_length_a   18.75257538
_cell_length_b   18.75015129
_cell_length_c   18.75720673
_cell_angle_alpha   90.00296756
_cell_angle_beta   90.03111239
_cell_angle_gamma   89.95891592
_symmetry_Int_Tables_number   1
_chemical_formula_structural   In2Te3
_chemical_formula_sum   'In72 Te108'
_cell_volume   6595.28678330
_cell_formula_units_Z   36
loop_
 _symmetry_equiv_pos_site_id
 _symmetry_equiv_pos_as_xyz
  1  'x, y, z'
loop_
 _atom_site_type_symbol
 _atom_site_label
 _atom_site_symmetry_multiplicity
 _atom_site_fract_x
 _atom_site_fract_y
 _atom_site_fract_z
 _atom_site_occupancy
  In  In0  1  0.51597730  0.49192789  0.02720193  1
  In  In1  1  0.80925907  0.66197112  0.15695164  1
  In  In2  1  0.35646888  0.33103052  0.32285855  1
  In  In3  1  0.00303308  0.34727094  0.64903253  1
  In  In4  1  0.49634496  0.02273023  0.49127989  1
  In  In5  1  0.00249982  0.02001415  0.34485114  1
  In  In6  1  0.02320503  0.49037146  0.81372231  1
  In  In7  1  0.68333034  0.66772974  0.65799983  1
  In  In8  1  0.16047747  0.66835235  0.18046127  1
  In  In9  1  0.16565255  0.85898312  0.66705905  1
  In  In10  1  0.62982873  0.30450311  0.68717067  1
  In  In11  1  0.84853968  0.50407408  0.64966720  1
  In  In12  1  0.18781123  0.47412176  0.67557229  1
  In  In13  1  0.18104946  0.66447364  0.83752281  1
  In  In14  1  0.69349781  -0.00909987  0.64439957  1
  In  In15  1  0.18223847  0.13522175  0.31082098  1
  In  In16  1  0.32099231  0.66222085  0.66979648  1
  In  In17  1  0.17774878  0.32110475  0.14780361  1
  In  In18  1  0.49006980  0.00992680  0.14994576  1
  In  In19  1  0.16674202  0.32687482  0.51599268  1
  In  In20  1  -0.01085116  0.31220870  0.32465611  1
  In  In21  1  0.83296514  0.84170234  0.33775086  1
  In  In22  1  0.49530125  0.18206704  0.34950849  1
  In  In23  1  0.67197149  0.49308307  0.84685006  1
  In  In24  1  0.82778663  -0.00527689  0.18946866  1
  In  In25  1  0.17294882  0.00105306  0.82879123  1
  In  In26  1  0.50052063  0.66105573  0.84880786  1
  In  In27  1  0.65786017  0.18822341  0.16182242  1
  In  In28  1  0.84374274  0.16801126  -0.00199746  1
  In  In29  1  0.01665206  0.86284166  0.82191368  1
  In  In30  1  -0.01777584  0.68652573  0.63426726  1
  In  In31  1  0.65757887  0.82484717  0.83518478  1
  In  In32  1  -0.00076107  0.01049025  0.66205263  1
  In  In33  1  0.33431422  0.84110135  0.14702357  1
  In  In34  1  0.52571537  0.48424358  0.29184156  1
  In  In35  1  0.82815338  0.15439713  0.66754146  1
  In  In36  1  0.80401422  0.66207436  0.84095088  1
  In  In37  1  0.80908613  0.46268191  0.34824669  1
  In  In38  1  0.82095741  0.17386826  0.33554330  1
  In  In39  1  0.17294949  0.51885379  0.33923463  1
  In  In40  1  0.65626605  0.66937094  0.32902366  1
  In  In41  1  0.32340394  0.00837225  0.67240646  1
  In  In42  1  0.18661124  0.85763411  0.00623800  1
  In  In43  1  0.31360503  0.49910026  0.50659113  1
  In  In44  1  0.18553814  0.85696727  0.35590255  1
  In  In45  1  0.50161013  0.84396907  0.33109504  1
  In  In46  1  0.35342389  0.66791482  0.00992855  1
  In  In47  1  0.67864775  -0.01046097  0.33260969  1
  In  In48  1  0.64362911  -0.00068677  -0.01113667  1
  In  In49  1  0.65907537  0.32012788  -0.00278108  1
  In  In50  1  0.50098876  0.67582397  0.47609952  1
  In  In51  1  -0.00538112  0.84905371  0.17802854  1
  In  In52  1  0.47675692  0.01838724  0.84220211  1
  In  In53  1  0.34592794  0.00575422  -0.00631861  1
  In  In54  1  0.18726109  0.46485910  -0.01494858  1
  In  In55  1  0.00664321  0.15245293  0.84078933  1
  In  In56  1  0.82145267  0.32774441  0.84493093  1
  In  In57  1  0.49855667  0.32325481  0.51161898  1
  In  In58  1  0.84592398  0.68960028  0.50863688  1
  In  In59  1  0.35929433  0.50019516  0.15741839  1
  In  In60  1  0.65724069  0.16649495  0.48998275  1
  In  In61  1  0.03530783  0.67522998  0.34112793  1
  In  In62  1  0.17377254  0.15063805  0.01837858  1
  In  In63  1  0.82404371  0.83733180  0.01253680  1
  In  In64  1  0.48710405  0.46659640  0.68155073  1
  In  In65  1  0.49035593  0.84613763  0.65796622  1
  In  In66  1  0.16032437  0.67256534  0.47959970  1
  In  In67  1  0.80702129  0.47948334  0.00482607  1
  In  In68  1  0.33192811  0.16478835  0.51231638  1
  In  In69  1  -0.02468517  0.66660640  0.00471506  1
  In  In70  1  -0.00102814  0.30924653  0.01705398  1
  In  In71  1  -0.00999050  0.50759108  0.50260864  1
  Te  Te72  1  0.06978223  0.05473334  0.05810762  1
  Te  Te73  1  0.10897870  0.08389810  0.42744688  1
  Te  Te74  1  0.10550504  0.10216250  0.73740749  1
  Te  Te75  1  0.07947131  0.42024591  0.08423236  1
  Te  Te76  1  0.08723868  0.42032370  0.41969462  1
  Te  Te77  1  0.10761445  0.37574588  0.76087692  1
  Te  Te78  1  0.08093851  0.75880015  0.07752092  1
  Te  Te79  1  0.06709971  0.78752569  0.43602111  1
  Te  Te80  1  0.08529620  0.74128231  0.74583259  1
  Te  Te81  1  0.42139150  0.11362967  0.06670722  1
  Te  Te82  1  0.39019820  0.08165024  0.39780488  1
  Te  Te83  1  0.42399993  0.10315773  0.72892782  1
  Te  Te84  1  0.42031134  0.39135360  0.07994602  1
  Te  Te85  1  0.42276986  0.42874891  0.41955763  1
  Te  Te86  1  0.39869678  0.38395496  0.76581082  1
  Te  Te87  1  0.43905199  0.74292117  0.10506147  1
  Te  Te88  1  0.40280448  0.77073207  0.41821721  1
  Te  Te89  1  0.41736319  0.74903755  0.75103486  1
  Te  Te90  1  0.74270697  0.07896057  0.09063176  1
  Te  Te91  1  0.76069545  0.06979908  0.43260318  1
  Te  Te92  1  0.72976291  0.08495940  0.75313718  1
  Te  Te93  1  0.71602710  0.41330013  0.10488517  1
  Te  Te94  1  0.72258343  0.38078791  0.43126011  1
  Te  Te95  1  0.75369636  0.41933693  0.73956878  1
  Te  Te96  1  0.72208160  0.75401186  0.08008124  1
  Te  Te97  1  0.73701650  0.75844103  0.42337440  1
  Te  Te98  1  0.76397625  0.76903266  0.73824420  1
  Te  Te99  1  0.09020266  0.23341177  0.23721916  1
  Te  Te100  1  0.07418657  0.23479973  0.58315199  1
  Te  Te101  1  0.09564910  0.24694398  0.92111949  1
  Te  Te102  1  0.06602337  0.56395130  0.23899600  1
  Te  Te103  1  0.09678766  0.57610142  0.59176213  1
  Te  Te104  1  0.08447893  0.58456195  0.92707400  1
  Te  Te105  1  0.09403376  0.93112062  0.25538740  1
  Te  Te106  1  0.08746489  0.93338538  0.56826694  1
  Te  Te107  1  0.07584981  0.95069135  0.94132263  1
  Te  Te108  1  0.42902863  0.24231553  0.23134691  1
  Te  Te109  1  0.42845143  0.23163692  0.60519982  1
  Te  Te110  1  0.41436539  0.24559999  0.87145802  1
  Te  Te111  1  0.43342512  0.59170897  0.24687775  1
  Te  Te112  1  0.42456976  0.58078526  0.58766048  1
  Te  Te113  1  0.41451440  0.55997758  0.92269412  1
  Te  Te114  1  0.40392817  0.93321464  0.25126213  1
  Te  Te115  1  0.39554683  0.91853200  0.56026917  1
  Te  Te116  1  0.42861314  0.90400565  0.92439137  1
  Te  Te117  1  0.73977150  0.27223747  0.25552241  1
  Te  Te118  1  0.73637767  0.25208572  0.59007921  1
  Te  Te119  1  0.73349437  0.22166328  0.90400605  1
  Te  Te120  1  0.74118335  0.56661923  0.25455291  1
  Te  Te121  1  0.75107739  0.57602001  0.55675438  1
  Te  Te122  1  0.71321819  0.60111084  0.95252334  1
  Te  Te123  1  0.72919418  0.88613496  0.23232570  1
  Te  Te124  1  0.77115339  0.89347442  0.56954005  1
  Te  Te125  1  0.75034765  0.92314213  0.90912580  1
  Te  Te126  1  0.27826876  0.23842717  0.07891444  1
  Te  Te127  1  0.25178091  0.25665310  0.40601475  1
  Te  Te128  1  0.29166339  0.27099936  0.78721160  1
  Te  Te129  1  0.24112010  0.58293838  0.08114305  1
  Te  Te130  1  0.27849630  0.60736331  0.40277314  1
  Te  Te131  1  0.27118578  0.55971126  0.77227130  1
  Te  Te132  1  0.24001915  0.96233743  0.10893898  1
  Te  Te133  1  0.28807308  0.91554249  0.44322378  1
  Te  Te134  1  0.27141934  0.90089494  0.76882167  1
  Te  Te135  1  0.55292193  0.24043551  0.06863263  1
  Te  Te136  1  0.60011337  0.28560747  0.39682213  1
  Te  Te137  1  0.55250879  0.24096754  0.79665833  1
  Te  Te138  1  0.61536522  0.58904647  0.07298023  1
  Te  Te139  1  0.58425917  0.56423667  0.41445623  1
  Te  Te140  1  0.58813180  0.58277399  0.74507510  1
  Te  Te141  1  0.57881591  0.91002660  0.08689042  1
  Te  Te142  1  0.59061267  0.91713104  0.43399199  1
  Te  Te143  1  0.57899494  0.92840712  0.75029056  1
  Te  Te144  1  0.89175355  0.25945859  0.10352516  1
  Te  Te145  1  0.92062706  0.23445449  0.42940174  1
  Te  Te146  1  0.92135594  0.25819810  0.75247298  1
  Te  Te147  1  0.90628432  0.56224731  0.08971514  1
  Te  Te148  1  0.91367682  0.59456940  0.40435460  1
  Te  Te149  1  0.91919064  0.59212957  0.75448058  1
  Te  Te150  1  0.91958428  0.93757942  0.07854520  1
  Te  Te151  1  0.90823279  0.93459604  0.42373416  1
  Te  Te152  1  0.90940127  0.94192721  0.75979026  1
  Te  Te153  1  0.27606074  0.06444008  0.22365903  1
  Te  Te154  1  0.23014432  0.08850040  0.58857812  1
  Te  Te155  1  0.26387908  0.09722656  0.90169002  1
  Te  Te156  1  0.24969072  0.42223311  0.24895417  1
  Te  Te157  1  0.28314730  0.38114920  0.59918828  1
  Te  Te158  1  0.26975782  0.37656837  0.90343384  1
  Te  Te159  1  0.25392307  0.76085642  0.25311259  1
  Te  Te160  1  0.24265084  0.75529291  0.58017760  1
  Te  Te161  1  0.26888875  0.75830489  0.91951418  1
  Te  Te162  1  0.58498127  0.08529943  0.26040894  1
  Te  Te163  1  0.57935799  0.09228850  0.59722451  1
  Te  Te164  1  0.56501792  0.10881917  0.92400855  1
  Te  Te165  1  0.60460846  0.38807361  0.21388987  1
  Te  Te166  1  0.59516735  0.41721531  0.58706761  1
  Te  Te167  1  0.56847232  0.40227530  0.90423612  1
  Te  Te168  1  0.55830304  0.73885121  0.24024524  1
  Te  Te169  1  0.58478948  0.75538693  0.57868800  1
  Te  Te170  1  0.56465792  0.76447917  0.93341743  1
  Te  Te171  1  0.92177133  0.10081518  0.24187846  1
  Te  Te172  1  0.91843476  0.09416137  0.56732444  1
  Te  Te173  1  0.90149403  0.06998051  0.90261195  1
  Te  Te174  1  0.91079118  0.41439212  0.25286848  1
  Te  Te175  1  0.89602780  0.39719520  0.55032933  1
  Te  Te176  1  0.92215700  0.42269326  0.91184722  1
  Te  Te177  1  0.91614010  0.73794550  0.24780550  1
  Te  Te178  1  0.90286338  0.80752988  0.58920150  1
  Te  Te179  1  0.91444221  0.76226735  0.90305855  1
