# generated using pymatgen
data_In2Te3
_symmetry_space_group_name_H-M   'P 1'
_cell_length_a   18.93875785
_cell_length_b   18.94484911
_cell_length_c   18.94167681
_cell_angle_alpha   89.97597665
_cell_angle_beta   89.91910340
_cell_angle_gamma   89.88530488
_symmetry_Int_Tables_number   1
_chemical_formula_structural   In2Te3
_chemical_formula_sum   'In72 Te108'
_cell_volume   6796.09941913
_cell_formula_units_Z   36
loop_
 _symmetry_equiv_pos_site_id
 _symmetry_equiv_pos_as_xyz
  1  'x, y, z'
loop_
 _atom_site_type_symbol
 _atom_site_label
 _atom_site_symmetry_multiplicity
 _atom_site_fract_x
 _atom_site_fract_y
 _atom_site_fract_z
 _atom_site_occupancy
  In  In0  1  0.18518145  0.49961242  0.67211011  1
  In  In1  1  -0.00026643  0.49391244  0.85380414  1
  In  In2  1  0.33323244  0.00635668  0.65038966  1
  In  In3  1  0.67185475  0.50567018  0.83203718  1
  In  In4  1  0.68516164  0.00179822  0.67289856  1
  In  In5  1  0.18623263  0.49757864  0.33437806  1
  In  In6  1  0.34283793  0.65892853  0.68351856  1
  In  In7  1  0.51374217  0.16495337  0.33840624  1
  In  In8  1  0.34289331  0.49863806  0.18563136  1
  In  In9  1  -0.02099266  0.32152354  0.00468779  1
  In  In10  1  0.68337630  0.36199457  0.02277410  1
  In  In11  1  0.01726297  0.51368008  0.51262821  1
  In  In12  1  0.49022471  0.69120841  0.15739068  1
  In  In13  1  0.83771198  0.66434284  0.52286528  1
  In  In14  1  0.16239295  0.68213663  0.15103218  1
  In  In15  1  0.16886724  0.00278579  0.17541695  1
  In  In16  1  0.16228799  0.15290857  0.64862100  1
  In  In17  1  0.17819862  0.65832202  0.49169337  1
  In  In18  1  -0.03209932  0.74803133  0.73356714  1
  In  In19  1  0.16412512  0.18004203  0.00986371  1
  In  In20  1  0.66323154  0.16854579  0.84747817  1
  In  In21  1  0.67881360  0.69230639  0.03512732  1
  In  In22  1  0.19596391  0.32725916  0.51262381  1
  In  In23  1  0.66498578  0.17945804  0.18245597  1
  In  In24  1  0.83406067  0.32091642  0.48440537  1
  In  In25  1  0.48401191  0.86934926  0.30906456  1
  In  In26  1  0.81380321  0.82389683  0.66902771  1
  In  In27  1  0.83401629  0.16183374  0.00135624  1
  In  In28  1  0.50809675  0.46729644  0.33074876  1
  In  In29  1  0.16423489  0.33656350  0.83007407  1
  In  In30  1  0.49812215  0.67304658  0.84918662  1
  In  In31  1  0.65022345  0.82232991  0.48020385  1
  In  In32  1  0.83911388  0.00910153  0.46271987  1
  In  In33  1  -0.03604669  0.29369405  0.70519823  1
  In  In34  1  0.50127958  0.64856993  0.51469517  1
  In  In35  1  0.48924504  0.00919846  0.49324524  1
  In  In36  1  0.30853195  0.83051065  0.84165006  1
  In  In37  1  0.83714481  0.84509753  0.32159073  1
  In  In38  1  0.47850515  0.45793673  0.70979593  1
  In  In39  1  0.83025955  0.50992297  0.67250511  1
  In  In40  1  0.15985460  0.49489789  -0.01087081  1
  In  In41  1  0.51674293  -0.00045158  0.81022679  1
  In  In42  1  0.67376119  0.65743190  0.29777680  1
  In  In43  1  0.49925088  0.83834015  0.00064074  1
  In  In44  1  0.66345311  0.16312861  0.48995285  1
  In  In45  1  0.34965965  0.20185975  0.85238031  1
  In  In46  1  0.50768722  0.51208599  -0.01877227  1
  In  In47  1  0.82772810  0.49626436  0.33545807  1
  In  In48  1  0.15889251  -0.00384666  0.49425792  1
  In  In49  1  0.69212342  -0.03043489  -0.03218217  1
  In  In50  1  0.33052012  0.16617477  0.14896329  1
  In  In51  1  -0.01321053  -0.02372692  0.65417037  1
  In  In52  1  -0.00812099  0.70134131  0.31995089  1
  In  In53  1  0.02876294  0.31155471  0.31219249  1
  In  In54  1  0.67866080  0.32696394  0.67399782  1
  In  In55  1  0.47350939  0.20122688  0.64128153  1
  In  In56  1  -0.01448208  0.69001918  -0.00418790  1
  In  In57  1  0.17029634  0.85970913  -0.00097685  1
  In  In58  1  0.33687312  0.84059076  0.50447318  1
  In  In59  1  0.67723876  0.48187791  0.50287518  1
  In  In60  1  0.15192209  -0.00435446  0.83221475  1
  In  In61  1  0.32854483  0.33049956  0.34579711  1
  In  In62  1  0.81514865  0.66196357  0.84360365  1
  In  In63  1  -0.03874124  -0.02189864  -0.00611217  1
  In  In64  1  0.51289994  0.33900711  0.15028860  1
  In  In65  1  0.01367941  0.15067194  0.49805740  1
  In  In66  1  0.34308612  0.02245358  0.01247881  1
  In  In67  1  0.00029535  0.50987341  0.15642788  1
  In  In68  1  0.82877489  0.00657103  0.18520613  1
  In  In69  1  -0.01112489  0.15064582  0.14808539  1
  In  In70  1  0.32117932  0.66692634  0.35917184  1
  In  In71  1  0.17526431  0.83914064  0.31599031  1
  Te  Te72  1  0.08298790  0.05714744  0.05472999  1
  Te  Te73  1  0.07098992  0.06260942  0.39564298  1
  Te  Te74  1  0.06680487  0.07978272  0.73925381  1
  Te  Te75  1  0.08106936  0.40460018  0.08194232  1
  Te  Te76  1  0.08991222  0.41622736  0.42140706  1
  Te  Te77  1  0.06463459  0.41669298  0.73919998  1
  Te  Te78  1  0.06949097  0.78204563  0.08706504  1
  Te  Te79  1  0.09295752  0.75937599  0.41802551  1
  Te  Te80  1  0.09592907  0.78261287  0.79071355  1
  Te  Te81  1  0.44533757  0.08467141  0.10003991  1
  Te  Te82  1  0.40626425  0.08573318  0.40151562  1
  Te  Te83  1  0.41081410  0.09575217  0.74707250  1
  Te  Te84  1  0.41686441  0.42770516  0.07468847  1
  Te  Te85  1  0.42581674  0.40189652  0.43305760  1
  Te  Te86  1  0.39632028  0.36714986  0.80071253  1
  Te  Te87  1  0.40261401  0.73600859  0.04821515  1
  Te  Te88  1  0.43197355  0.75584603  0.41630223  1
  Te  Te89  1  0.41928853  0.76681407  0.75820993  1
  Te  Te90  1  0.73841965  0.07511167  0.07939825  1
  Te  Te91  1  0.74934518  0.10395985  0.38006550  1
  Te  Te92  1  0.76150488  0.09642815  0.75963481  1
  Te  Te93  1  0.74018006  0.42297291  0.14300963  1
  Te  Te94  1  0.73372203  0.39100831  0.39448153  1
  Te  Te95  1  0.76923267  0.40758232  0.76512197  1
  Te  Te96  1  0.77449925  0.78036554  0.10484914  1
  Te  Te97  1  0.75459813  0.72990181  0.41266199  1
  Te  Te98  1  0.73186644  0.72511797  0.74032010  1
  Te  Te99  1  0.09544341  0.23251276  0.20902976  1
  Te  Te100  1  0.07036776  0.26423433  0.58843381  1
  Te  Te101  1  0.07134331  0.24570972  0.90924434  1
  Te  Te102  1  0.09338521  0.59380432  0.26243861  1
  Te  Te103  1  0.09263434  0.60329416  0.60603585  1
  Te  Te104  1  0.08392290  0.60346877  0.91456356  1
  Te  Te105  1  0.07448568  0.90458723  0.23146423  1
  Te  Te106  1  0.09851647  0.90512655  0.59119367  1
  Te  Te107  1  0.05721363  0.89097079  0.89250538  1
  Te  Te108  1  0.42359890  0.26206419  0.24406475  1
  Te  Te109  1  0.38116816  0.28608893  0.56676846  1
  Te  Te110  1  0.45302588  0.28438789  0.91285730  1
  Te  Te111  1  0.42794056  0.59120170  0.27045056  1
  Te  Te112  1  0.41997296  0.55646639  0.60233625  1
  Te  Te113  1  0.40077853  0.57948739  0.90620927  1
  Te  Te114  1  0.39956999  0.91291421  0.20138878  1
  Te  Te115  1  0.43668805  0.90930556  0.59553441  1
  Te  Te116  1  0.40990277  0.93193342  0.90585225  1
  Te  Te117  1  0.75559445  0.22352280  0.28705184  1
  Te  Te118  1  0.75963592  0.23478397  0.58448450  1
  Te  Te119  1  0.75161732  0.26393323  0.92521949  1
  Te  Te120  1  0.76765526  0.57109156  0.22067014  1
  Te  Te121  1  0.72733406  0.59125033  0.59696529  1
  Te  Te122  1  0.73944436  0.57880060  0.94497198  1
  Te  Te123  1  0.73246654  0.93335117  0.27060043  1
  Te  Te124  1  0.74945797  0.91872102  0.55653338  1
  Te  Te125  1  0.79116321  0.89552734  0.88651336  1
  Te  Te126  1  0.27791811  0.26151512  0.04919120  1
  Te  Te127  1  0.22679233  0.23936903  0.40113610  1
  Te  Te128  1  0.24335399  0.23556981  0.74819494  1
  Te  Te129  1  0.24570162  0.57131137  0.09114525  1
  Te  Te130  1  0.27448746  0.55032202  0.44538152  1
  Te  Te131  1  0.25205157  0.58354978  0.77161095  1
  Te  Te132  1  0.27935677  0.91315836  0.10032401  1
  Te  Te133  1  0.26550914  0.92444280  0.40303891  1
  Te  Te134  1  0.24212538  0.91976613  0.73503992  1
  Te  Te135  1  0.59466989  0.24568993  0.06492340  1
  Te  Te136  1  0.57042234  0.26123498  0.43402950  1
  Te  Te137  1  0.57476172  0.24377711  0.74626521  1
  Te  Te138  1  0.58041991  0.58889385  0.09149293  1
  Te  Te139  1  0.59592534  0.57779699  0.41001924  1
  Te  Te140  1  0.56630405  0.57565011  0.75107118  1
  Te  Te141  1  0.60826870  0.90614060  0.07119208  1
  Te  Te142  1  0.58644797  0.93615283  0.40225348  1
  Te  Te143  1  0.61388305  0.90488329  0.75652119  1
  Te  Te144  1  0.88766725  0.25639731  0.10759290  1
  Te  Te145  1  0.93076983  0.23815531  0.40273058  1
  Te  Te146  1  0.88406603  0.20007275  0.78087253  1
  Te  Te147  1  0.91175396  0.58235992  0.06553765  1
  Te  Te148  1  0.92773031  0.58978839  0.41360242  1
  Te  Te149  1  0.92753479  0.59494944  0.75039330  1
  Te  Te150  1  0.87595722  0.89928835  0.08715906  1
  Te  Te151  1  0.93162045  0.90586276  0.41524101  1
  Te  Te152  1  0.88948210  0.92008339  0.75638231  1
  Te  Te153  1  0.24685824  0.10009717  0.25031442  1
  Te  Te154  1  0.26350960  0.09693106  0.55224927  1
  Te  Te155  1  0.24790895  0.08666905  0.90754861  1
  Te  Te156  1  0.24171594  0.39839127  0.23634241  1
  Te  Te157  1  0.27768924  0.39445192  0.61768256  1
  Te  Te158  1  0.25819212  0.42110428  0.90542593  1
  Te  Te159  1  0.26888919  0.74551952  0.24073701  1
  Te  Te160  1  0.25663183  0.74506839  0.58881465  1
  Te  Te161  1  0.25212614  0.74703339  0.94958704  1
  Te  Te162  1  0.56555953  0.07994769  0.22915604  1
  Te  Te163  1  0.57422613  0.08613460  0.59579000  1
  Te  Te164  1  0.57888427  0.07194402  0.92667691  1
  Te  Te165  1  0.60975974  0.42079874  0.23146299  1
  Te  Te166  1  0.58114643  0.41499810  0.59854123  1
  Te  Te167  1  0.58796213  0.40461237  0.90841955  1
  Te  Te168  1  0.58629824  0.76864223  0.24520737  1
  Te  Te169  1  0.57960272  0.74924832  0.58564069  1
  Te  Te170  1  0.60292607  0.75713384  0.92029917  1
  Te  Te171  1  0.94153153  0.06710647  0.25932104  1
  Te  Te172  1  0.90556594  0.08159053  0.57882409  1
  Te  Te173  1  0.92359068  0.09086310  0.90492906  1
  Te  Te174  1  0.93219825  0.41588502  0.25616595  1
  Te  Te175  1  0.90593051  0.42671403  0.56974854  1
  Te  Te176  1  0.90009212  0.42306511  0.93319163  1
  Te  Te177  1  0.88630698  0.74095711  0.22392546  1
  Te  Te178  1  0.93222177  0.76200319  0.58494900  1
  Te  Te179  1  0.87997524  0.77214857  0.92296955  1
