# generated using pymatgen
data_In2Te3
_symmetry_space_group_name_H-M   'P 1'
_cell_length_a   18.78151929
_cell_length_b   18.77320957
_cell_length_c   18.77568644
_cell_angle_alpha   89.90027444
_cell_angle_beta   90.08531899
_cell_angle_gamma   90.00823627
_symmetry_Int_Tables_number   1
_chemical_formula_structural   In2Te3
_chemical_formula_sum   'In72 Te108'
_cell_volume   6620.09053905
_cell_formula_units_Z   36
loop_
 _symmetry_equiv_pos_site_id
 _symmetry_equiv_pos_as_xyz
  1  'x, y, z'
loop_
 _atom_site_type_symbol
 _atom_site_label
 _atom_site_symmetry_multiplicity
 _atom_site_fract_x
 _atom_site_fract_y
 _atom_site_fract_z
 _atom_site_occupancy
  In  In0  1  0.18390132  0.49602478  0.35769817  1
  In  In1  1  0.31616441  0.14853580  0.13700996  1
  In  In2  1  0.16286598  0.68390905  0.81426338  1
  In  In3  1  0.69167470  0.68637717  0.01326096  1
  In  In4  1  0.51736107  0.64941745  0.80369649  1
  In  In5  1  0.31949850  -0.02088230  0.33438101  1
  In  In6  1  0.68086209  0.35289322  0.36464652  1
  In  In7  1  0.66029872  0.17482107  0.15031109  1
  In  In8  1  0.82320863  0.64943991  0.83859315  1
  In  In9  1  0.33660834  0.81795557  0.15889320  1
  In  In10  1  0.50882917  0.17810257  0.66976830  1
  In  In11  1  0.68245473  0.01095730  0.66179203  1
  In  In12  1  0.16566026  0.32726066  0.51044286  1
  In  In13  1  -0.02087404  0.32202120  -0.00566357  1
  In  In14  1  -0.00769357  0.67733597  0.35001898  1
  In  In15  1  0.50819155  0.66269610  0.51068597  1
  In  In16  1  0.15446758  0.33916848  0.81836417  1
  In  In17  1  0.53025151  0.36305055  0.52070265  1
  In  In18  1  0.83545665  0.33996508  0.16444618  1
  In  In19  1  0.15896040  0.16878733  0.65951244  1
  In  In20  1  -0.02048592  0.67569955  0.01310666  1
  In  In21  1  0.00745921  0.82406905  0.83812864  1
  In  In22  1  0.84358398  0.18480561  0.66373825  1
  In  In23  1  -0.00940140  0.52021562  0.51539735  1
  In  In24  1  0.33725116  0.64636798  0.33508597  1
  In  In25  1  0.68124631  0.16105667  0.49282707  1
  In  In26  1  0.84837864  0.15387334  0.32659260  1
  In  In27  1  -0.00303964  0.48419298  0.81986364  1
  In  In28  1  0.14223366  -0.01063506  0.17915387  1
  In  In29  1  0.16123188  0.66879179  0.15643312  1
  In  In30  1  0.52155365  0.34849740  0.83713781  1
  In  In31  1  0.13497060  0.83558300  0.35344454  1
  In  In32  1  0.66358940  0.83747258  0.48583032  1
  In  In33  1  0.67886981  0.83303405  0.83851614  1
  In  In34  1  0.82266256  0.35985993  0.52123702  1
  In  In35  1  0.84176672  -0.02014354  0.17249171  1
  In  In36  1  0.50069121  0.31293765  0.16179221  1
  In  In37  1  0.15087826  0.50478229  0.00945766  1
  In  In38  1  0.85206723  0.83754719  0.34520954  1
  In  In39  1  0.51578640  0.16440709  -0.00992849  1
  In  In40  1  0.00099359  0.30586192  0.31645803  1
  In  In41  1  0.85092531  0.82397333  0.66223923  1
  In  In42  1  0.49009799  0.81795746  0.66624810  1
  In  In43  1  -0.02163430  0.51258916  0.16921248  1
  In  In44  1  0.33990406  -0.01206665  -0.01236771  1
  In  In45  1  0.32978388  0.50316319  0.81802312  1
  In  In46  1  0.49976871  0.14876425  0.31705885  1
  In  In47  1  0.16786592  0.13775853  0.01866993  1
  In  In48  1  0.33161386  0.51768590  0.18813965  1
  In  In49  1  0.50124771  0.00501246  0.84812664  1
  In  In50  1  0.15174249  0.81232768  -0.01112877  1
  In  In51  1  0.31111788  0.16706151  0.49205117  1
  In  In52  1  0.34277333  0.52423216  0.50032296  1
  In  In53  1  0.00578367  0.13279131  0.49669958  1
  In  In54  1  0.83513517  0.18334518  -0.00263443  1
  In  In55  1  0.30419821  0.32665630  0.35134527  1
  In  In56  1  0.33769596  0.34109932  0.67383623  1
  In  In57  1  0.18026653  -0.01285954  0.83200426  1
  In  In58  1  0.33469361  -0.01080293  0.66744983  1
  In  In59  1  0.67232071  0.67409362  0.31732608  1
  In  In60  1  0.51309865  0.85495436  0.01812321  1
  In  In61  1  0.51645561  0.50568664  -0.01390174  1
  In  In62  1  0.81841622  0.35671991  0.82564953  1
  In  In63  1  -0.01126720  0.15237859  0.82632194  1
  In  In64  1  0.34078734  0.31539748  0.00692729  1
  In  In65  1  0.00882062  0.68051539  0.67405018  1
  In  In66  1  0.68620417  0.50317902  0.16557798  1
  In  In67  1  0.68550913  0.01216328  0.33102410  1
  In  In68  1  0.50524306  0.52144707  0.33193642  1
  In  In69  1  0.82526179  -0.01426446  0.84184789  1
  In  In70  1  0.51879947  0.82822685  0.32184633  1
  In  In71  1  0.31720943  0.80684031  0.53711372  1
  Te  Te72  1  0.05716866  0.06868043  0.08560581  1
  Te  Te73  1  0.07058687  0.03614808  0.40202482  1
  Te  Te74  1  0.08198582  0.06571858  0.74250798  1
  Te  Te75  1  0.06433148  0.41194734  0.09165123  1
  Te  Te76  1  0.07250863  0.41210414  0.41888420  1
  Te  Te77  1  0.09263052  0.42976573  0.72109529  1
  Te  Te78  1  0.06052993  0.76977251  0.10397052  1
  Te  Te79  1  0.05655483  0.76143286  0.45791328  1
  Te  Te80  1  0.09885810  0.79617047  0.71913616  1
  Te  Te81  1  0.43208406  0.07035281  0.07795321  1
  Te  Te82  1  0.40783223  0.07597574  0.41625665  1
  Te  Te83  1  0.41522209  0.08802815  0.75137321  1
  Te  Te84  1  0.41697378  0.42469341  0.08665746  1
  Te  Te85  1  0.41718828  0.41904877  0.40689715  1
  Te  Te86  1  0.44008184  0.43313399  0.73788363  1
  Te  Te87  1  0.42513530  0.74635743  0.06719874  1
  Te  Te88  1  0.41691243  0.75203300  0.41813434  1
  Te  Te89  1  0.40529863  0.72633888  0.74356464  1
  Te  Te90  1  0.75966080  0.08210645  0.08538118  1
  Te  Te91  1  0.78350695  0.06479247  0.43520113  1
  Te  Te92  1  0.75813603  0.09805522  0.75981042  1
  Te  Te93  1  0.74580660  0.40712796  0.07005817  1
  Te  Te94  1  0.76181206  0.45959463  0.42678272  1
  Te  Te95  1  0.74352843  0.44437211  0.72727282  1
  Te  Te96  1  0.78693119  0.77657121  0.08499185  1
  Te  Te97  1  0.76113703  0.73942921  0.42525340  1
  Te  Te98  1  0.74850303  0.74143064  0.73922789  1
  Te  Te99  1  0.11287224  0.22815402  0.26587356  1
  Te  Te100  1  0.05658425  0.25239070  0.58566893  1
  Te  Te101  1  0.08630515  0.24192168  0.91721711  1
  Te  Te102  1  0.09134386  0.57936275  0.25887580  1
  Te  Te103  1  0.09865168  0.59299103  0.58997166  1
  Te  Te104  1  0.07199564  0.59389542  0.91138623  1
  Te  Te105  1  0.04476523  0.90678579  0.25752537  1
  Te  Te106  1  0.03980976  0.97609383  0.53798511  1
  Te  Te107  1  0.07566434  0.92874851  0.92754024  1
  Te  Te108  1  0.39513924  0.24281785  0.24853412  1
  Te  Te109  1  0.41026699  0.25625899  0.56725522  1
  Te  Te110  1  0.42158261  0.24706268  0.90024537  1
  Te  Te111  1  0.44230925  0.61571404  0.22932766  1
  Te  Te112  1  0.42703038  0.58360747  0.60555857  1
  Te  Te113  1  0.41563647  0.58969487  0.90945817  1
  Te  Te114  1  0.42091510  0.91633233  0.23994542  1
  Te  Te115  1  0.42376247  0.91457700  0.56824204  1
  Te  Te116  1  0.41365237  0.89183634  0.89794585  1
  Te  Te117  1  0.73754617  0.24595849  0.26263823  1
  Te  Te118  1  0.72990963  0.26190403  0.59600131  1
  Te  Te119  1  0.74699549  0.24893775  0.89839998  1
  Te  Te120  1  0.77337823  0.59271685  0.24382917  1
  Te  Te121  1  0.73170072  0.55721645  0.61899946  1
  Te  Te122  1  0.72493848  0.57244222  0.92049731  1
  Te  Te123  1  0.74094627  0.89492191  0.25381930  1
  Te  Te124  1  0.76236594  0.91518463  0.57465663  1
  Te  Te125  1  0.73389155  0.92350415  0.94165875  1
  Te  Te126  1  0.22455928  0.26270527  0.08993533  1
  Te  Te127  1  0.19664227  0.22023844  0.40042162  1
  Te  Te128  1  0.25455232  0.24222894  0.75445228  1
  Te  Te129  1  0.26113471  0.59193054  0.07144778  1
  Te  Te130  1  0.22767545  0.61865702  0.43870771  1
  Te  Te131  1  0.24395958  0.58931627  0.72985286  1
  Te  Te132  1  0.24247699  0.91547307  0.08140371  1
  Te  Te133  1  0.24095862  0.90289789  0.44073399  1
  Te  Te134  1  0.25382536  0.89166946  0.74481988  1
  Te  Te135  1  0.60030852  0.27742992  0.05284625  1
  Te  Te136  1  0.57406113  0.24499368  0.41167668  1
  Te  Te137  1  0.60198001  0.25832388  0.74987711  1
  Te  Te138  1  0.59020940  0.59265735  0.08744856  1
  Te  Te139  1  0.60522797  0.58048687  0.42687141  1
  Te  Te140  1  0.62068520  0.56826538  0.73011130  1
  Te  Te141  1  0.58002070  0.94321217  0.11245390  1
  Te  Te142  1  0.57661051  0.93810779  0.41193352  1
  Te  Te143  1  0.58538956  0.92058372  0.74153725  1
  Te  Te144  1  0.92958343  0.23429789  0.10974601  1
  Te  Te145  1  0.90479746  0.25316315  0.42877827  1
  Te  Te146  1  0.92919417  0.27216881  0.75506595  1
  Te  Te147  1  0.88401815  0.58496645  0.08135893  1
  Te  Te148  1  0.89821884  0.58183594  0.41667569  1
  Te  Te149  1  0.91132285  0.57981815  0.73623106  1
  Te  Te150  1  0.88927338  0.88486046  0.06800260  1
  Te  Te151  1  0.94602749  0.92798705  0.41894845  1
  Te  Te152  1  0.92782399  0.92190619  0.74871362  1
  Te  Te153  1  0.23980627  0.08156233  0.25299649  1
  Te  Te154  1  0.23542024  0.06560560  0.57694446  1
  Te  Te155  1  0.26219816  0.09256838  0.90770885  1
  Te  Te156  1  0.23524967  0.41188412  0.24081655  1
  Te  Te157  1  0.25169018  0.42868814  0.58310617  1
  Te  Te158  1  0.24869321  0.41636648  0.92190824  1
  Te  Te159  1  0.24147748  0.75278285  0.26387869  1
  Te  Te160  1  0.23855618  0.69476605  0.59288793  1
  Te  Te161  1  0.25493491  0.74036840  0.91510179  1
  Te  Te162  1  0.58014593  0.05916761  0.22012196  1
  Te  Te163  1  0.57795377  0.08052128  0.57335801  1
  Te  Te164  1  0.60958072  0.07927714  0.91409251  1
  Te  Te165  1  0.58056844  0.40821211  0.25225995  1
  Te  Te166  1  0.61699700  0.45014540  0.60227333  1
  Te  Te167  1  0.62100747  0.44102534  0.90218343  1
  Te  Te168  1  0.59879815  0.75882947  0.21957454  1
  Te  Te169  1  0.60450531  0.74682205  0.59405753  1
  Te  Te170  1  0.58086625  0.74378051  0.91399296  1
  Te  Te171  1  0.93813652  0.06514436  0.25075562  1
  Te  Te172  1  0.91481822  0.06952179  0.60060325  1
  Te  Te173  1  0.91839566  0.07072339  0.93171578  1
  Te  Te174  1  0.90809929  0.42005102  0.27042236  1
  Te  Te175  1  0.92421590  0.42387715  0.60758793  1
  Te  Te176  1  0.90237000  0.43602054  0.92976590  1
  Te  Te177  1  0.91144705  0.74409963  0.24530045  1
  Te  Te178  1  0.92872749  0.74509719  0.56278924  1
  Te  Te179  1  0.89366379  0.76188845  0.91806295  1
