# generated using pymatgen
data_In2Te3
_symmetry_space_group_name_H-M   'P 1'
_cell_length_a   18.93245232
_cell_length_b   18.91873109
_cell_length_c   18.92877334
_cell_angle_alpha   90.07020494
_cell_angle_beta   89.93152178
_cell_angle_gamma   90.02701864
_symmetry_Int_Tables_number   1
_chemical_formula_structural   In2Te3
_chemical_formula_sum   'In72 Te108'
_cell_volume   6779.85901008
_cell_formula_units_Z   36
loop_
 _symmetry_equiv_pos_site_id
 _symmetry_equiv_pos_as_xyz
  1  'x, y, z'
loop_
 _atom_site_type_symbol
 _atom_site_label
 _atom_site_symmetry_multiplicity
 _atom_site_fract_x
 _atom_site_fract_y
 _atom_site_fract_z
 _atom_site_occupancy
  In  In0  1  -0.00380971  0.66945026  0.30314569  1
  In  In1  1  0.50914808  0.52491764  0.32647394  1
  In  In2  1  0.68594611  0.33193307  0.35066494  1
  In  In3  1  -0.00606011  -0.02722418  0.35352941  1
  In  In4  1  0.33744537  0.34168451  0.01325505  1
  In  In5  1  0.01411659  0.81891295  0.83582835  1
  In  In6  1  0.83328342  0.18991933  0.00807664  1
  In  In7  1  0.17339347  0.52313476  0.01671665  1
  In  In8  1  0.00779622  0.67605265  0.02229023  1
  In  In9  1  0.34021189  0.17948966  0.16640288  1
  In  In10  1  -0.00847411  0.03365792  0.66936368  1
  In  In11  1  0.19129501  0.18179487  0.64259762  1
  In  In12  1  0.82238629  -0.01146605  0.83599524  1
  In  In13  1  0.31836116  0.65776071  0.67483485  1
  In  In14  1  0.16250799  0.32812791  0.83137602  1
  In  In15  1  0.34999748  0.80758391  0.15918135  1
  In  In16  1  0.68003773  0.67087965  0.33017231  1
  In  In17  1  0.84395660  0.34634310  0.48889373  1
  In  In18  1  -0.00413694  0.15698146  0.53048778  1
  In  In19  1  -0.02509409  0.18386116  0.12887298  1
  In  In20  1  -0.02021149  0.35303460  0.29563674  1
  In  In21  1  0.48848402  0.00644558  0.51407110  1
  In  In22  1  0.51406463  0.36908782  0.85321862  1
  In  In23  1  0.18195114  -0.01491518  0.51206973  1
  In  In24  1  0.38024940  -0.04199323  -0.02510099  1
  In  In25  1  0.16726229  0.15382856  -0.02119924  1
  In  In26  1  -0.00815425  0.52643887  0.47421157  1
  In  In27  1  -0.01010356  0.80011323  0.49445132  1
  In  In28  1  0.64888596  0.00407631  0.30934793  1
  In  In29  1  0.64817170  -0.00081113  -0.00099500  1
  In  In30  1  0.52459876  0.81081791  0.68219495  1
  In  In31  1  -0.02065201  0.51404645  0.15810328  1
  In  In32  1  0.66038135  0.32777751  0.65068189  1
  In  In33  1  -0.00085477  0.16964825  0.83139799  1
  In  In34  1  0.33920267  0.65296982  0.31881053  1
  In  In35  1  0.68320660  0.50877286  0.15484381  1
  In  In36  1  0.66094559  0.18760404  0.17137202  1
  In  In37  1  0.31419124  -0.00018972  0.68421277  1
  In  In38  1  -0.00933103  -0.03704676  0.00924869  1
  In  In39  1  0.82617544  0.50991210  0.65373400  1
  In  In40  1  -0.01672869  0.67074903  0.67556410  1
  In  In41  1  0.50682470  0.49691756  0.66300052  1
  In  In42  1  0.33109405  0.00505810  0.34111967  1
  In  In43  1  0.82632868  0.64475005  0.85054230  1
  In  In44  1  0.31408975  0.68542100  -0.01320533  1
  In  In45  1  0.66673868  0.83249493  0.82732466  1
  In  In46  1  0.15646015  0.34474864  0.48284304  1
  In  In47  1  0.49423875  0.34968028  0.15498381  1
  In  In48  1  0.17079935  -0.02709003  0.16470936  1
  In  In49  1  0.82085549  0.85038549  0.64152647  1
  In  In50  1  0.49384671  0.16419033  -0.00262373  1
  In  In51  1  0.52988751  -0.00401061  0.18369463  1
  In  In52  1  0.84397698  0.15222607  0.68007956  1
  In  In53  1  0.16855337  0.50104539  0.69563182  1
  In  In54  1  0.49498261  0.63422026  0.84337578  1
  In  In55  1  0.14617375  0.84399581  0.68863912  1
  In  In56  1  0.47755452  0.17807542  0.67320597  1
  In  In57  1  0.82929784  -0.00828889  0.18966761  1
  In  In58  1  0.67015265  0.63977165  -0.00275515  1
  In  In59  1  0.83650188  0.17170265  0.33202632  1
  In  In60  1  0.66286288  0.15459267  0.48955260  1
  In  In61  1  0.20254938  0.37239115  0.19568363  1
  In  In62  1  0.67608814  0.80376106  0.14660213  1
  In  In63  1  0.66716030  0.65867957  0.65785494  1
  In  In64  1  0.35114364  0.51611555  0.50097746  1
  In  In65  1  0.82163480  0.32969301  0.84968023  1
  In  In66  1  0.15732036  0.19310796  0.34009936  1
  In  In67  1  0.34232971  0.84722498  0.48444603  1
  In  In68  1  0.18777196  0.66288976  0.49693773  1
  In  In69  1  0.15970592  -0.00620831  0.86561125  1
  In  In70  1  0.52285397  0.81040495  0.33092858  1
  In  In71  1  0.33453326  0.33530500  0.67471562  1
  Te  Te72  1  0.08342299  0.07037812  0.07668233  1
  Te  Te73  1  0.08848452  0.07967395  0.43093077  1
  Te  Te74  1  0.11007823  0.08579780  0.74883917  1
  Te  Te75  1  0.09529096  0.42479489  0.10274770  1
  Te  Te76  1  0.07316494  0.42973884  0.38858023  1
  Te  Te77  1  0.06920574  0.41640472  0.76086826  1
  Te  Te78  1  0.06130767  0.76933562  0.12616935  1
  Te  Te79  1  0.09514730  0.74072002  0.40628009  1
  Te  Te80  1  0.09992547  0.71843317  0.76110259  1
  Te  Te81  1  0.42229383  0.07079889  0.09717744  1
  Te  Te82  1  0.42478164  0.09115833  0.41267379  1
  Te  Te83  1  0.40247790  0.08607013  0.76182283  1
  Te  Te84  1  0.39936155  0.44784118  0.09603982  1
  Te  Te85  1  0.41441937  0.42762058  0.39787877  1
  Te  Te86  1  0.40978974  0.43396228  0.76146107  1
  Te  Te87  1  0.43067958  0.75286707  0.05112357  1
  Te  Te88  1  0.42179765  0.73787850  0.41963495  1
  Te  Te89  1  0.41785836  0.73732953  0.76101262  1
  Te  Te90  1  0.74457929  0.08175520  0.09820360  1
  Te  Te91  1  0.75389534  0.06728667  0.40267109  1
  Te  Te92  1  0.74384519  0.06378862  0.73897333  1
  Te  Te93  1  0.72845867  0.42801791  0.03484449  1
  Te  Te94  1  0.74672084  0.44003281  0.43251993  1
  Te  Te95  1  0.74860005  0.41175395  0.73999999  1
  Te  Te96  1  0.77277910  0.71140202  0.08022838  1
  Te  Te97  1  0.76518715  0.78093644  0.37986111  1
  Te  Te98  1  0.76575804  0.74511642  0.74882847  1
  Te  Te99  1  0.07651634  0.25496310  0.22783958  1
  Te  Te100  1  0.07917635  0.26821946  0.59396160  1
  Te  Te101  1  0.06735843  0.25826329  0.93283818  1
  Te  Te102  1  0.08645942  0.57107335  0.24158703  1
  Te  Te103  1  0.08620669  0.59181585  0.58576518  1
  Te  Te104  1  0.08033372  0.59266479  0.92634303  1
  Te  Te105  1  0.07093190  0.89997089  0.24774324  1
  Te  Te106  1  0.06388752  0.91363107  0.57929125  1
  Te  Te107  1  0.10199055  0.87639117  0.94778819  1
  Te  Te108  1  0.41217350  0.27252671  0.25220405  1
  Te  Te109  1  0.42367858  0.27456625  0.57568260  1
  Te  Te110  1  0.41681989  0.26286957  0.91197215  1
  Te  Te111  1  0.41497781  0.57102613  0.22056602  1
  Te  Te112  1  0.43347759  0.60871381  0.58829246  1
  Te  Te113  1  0.40209462  0.57411433  0.93882210  1
  Te  Te114  1  0.42161459  0.91036045  0.26027853  1
  Te  Te115  1  0.41455718  0.90248183  0.60729757  1
  Te  Te116  1  0.46691757  0.91557943  0.86661841  1
  Te  Te117  1  0.77012186  0.26909555  0.23749070  1
  Te  Te118  1  0.76904117  0.24151581  0.57150338  1
  Te  Te119  1  0.74226485  0.21443058  0.89713162  1
  Te  Te120  1  0.77034021  0.58020563  0.25238435  1
  Te  Te121  1  0.72591617  0.56389159  0.55890399  1
  Te  Te122  1  0.74390513  0.53407699  0.91374845  1
  Te  Te123  1  0.73937236  0.88510536  0.26083131  1
  Te  Te124  1  0.69607864  0.89358629  0.58213106  1
  Te  Te125  1  0.74869968  0.90221456  0.93609163  1
  Te  Te126  1  0.23422788  0.24867324  0.08205787  1
  Te  Te127  1  0.25616464  0.25030356  0.43021273  1
  Te  Te128  1  0.26259710  0.23521437  0.76497695  1
  Te  Te129  1  0.23033996  0.63213304  0.10062073  1
  Te  Te130  1  0.24247174  0.56074124  0.39959666  1
  Te  Te131  1  0.26325112  0.57302029  0.78052764  1
  Te  Te132  1  0.27128952  0.90919056  0.07438569  1
  Te  Te133  1  0.23232006  0.90142673  0.39502251  1
  Te  Te134  1  0.25484381  0.89254554  0.78656078  1
  Te  Te135  1  0.58599298  0.26418175  0.06567222  1
  Te  Te136  1  0.58337312  0.26075362  0.42859983  1
  Te  Te137  1  0.57306611  0.26556302  0.75824177  1
  Te  Te138  1  0.57384283  0.59208391  0.09955406  1
  Te  Te139  1  0.58624835  0.60398517  0.42304382  1
  Te  Te140  1  0.60283942  0.56597741  0.75840876  1
  Te  Te141  1  0.57292283  0.89421790  0.07929693  1
  Te  Te142  1  0.57482452  0.92433029  0.41639198  1
  Te  Te143  1  0.57743586  0.93091571  0.75717420  1
  Te  Te144  1  0.90166994  0.30557974  0.07595926  1
  Te  Te145  1  0.94217504  0.24837183  0.41180729  1
  Te  Te146  1  0.92197849  0.26322784  0.74392391  1
  Te  Te147  1  0.89027061  0.59625754  0.07070430  1
  Te  Te148  1  0.90172065  0.61784653  0.40517639  1
  Te  Te149  1  0.92161341  0.56399658  0.76376425  1
  Te  Te150  1  0.89257135  0.89405806  0.09549282  1
  Te  Te151  1  0.89246576  0.88291420  0.41451111  1
  Te  Te152  1  0.92899885  0.91101297  0.74773390  1
  Te  Te153  1  0.23564463  0.08834356  0.24960432  1
  Te  Te154  1  0.28058351  0.08773457  0.56406792  1
  Te  Te155  1  0.27875002  0.06736652  0.92623945  1
  Te  Te156  1  0.29049973  0.42014060  0.30180010  1
  Te  Te157  1  0.24897902  0.42919534  0.57969914  1
  Te  Te158  1  0.24190224  0.41765685  0.92399172  1
  Te  Te159  1  0.24607402  0.73500567  0.23634812  1
  Te  Te160  1  0.24523820  0.77183255  0.58795363  1
  Te  Te161  1  0.24885205  0.79081654  0.90483646  1
  Te  Te162  1  0.56271413  0.12270534  0.26502817  1
  Te  Te163  1  0.58153289  0.08966522  0.59971335  1
  Te  Te164  1  0.58264718  0.09006556  0.90598973  1
  Te  Te165  1  0.59911527  0.41509670  0.25133602  1
  Te  Te166  1  0.56551171  0.40231359  0.56605842  1
  Te  Te167  1  0.60345596  0.44452972  0.94511376  1
  Te  Te168  1  0.57317733  0.71987336  0.22181903  1
  Te  Te169  1  0.61108649  0.76724332  0.56626066  1
  Te  Te170  1  0.58785402  0.73595026  0.91277728  1
  Te  Te171  1  0.93665125  0.08304102  0.25023442  1
  Te  Te172  1  0.88786528  0.05603839  0.56261239  1
  Te  Te173  1  0.92190467  0.07461731  0.92149675  1
  Te  Te174  1  0.87859177  0.45025191  0.25112152  1
  Te  Te175  1  0.93337772  0.43084629  0.57727789  1
  Te  Te176  1  0.90234607  0.39744565  0.95063682  1
  Te  Te177  1  0.93798450  0.77052825  0.20857763  1
  Te  Te178  1  0.88322182  0.72771036  0.57675171  1
  Te  Te179  1  0.91034393  0.75046850  0.92006061  1
