# generated using pymatgen
data_In2Te3
_symmetry_space_group_name_H-M   'P 1'
_cell_length_a   18.99205842
_cell_length_b   18.99297107
_cell_length_c   18.99953178
_cell_angle_alpha   90.20520691
_cell_angle_beta   90.03260179
_cell_angle_gamma   90.34006744
_symmetry_Int_Tables_number   1
_chemical_formula_structural   In2Te3
_chemical_formula_sum   'In72 Te108'
_cell_volume   6853.26194545
_cell_formula_units_Z   36
loop_
 _symmetry_equiv_pos_site_id
 _symmetry_equiv_pos_as_xyz
  1  'x, y, z'
loop_
 _atom_site_type_symbol
 _atom_site_label
 _atom_site_symmetry_multiplicity
 _atom_site_fract_x
 _atom_site_fract_y
 _atom_site_fract_z
 _atom_site_occupancy
  In  In0  1  0.18102965  0.00195346  0.17702346  1
  In  In1  1  0.81674738  0.00260926  0.83664962  1
  In  In2  1  0.29502997  0.49042624  0.45493833  1
  In  In3  1  0.66847010  0.02249404  0.33143573  1
  In  In4  1  0.32140611  0.48231149  0.84729911  1
  In  In5  1  0.50346795  0.30374213  0.84118378  1
  In  In6  1  -0.01767078  0.47894659  0.82919607  1
  In  In7  1  0.86684588  0.51587937  0.34628639  1
  In  In8  1  0.65645046  0.65618877  -0.01252666  1
  In  In9  1  0.65856126  0.18116943  0.13558909  1
  In  In10  1  0.85617559  0.66758341  0.82559018  1
  In  In11  1  0.02726014  0.81273405  0.48413901  1
  In  In12  1  0.15976449  0.80756547  0.00773726  1
  In  In13  1  0.15433963  0.65843111  0.85058725  1
  In  In14  1  0.35065053  0.00459881  0.66833564  1
  In  In15  1  0.81758962  0.81826946  0.33380755  1
  In  In16  1  0.17543013  0.18534817  0.04033024  1
  In  In17  1  0.33153968  0.17860702  0.50713001  1
  In  In18  1  0.45416061  0.48065020  0.32296228  1
  In  In19  1  0.83544095  0.31684471  0.18187982  1
  In  In20  1  0.49444555  -0.00674879  0.12664751  1
  In  In21  1  0.01721197  0.63489657  0.01477798  1
  In  In22  1  0.47341015  0.66918429  0.50637132  1
  In  In23  1  0.80418529  0.30004548  0.85556941  1
  In  In24  1  0.03296893  0.15473640  0.84691968  1
  In  In25  1  0.67594947  0.84233849  0.49937910  1
  In  In26  1  0.49163228  0.51605537  0.64720988  1
  In  In27  1  0.67522669  0.18000720  0.51346419  1
  In  In28  1  0.85322481  0.34282083  0.47846013  1
  In  In29  1  0.82525139  0.49418753  -0.00283135  1
  In  In30  1  0.33254522  0.03541489  0.33916433  1
  In  In31  1  0.65051734  -0.01831605  0.68207362  1
  In  In32  1  0.67863040  0.65453832  0.66639131  1
  In  In33  1  0.02915387  0.67559807  0.64260436  1
  In  In34  1  0.49163984  0.16736555  -0.00739321  1
  In  In35  1  -0.01914574  0.83465060  0.83084696  1
  In  In36  1  -0.01514206  0.00475454  -0.00243512  1
  In  In37  1  0.49297805  0.83876529  0.67959426  1
  In  In38  1  0.31594676  0.80647755  0.19245376  1
  In  In39  1  0.52813966  0.18612657  0.34681116  1
  In  In40  1  0.50742890  0.15069076  0.67756898  1
  In  In41  1  0.81787654  0.02372297  0.15905422  1
  In  In42  1  0.14880000  0.35101843  0.47244062  1
  In  In43  1  0.85585722  0.15636737  0.66329048  1
  In  In44  1  0.31584892  0.83957420  0.51812829  1
  In  In45  1  0.02035900  0.19925382  0.19585035  1
  In  In46  1  0.03009795  0.66197700  0.33236722  1
  In  In47  1  0.49166064  0.65649650  0.15496277  1
  In  In48  1  0.83744375  0.67096901  0.14458166  1
  In  In49  1  0.00226904  0.32575925  0.65023940  1
  In  In50  1  0.18730639  0.31031885  0.84108949  1
  In  In51  1  0.33101216  0.32153377  0.68184724  1
  In  In52  1  0.65498526  0.67462625  0.35174186  1
  In  In53  1  0.65331706  0.82961384  0.82222351  1
  In  In54  1  0.33502084  0.67944817  0.01059853  1
  In  In55  1  0.15621514  0.51214322  0.65713003  1
  In  In56  1  0.49550772  0.48365343  -0.00522780  1
  In  In57  1  0.15626266  -0.00649150  0.48641224  1
  In  In58  1  0.46849659  0.70682679  0.81600006  1
  In  In59  1  0.00468160  0.00205764  0.33811174  1
  In  In60  1  0.48151428  0.83647901  0.33436268  1
  In  In61  1  0.00633457  0.84806899  0.15026883  1
  In  In62  1  0.27629639  0.49228690  0.19455866  1
  In  In63  1  0.46438743  0.33690811  0.17569783  1
  In  In64  1  0.66781463  0.50666360  0.50409979  1
  In  In65  1  0.66102856  0.47261135  0.78588742  1
  In  In66  1  0.69787654  0.47771799  0.18869471  1
  In  In67  1  0.63443339  0.86249566  0.13327916  1
  In  In68  1  0.81397999  0.01676453  0.50953847  1
  In  In69  1  0.34779123  0.00109295  -0.02828199  1
  In  In70  1  0.17911814  -0.00298339  0.82100079  1
  In  In71  1  0.01146765  0.19045462  0.48222015  1
  Te  Te72  1  0.07159114  0.07859145  0.09964144  1
  Te  Te73  1  0.10152274  0.10274541  0.39624725  1
  Te  Te74  1  0.07453857  0.06182905  0.74237001  1
  Te  Te75  1  0.13666782  0.48556754  0.13477547  1
  Te  Te76  1  0.05872836  0.40824109  0.36831986  1
  Te  Te77  1  0.09657301  0.40457232  0.75546831  1
  Te  Te78  1  0.08928401  0.72615936  0.11412431  1
  Te  Te79  1  0.13263599  0.74530723  0.40466051  1
  Te  Te80  1  0.08913132  0.75777178  0.75803730  1
  Te  Te81  1  0.39139411  0.09382648  0.08334628  1
  Te  Te82  1  0.43497763  0.09536328  0.43075992  1
  Te  Te83  1  0.39554900  0.10865973  0.76543912  1
  Te  Te84  1  0.39501996  0.44597646  0.09869683  1
  Te  Te85  1  0.41263470  0.40478495  0.43880379  1
  Te  Te86  1  0.42730427  0.42060082  0.75660929  1
  Te  Te87  1  0.42429367  0.77423064  0.08748201  1
  Te  Te88  1  0.38858425  0.74783004  0.41109994  1
  Te  Te89  1  0.37989449  0.73856492  0.69955193  1
  Te  Te90  1  0.76164079  0.11204820  0.05428360  1
  Te  Te91  1  0.76210662  0.11356668  0.40603495  1
  Te  Te92  1  0.74082132  0.09047190  0.73909584  1
  Te  Te93  1  0.74491859  0.39324467  0.07552261  1
  Te  Te94  1  0.75308681  0.43137683  0.40338397  1
  Te  Te95  1  0.78488390  0.40522615  0.75472667  1
  Te  Te96  1  0.73166181  0.75330812  0.07772982  1
  Te  Te97  1  0.76173791  0.73025844  0.44392034  1
  Te  Te98  1  0.76233430  0.75388993  0.74531525  1
  Te  Te99  1  0.11866202  0.30520196  0.24145581  1
  Te  Te100  1  0.10905740  0.24494682  0.58352239  1
  Te  Te101  1  0.08587430  0.25962089  0.94449379  1
  Te  Te102  1  0.09542883  0.53349047  0.28261080  1
  Te  Te103  1  0.08339823  0.57577151  0.54597878  1
  Te  Te104  1  0.08860049  0.54068087  0.92051183  1
  Te  Te105  1  0.09255918  0.90754728  0.25875083  1
  Te  Te106  1  0.09746465  0.89852373  0.57980829  1
  Te  Te107  1  0.08294520  0.91086915  0.92748687  1
  Te  Te108  1  0.41583546  0.23177223  0.26550251  1
  Te  Te109  1  0.43221956  0.25342417  0.59288136  1
  Te  Te110  1  0.40059002  0.27494613  0.94336721  1
  Te  Te111  1  0.39248198  0.59302950  0.24661828  1
  Te  Te112  1  0.37682502  0.56795721  0.56440891  1
  Te  Te113  1  0.42051069  0.58895477  0.91531757  1
  Te  Te114  1  0.40874612  0.93148881  0.24269865  1
  Te  Te115  1  0.43319855  0.92069856  0.56917906  1
  Te  Te116  1  0.40984073  0.91796346  0.87097755  1
  Te  Te117  1  0.72940809  0.24178739  0.24843571  1
  Te  Te118  1  0.77958955  0.26171039  0.58673909  1
  Te  Te119  1  0.70407547  0.20562913  0.91747357  1
  Te  Te120  1  0.75425665  0.60254217  0.25826785  1
  Te  Te121  1  0.76805738  0.57215832  0.58777499  1
  Te  Te122  1  0.75077376  0.58012086  0.89462116  1
  Te  Te123  1  0.73568645  0.91044825  0.24428362  1
  Te  Te124  1  0.76093807  0.91083777  0.60396337  1
  Te  Te125  1  0.74556395  0.89870167  0.91314463  1
  Te  Te126  1  0.23248931  0.28346222  0.13588859  1
  Te  Te127  1  0.25658734  0.26756533  0.41360267  1
  Te  Te128  1  0.26222127  0.21415256  0.75724569  1
  Te  Te129  1  0.24021922  0.59000507  0.07967296  1
  Te  Te130  1  0.22411869  0.58781787  0.36770228  1
  Te  Te131  1  0.24744661  0.58001080  0.75915639  1
  Te  Te132  1  0.25114718  0.90143336  0.08636811  1
  Te  Te133  1  0.25737820  0.92076672  0.40128396  1
  Te  Te134  1  0.27525676  0.90898603  0.75386797  1
  Te  Te135  1  0.56064340  0.27674161  0.07453795  1
  Te  Te136  1  0.59619246  0.27631829  0.43845833  1
  Te  Te137  1  0.59870956  0.24227899  0.74967491  1
  Te  Te138  1  0.59774735  0.56356553  0.09446143  1
  Te  Te139  1  0.55524039  0.57965874  0.41291208  1
  Te  Te140  1  0.57083999  0.60202392  0.75910792  1
  Te  Te141  1  0.59854817  0.95892933  0.02750231  1
  Te  Te142  1  0.58508401  0.92165534  0.40992148  1
  Te  Te143  1  0.54233250  0.93782246  0.78855902  1
  Te  Te144  1  0.93198126  0.25007259  0.09306580  1
  Te  Te145  1  0.92928171  0.25892536  0.38347716  1
  Te  Te146  1  0.93312232  0.24451709  0.75973821  1
  Te  Te147  1  0.92121762  0.55317905  0.10033568  1
  Te  Te148  1  0.94684309  0.59932101  0.43856281  1
  Te  Te149  1  0.93813185  0.58372902  0.73216655  1
  Te  Te150  1  0.89285238  0.91450878  0.07896498  1
  Te  Te151  1  0.89100196  0.92797522  0.40867228  1
  Te  Te152  1  0.92223805  0.94180476  0.75242019  1
  Te  Te153  1  0.24233042  0.11098612  0.25323324  1
  Te  Te154  1  0.24952109  0.07374629  0.57891267  1
  Te  Te155  1  0.23077598  0.08624572  0.93423021  1
  Te  Te156  1  0.26126196  0.36311288  0.27406114  1
  Te  Te157  1  0.24457473  0.40701511  0.59015816  1
  Te  Te158  1  0.26991575  0.38224342  0.94252486  1
  Te  Te159  1  0.23668763  0.71048442  0.27088047  1
  Te  Te160  1  0.26822826  0.72498059  0.59271624  1
  Te  Te161  1  0.25922715  0.75645814  0.90553817  1
  Te  Te162  1  0.57616170  0.07956155  0.22685308  1
  Te  Te163  1  0.59018766  0.07011073  0.57660485  1
  Te  Te164  1  0.59392797  0.09891958  0.91478880  1
  Te  Te165  1  0.57483134  0.41805327  0.25194648  1
  Te  Te166  1  0.59696304  0.42522248  0.60505787  1
  Te  Te167  1  0.59689859  0.41312672  0.90691091  1
  Te  Te168  1  0.57761240  0.75370800  0.24812451  1
  Te  Te169  1  0.58159118  0.74888003  0.58223418  1
  Te  Te170  1  0.56469373  0.75691795  0.92424412  1
  Te  Te171  1  0.91907639  0.08922163  0.24825873  1
  Te  Te172  1  0.94053304  0.08061943  0.56384993  1
  Te  Te173  1  0.90838687  0.10234550  0.91515056  1
  Te  Te174  1  0.92570069  0.40822680  0.26247763  1
  Te  Te175  1  0.94086781  0.42426090  0.56414781  1
  Te  Te176  1  0.90871803  0.38968404  0.92648083  1
  Te  Te177  1  0.92395987  0.74973392  0.25084421  1
  Te  Te178  1  0.92930164  0.76213878  0.57977832  1
  Te  Te179  1  0.93247153  0.73456000  0.93821911  1
