# generated using pymatgen
data_In2Te3
_symmetry_space_group_name_H-M   'P 1'
_cell_length_a   18.80308066
_cell_length_b   18.80590868
_cell_length_c   18.79752057
_cell_angle_alpha   90.02637132
_cell_angle_beta   89.92045017
_cell_angle_gamma   89.89347697
_symmetry_Int_Tables_number   1
_chemical_formula_structural   In2Te3
_chemical_formula_sum   'In72 Te108'
_cell_volume   6646.95418078
_cell_formula_units_Z   36
loop_
 _symmetry_equiv_pos_site_id
 _symmetry_equiv_pos_as_xyz
  1  'x, y, z'
loop_
 _atom_site_type_symbol
 _atom_site_label
 _atom_site_symmetry_multiplicity
 _atom_site_fract_x
 _atom_site_fract_y
 _atom_site_fract_z
 _atom_site_occupancy
  In  In0  1  0.12633803  0.85408874  -0.01654506  1
  In  In1  1  0.68147829  0.67463787  0.01439257  1
  In  In2  1  0.49240694  0.01043660  0.19588972  1
  In  In3  1  0.84129073  0.18418954  0.32327431  1
  In  In4  1  0.48862124  -0.01365492  0.51735552  1
  In  In5  1  0.87234372  0.01218128  0.50830130  1
  In  In6  1  0.51665916  0.33582637  0.50268591  1
  In  In7  1  0.32686324  0.31971434  0.69958145  1
  In  In8  1  0.00705787  0.67302276  0.00984966  1
  In  In9  1  0.85357934  0.32184976  0.15289906  1
  In  In10  1  0.67173317  0.65522606  0.34380189  1
  In  In11  1  0.67783262  -0.00767940  0.30852685  1
  In  In12  1  0.50196045  0.16879792  0.69726401  1
  In  In13  1  0.14853120  0.17400441  0.33315734  1
  In  In14  1  0.82314616  0.82936167  0.66685751  1
  In  In15  1  0.68461090  0.50075836  0.18099273  1
  In  In16  1  0.30659108  0.18392353  0.17009106  1
  In  In17  1  0.17129065  0.47975927  0.00668025  1
  In  In18  1  0.83346777  0.49558670  0.66108492  1
  In  In19  1  0.49472647  -0.01221177  0.81585291  1
  In  In20  1  0.66741287  0.02160914  0.68388697  1
  In  In21  1  0.66635726  0.82207288  0.51057861  1
  In  In22  1  0.28877429  0.17342675  0.85711448  1
  In  In23  1  0.15467496  0.50335956  0.67112312  1
  In  In24  1  -0.01063380  0.48251480  0.82763483  1
  In  In25  1  0.32769628  0.50478511  0.50259659  1
  In  In26  1  0.32672649  0.66310187  0.33792555  1
  In  In27  1  -0.00089008  0.83082025  0.50288380  1
  In  In28  1  0.84278507  0.34225436  0.49617584  1
  In  In29  1  0.67048484  0.49798717  0.49376011  1
  In  In30  1  0.31776370  0.32871478  -0.00257218  1
  In  In31  1  0.30840032  0.50458986  0.17268328  1
  In  In32  1  0.70053764  0.01920515  -0.00959584  1
  In  In33  1  0.01434894  -0.00294876  0.33916828  1
  In  In34  1  0.87409914  0.03163888  0.12964092  1
  In  In35  1  0.49125426  0.49700789  -0.01499632  1
  In  In36  1  0.53082177  0.16360238  0.33904843  1
  In  In37  1  0.32422775  0.14649291  0.51391593  1
  In  In38  1  0.83444944  0.67910568  0.83035022  1
  In  In39  1  0.00190154  0.01815126  0.67993982  1
  In  In40  1  0.70089488  0.16276601  0.85383351  1
  In  In41  1  0.16933100  0.65373879  0.50528696  1
  In  In42  1  0.69280138  0.18555559  0.50130176  1
  In  In43  1  0.29624572  0.00789407  0.33197640  1
  In  In44  1  0.32949283  0.34914663  0.31828513  1
  In  In45  1  0.14121500  0.32946615  0.50029031  1
  In  In46  1  0.15023767  0.82493174  0.66428284  1
  In  In47  1  0.50266616  0.83103901  0.64913025  1
  In  In48  1  0.53055487  0.34036413  0.16827371  1
  In  In49  1  0.16566932  0.67247416  0.81888911  1
  In  In50  1  0.49667825  0.80241849  0.34892563  1
  In  In51  1  0.51410358  0.81443295  0.02461258  1
  In  In52  1  0.67194785  0.48367477  0.82955973  1
  In  In53  1  0.49360321  0.67696421  0.18150779  1
  In  In54  1  -0.02153024  0.65931356  0.30794489  1
  In  In55  1  0.84202122  0.65592527  0.48351025  1
  In  In56  1  0.86637793  0.47865796  0.00017778  1
  In  In57  1  0.32450226  0.83472286  0.14291330  1
  In  In58  1  0.00028887  0.33430392  0.33350866  1
  In  In59  1  0.29545356  -0.00352534  0.66126154  1
  In  In60  1  0.85350914  0.86063588  -0.00150397  1
  In  In61  1  0.49377084  0.65060548  0.85156816  1
  In  In62  1  0.31795676  0.82511015  0.82312975  1
  In  In63  1  0.49747570  0.17288492  0.01816316  1
  In  In64  1  0.69298885  0.85782338  0.13968101  1
  In  In65  1  0.86421937  0.00413962  0.85849005  1
  In  In66  1  0.16423284  0.84482798  0.32168224  1
  In  In67  1  0.31301454  -0.00820495  -0.01979325  1
  In  In68  1  0.51249265  0.33899416  0.81754055  1
  In  In69  1  0.49580745  0.49199748  0.64809606  1
  In  In70  1  0.01824174  0.48461879  0.17212948  1
  In  In71  1  -0.01405865  0.32234791  0.68389471  1
  Te  Te72  1  0.04000096  0.10666147  0.06098472  1
  Te  Te73  1  0.09321645  0.08008489  0.43197454  1
  Te  Te74  1  0.06136191  0.08783367  0.79760293  1
  Te  Te75  1  0.05956506  0.39670533  0.05865458  1
  Te  Te76  1  0.08194976  0.43097765  0.41290013  1
  Te  Te77  1  0.09768247  0.39544026  0.76336143  1
  Te  Te78  1  0.07771769  0.76942017  0.09752571  1
  Te  Te79  1  0.08152218  0.74486574  0.40759567  1
  Te  Te80  1  0.05972288  0.75240430  0.75501717  1
  Te  Te81  1  0.39875115  0.07637440  0.08683195  1
  Te  Te82  1  0.42164699  0.07832733  0.40612876  1
  Te  Te83  1  0.38815495  0.07920540  0.75373353  1
  Te  Te84  1  0.41102780  0.40855083  0.08874450  1
  Te  Te85  1  0.42398676  0.42000689  0.41590989  1
  Te  Te86  1  0.40838155  0.43307482  0.76078660  1
  Te  Te87  1  0.40060007  0.72301215  0.06909148  1
  Te  Te88  1  0.39928985  0.74187071  0.43985464  1
  Te  Te89  1  0.42381067  0.74547487  0.75068658  1
  Te  Te90  1  0.76294478  0.11714504  0.07907382  1
  Te  Te91  1  0.75691751  0.07700307  0.41146630  1
  Te  Te92  1  0.78437940  0.08698162  0.74967493  1
  Te  Te93  1  0.75185253  0.41301369  0.07609614  1
  Te  Te94  1  0.76586610  0.42908567  0.40474217  1
  Te  Te95  1  0.77462331  0.40148059  0.76099682  1
  Te  Te96  1  0.79172532  0.74654430  0.09146255  1
  Te  Te97  1  0.76018290  0.76288414  0.40732911  1
  Te  Te98  1  0.73358985  0.73804806  0.74023641  1
  Te  Te99  1  0.10020302  0.27607775  0.23692511  1
  Te  Te100  1  0.07694176  0.23887003  0.59742207  1
  Te  Te101  1  0.04966826  0.20162643  0.94455584  1
  Te  Te102  1  0.09197273  0.59540940  0.23614608  1
  Te  Te103  1  0.06644856  0.57959592  0.58119963  1
  Te  Te104  1  0.07789832  0.57596292  0.91180745  1
  Te  Te105  1  0.05875061  0.90180550  0.23282841  1
  Te  Te106  1  0.08247787  0.93082019  0.57803090  1
  Te  Te107  1  0.08508889  0.95659456  0.87894208  1
  Te  Te108  1  0.42626127  0.24124382  0.24835339  1
  Te  Te109  1  0.42057403  0.24957312  0.58677592  1
  Te  Te110  1  0.42380209  0.24339008  0.90313325  1
  Te  Te111  1  0.41946281  0.56957879  0.25805631  1
  Te  Te112  1  0.41205975  0.59482234  0.58329703  1
  Te  Te113  1  0.38626138  0.57636084  0.92010956  1
  Te  Te114  1  0.40768850  0.89884266  0.25751602  1
  Te  Te115  1  0.38175038  0.89977565  0.58099972  1
  Te  Te116  1  0.42357638  0.89987897  0.92229048  1
  Te  Te117  1  0.75043784  0.27126347  0.24839846  1
  Te  Te118  1  0.77058330  0.26102223  0.59856057  1
  Te  Te119  1  0.79438311  0.26177226  0.91155151  1
  Te  Te120  1  0.77274553  0.60291118  0.24605614  1
  Te  Te121  1  0.74562994  0.59484990  0.58627072  1
  Te  Te122  1  0.76076764  0.57517827  0.92618491  1
  Te  Te123  1  0.79068084  0.93437289  0.22626570  1
  Te  Te124  1  0.74699916  0.93683618  0.57489517  1
  Te  Te125  1  0.74534487  0.90742551  0.90117913  1
  Te  Te126  1  0.22098121  0.24145847  0.06589483  1
  Te  Te127  1  0.26258249  0.24913875  0.41591502  1
  Te  Te128  1  0.21585474  0.23317054  0.74421125  1
  Te  Te129  1  0.22811063  0.59125092  0.08615960  1
  Te  Te130  1  0.23111637  0.56018676  0.39842207  1
  Te  Te131  1  0.25594412  0.59272599  0.73239337  1
  Te  Te132  1  0.22108272  0.92848591  0.08504795  1
  Te  Te133  1  0.24344593  0.91164931  0.42792018  1
  Te  Te134  1  0.21712989  0.92612660  0.77128122  1
  Te  Te135  1  0.60587419  0.25433051  0.07406668  1
  Te  Te136  1  0.61441044  0.27351613  0.40266767  1
  Te  Te137  1  0.61623069  0.24916947  0.75120724  1
  Te  Te138  1  0.57914436  0.58429895  0.08357757  1
  Te  Te139  1  0.57227212  0.59040857  0.42933501  1
  Te  Te140  1  0.58127456  0.57477918  0.75068483  1
  Te  Te141  1  0.57801751  0.94315776  0.07884175  1
  Te  Te142  1  0.58214916  0.92348027  0.40748279  1
  Te  Te143  1  0.59899328  0.90100989  0.74683760  1
  Te  Te144  1  0.96036340  0.24110300  0.08697744  1
  Te  Te145  1  0.93439400  0.23677012  0.43043432  1
  Te  Te146  1  0.89385226  0.26745126  0.79005631  1
  Te  Te147  1  0.92005702  0.58192936  0.09479961  1
  Te  Te148  1  0.93260373  0.56391552  0.41249265  1
  Te  Te149  1  0.92319179  0.59005895  0.74269595  1
  Te  Te150  1  0.96321901  0.91870126  0.08091561  1
  Te  Te151  1  0.90818750  0.90602517  0.40623953  1
  Te  Te152  1  0.92070903  0.90747825  0.75140034  1
  Te  Te153  1  0.21275801  0.07671710  0.22785396  1
  Te  Te154  1  0.20964582  0.09597331  0.59235728  1
  Te  Te155  1  0.20109425  0.07960459  0.93363300  1
  Te  Te156  1  0.22140562  0.39484748  0.22752445  1
  Te  Te157  1  0.25450520  0.39985064  0.58758026  1
  Te  Te158  1  0.24455369  0.40867775  0.89799578  1
  Te  Te159  1  0.24584398  0.74469854  0.23812891  1
  Te  Te160  1  0.24827253  0.73070686  0.60507606  1
  Te  Te161  1  0.23333254  0.75629351  0.92856082  1
  Te  Te162  1  0.61198913  0.10205480  0.22467779  1
  Te  Te163  1  0.57825342  0.09686025  0.57638857  1
  Te  Te164  1  0.57466565  0.08186210  0.90626020  1
  Te  Te165  1  0.58122245  0.43807038  0.26530797  1
  Te  Te166  1  0.61056704  0.40304550  0.60076081  1
  Te  Te167  1  0.59519829  0.39854211  0.93126668  1
  Te  Te168  1  0.60410890  0.76952987  0.23481232  1
  Te  Te169  1  0.57131495  0.72672892  0.56822291  1
  Te  Te170  1  0.59604234  0.75047148  0.91367407  1
  Te  Te171  1  0.94347296  0.10017083  0.24922866  1
  Te  Te172  1  0.91902031  0.11513050  0.60214035  1
  Te  Te173  1  0.92321677  0.10666982  0.95100161  1
  Te  Te174  1  0.90473998  0.42361793  0.25513645  1
  Te  Te175  1  0.94144861  0.42643947  0.57914659  1
  Te  Te176  1  0.92630490  0.37182777  0.91177876  1
  Te  Te177  1  0.87760880  0.73313673  0.22883125  1
  Te  Te178  1  0.91850315  0.73755786  0.59023060  1
  Te  Te179  1  0.93352727  0.76344239  0.90977779  1
