# generated using pymatgen
data_In2Te3
_symmetry_space_group_name_H-M   'P 1'
_cell_length_a   18.99238113
_cell_length_b   18.97163387
_cell_length_c   18.94567856
_cell_angle_alpha   89.91745561
_cell_angle_beta   90.16762283
_cell_angle_gamma   90.14575162
_symmetry_Int_Tables_number   1
_chemical_formula_structural   In2Te3
_chemical_formula_sum   'In72 Te108'
_cell_volume   6826.38229775
_cell_formula_units_Z   36
loop_
 _symmetry_equiv_pos_site_id
 _symmetry_equiv_pos_as_xyz
  1  'x, y, z'
loop_
 _atom_site_type_symbol
 _atom_site_label
 _atom_site_symmetry_multiplicity
 _atom_site_fract_x
 _atom_site_fract_y
 _atom_site_fract_z
 _atom_site_occupancy
  In  In0  1  0.49645995  -0.01623543  0.19610543  1
  In  In1  1  0.51722949  0.33243532  0.48519617  1
  In  In2  1  0.02481799  0.86016844  0.17637664  1
  In  In3  1  0.65458252  -0.00741590  0.34632512  1
  In  In4  1  0.64582651  0.67013323  -0.03828003  1
  In  In5  1  0.12988444  0.15330332  -0.00430355  1
  In  In6  1  0.02057964  0.82358559  0.81497712  1
  In  In7  1  0.02491753  0.33100104  0.36244346  1
  In  In8  1  0.50646817  0.16633712  0.04752906  1
  In  In9  1  0.34565548  0.83105288  0.82407988  1
  In  In10  1  0.87254499  0.47307170  0.36656570  1
  In  In11  1  0.16594379  0.66090047  0.16603925  1
  In  In12  1  0.32176376  0.33743660  0.66228708  1
  In  In13  1  -0.01805755  0.00094367  0.66166225  1
  In  In14  1  0.83981474  0.84418495  -0.00489835  1
  In  In15  1  0.29793689  0.84909980  0.48298188  1
  In  In16  1  -0.00125431  0.83559587  0.48844266  1
  In  In17  1  0.03125933  0.68232322  0.33312004  1
  In  In18  1  0.49505390  0.52369769  0.34061348  1
  In  In19  1  0.83698944  0.02712872  0.18132613  1
  In  In20  1  0.49516474  0.13712966  0.64977268  1
  In  In21  1  0.31423415  0.01296469  -0.00077883  1
  In  In22  1  0.49429373  0.32069412  0.87980652  1
  In  In23  1  0.66035476  0.33036352  0.03477773  1
  In  In24  1  0.31263486  0.45136473  0.17660300  1
  In  In25  1  0.18924762  0.01649619  0.21067534  1
  In  In26  1  0.68805223  0.00030684  0.03491149  1
  In  In27  1  -0.00348003  0.16089576  0.18008051  1
  In  In28  1  0.67568496  0.47694603  0.82107322  1
  In  In29  1  0.85328100  0.17424001  0.64877514  1
  In  In30  1  0.30592645  0.46461966  0.49581425  1
  In  In31  1  0.68997273  -0.00361477  0.63879345  1
  In  In32  1  0.67807238  0.15696495  0.82409144  1
  In  In33  1  0.69769753  0.30875304  0.32301981  1
  In  In34  1  0.49869001  0.68082779  0.50948543  1
  In  In35  1  0.16057551  0.30936228  0.18434859  1
  In  In36  1  0.83011527  0.82278419  0.34843483  1
  In  In37  1  0.68158553  0.49579667  0.17919097  1
  In  In38  1  0.30849067  0.64579390  0.35379519  1
  In  In39  1  0.35160411  0.83009150  0.19382618  1
  In  In40  1  0.17028174  0.32393282  0.83941063  1
  In  In41  1  0.30360799  0.01248659  0.63553259  1
  In  In42  1  0.64493489  0.34247741  0.68720950  1
  In  In43  1  0.31789648  0.70185735  0.00717004  1
  In  In44  1  0.86245869  0.33516223  0.51751711  1
  In  In45  1  0.85189825  0.14909075  -0.00835145  1
  In  In46  1  0.46697694  0.52130545  0.00247149  1
  In  In47  1  0.69716087  0.68580485  0.66452356  1
  In  In48  1  0.48418499  0.49437574  0.66159393  1
  In  In49  1  0.31345422  0.17188617  0.41907781  1
  In  In50  1  0.12623423  0.00991238  0.81310605  1
  In  In51  1  0.30539547  0.50572335  0.82434963  1
  In  In52  1  0.01996822  0.17318490  0.49818285  1
  In  In53  1  0.17316043  0.82590351  0.65484782  1
  In  In54  1  0.35154672  0.31932123  0.05677701  1
  In  In55  1  0.17745484  0.64728930  0.77846421  1
  In  In56  1  0.66082708  0.81388157  0.16736790  1
  In  In57  1  0.85139127  0.69189739  0.81105211  1
  In  In58  1  0.48151881  0.85879056  0.68309959  1
  In  In59  1  0.49818308  0.01389852  0.84542432  1
  In  In60  1  0.67806913  0.16768369  0.47679770  1
  In  In61  1  0.83915932  0.32049486  0.81359329  1
  In  In62  1  0.82498749  0.49226766  0.00613973  1
  In  In63  1  0.49913972  0.68859229  0.80821645  1
  In  In64  1  0.84987694  0.65290084  0.15372745  1
  In  In65  1  0.51807706  0.66287711  0.18979454  1
  In  In66  1  0.15448622  0.49143177  -0.02652673  1
  In  In67  1  -0.00161702  0.51327372  0.78336567  1
  In  In68  1  0.83008550  0.68945968  0.49396310  1
  In  In69  1  0.68956946  0.70061362  0.33220115  1
  In  In70  1  0.15897600  0.85575507  -0.00939209  1
  In  In71  1  0.01051854  0.33034056  -0.02001306  1
  Te  Te72  1  0.08612461  0.05999803  0.10647680  1
  Te  Te73  1  0.13472901  0.08347708  0.45719571  1
  Te  Te74  1  0.08863240  0.09998404  0.70082716  1
  Te  Te75  1  0.09328674  0.40569104  0.08198429  1
  Te  Te76  1  0.05871425  0.43517114  0.46615055  1
  Te  Te77  1  0.10447293  0.41602948  0.73957961  1
  Te  Te78  1  0.08415249  0.75755227  0.08034381  1
  Te  Te79  1  0.10340173  0.73701930  0.45094629  1
  Te  Te80  1  0.07007930  0.72680067  0.70766652  1
  Te  Te81  1  0.40480547  0.07112536  0.10694933  1
  Te  Te82  1  0.39931317  0.05397664  0.39193033  1
  Te  Te83  1  0.39923677  0.07189031  0.74629535  1
  Te  Te84  1  0.45260379  0.42481307  0.11590854  1
  Te  Te85  1  0.41639977  0.41080596  0.40377888  1
  Te  Te86  1  0.42409397  0.41453441  0.77610668  1
  Te  Te87  1  0.43261364  0.74914027  0.09161612  1
  Te  Te88  1  0.39877046  0.74932293  0.41911492  1
  Te  Te89  1  0.38971874  0.73663633  0.71557412  1
  Te  Te90  1  0.74470571  0.12912325  0.10145947  1
  Te  Te91  1  0.75859567  0.05615197  0.42865943  1
  Te  Te92  1  0.77381902  0.07911015  0.73995963  1
  Te  Te93  1  0.77375544  0.39655257  0.11241535  1
  Te  Te94  1  0.75684386  0.40258826  0.43355158  1
  Te  Te95  1  0.77163060  0.42243917  0.71949720  1
  Te  Te96  1  0.75041249  0.73489379  0.06792188  1
  Te  Te97  1  0.71382232  0.80707712  0.45459064  1
  Te  Te98  1  0.72903335  0.76650222  0.78174592  1
  Te  Te99  1  0.09487809  0.21604290  0.28173278  1
  Te  Te100  1  0.06268701  0.24324713  0.62098533  1
  Te  Te101  1  0.05053902  0.21953100  0.88046426  1
  Te  Te102  1  0.08741930  0.57396218  0.25304010  1
  Te  Te103  1  0.08677241  0.50582118  0.61233698  1
  Te  Te104  1  0.08394363  0.59121506  0.88683783  1
  Te  Te105  1  0.12359275  0.90364298  0.28166936  1
  Te  Te106  1  0.08583797  0.92252571  0.58025267  1
  Te  Te107  1  0.05206717  0.93490005  0.92095329  1
  Te  Te108  1  0.35975059  0.30882315  0.20784200  1
  Te  Te109  1  0.43115447  0.25938285  0.58631283  1
  Te  Te110  1  0.40571862  0.22131187  0.94650736  1
  Te  Te111  1  0.39483852  0.58654075  0.23774071  1
  Te  Te112  1  0.40716317  0.56828566  0.55635723  1
  Te  Te113  1  0.39748093  0.61046319  0.90095859  1
  Te  Te114  1  0.39863754  0.92860954  0.29733204  1
  Te  Te115  1  0.40508506  0.92326888  0.56940607  1
  Te  Te116  1  0.41171204  0.91968059  0.92833862  1
  Te  Te117  1  0.75034328  0.20096919  0.24112456  1
  Te  Te118  1  0.72309541  0.24160309  0.60204207  1
  Te  Te119  1  0.73483670  0.26883598  0.91167745  1
  Te  Te120  1  0.76835847  0.58705676  0.26451678  1
  Te  Te121  1  0.74640529  0.59273874  0.56455656  1
  Te  Te122  1  0.75585062  0.58134931  0.90180864  1
  Te  Te123  1  0.75575086  0.90678922  0.23854737  1
  Te  Te124  1  0.77595186  0.89512887  0.57614697  1
  Te  Te125  1  0.76118876  0.94424533  0.92272648  1
  Te  Te126  1  0.23116926  0.22326581  0.08236147  1
  Te  Te127  1  0.23723964  0.30005223  0.40598615  1
  Te  Te128  1  0.26595204  0.24653230  0.76170566  1
  Te  Te129  1  0.24864698  0.57893551  0.06264612  1
  Te  Te130  1  0.21566393  0.55121134  0.41677756  1
  Te  Te131  1  0.25119395  0.55091984  0.69470502  1
  Te  Te132  1  0.25669191  0.90716257  0.09533508  1
  Te  Te133  1  0.20528150  0.94958277  0.42374509  1
  Te  Te134  1  0.24408568  0.92175061  0.75631245  1
  Te  Te135  1  0.57572142  0.26310099  0.13273125  1
  Te  Te136  1  0.57489774  0.23388285  0.38777517  1
  Te  Te137  1  0.55750534  0.23661732  0.76300373  1
  Te  Te138  1  0.59985047  0.58599401  0.08629431  1
  Te  Te139  1  0.59481973  0.60989530  0.41575397  1
  Te  Te140  1  0.58283360  0.57486347  0.74890534  1
  Te  Te141  1  0.57820774  0.91099261  0.08499524  1
  Te  Te142  1  0.58721114  0.88480516  0.41806724  1
  Te  Te143  1  0.58944193  0.94385579  0.74763815  1
  Te  Te144  1  0.92564924  0.24970799  0.07705297  1
  Te  Te145  1  0.91052245  0.24065033  0.41457820  1
  Te  Te146  1  0.94222877  0.27810479  0.71358544  1
  Te  Te147  1  0.93320614  0.56391265  0.07406215  1
  Te  Te148  1  0.92763343  0.60450382  0.41804039  1
  Te  Te149  1  0.90387525  0.59862293  0.71204222  1
  Te  Te150  1  0.91738306  0.93128248  0.09277456  1
  Te  Te151  1  0.93827767  0.91883079  0.38099319  1
  Te  Te152  1  0.91673273  0.90365224  0.75069896  1
  Te  Te153  1  0.28878093  0.10184225  0.28237267  1
  Te  Te154  1  0.25723869  0.12784918  0.55511762  1
  Te  Te155  1  0.22797778  0.08638299  0.89987078  1
  Te  Te156  1  0.22138458  0.40460159  0.28743647  1
  Te  Te157  1  0.21989523  0.35172876  0.55246850  1
  Te  Te158  1  0.27110762  0.40171504  0.93496064  1
  Te  Te159  1  0.24286296  0.74965920  0.26223745  1
  Te  Te160  1  0.23876080  0.73537559  0.55844966  1
  Te  Te161  1  0.22589797  0.75346578  0.89517218  1
  Te  Te162  1  0.59662274  0.08016089  0.24373073  1
  Te  Te163  1  0.58441906  0.06650368  0.55409746  1
  Te  Te164  1  0.59193141  0.09526237  0.93647389  1
  Te  Te165  1  0.60147679  0.42844141  0.28621879  1
  Te  Te166  1  0.59006631  0.43109865  0.57401203  1
  Te  Te167  1  0.58322665  0.43256178  0.93675538  1
  Te  Te168  1  0.56386128  0.77708802  0.28017741  1
  Te  Te169  1  0.57540067  0.76345628  0.61026478  1
  Te  Te170  1  0.56836139  0.77785394  0.90194252  1
  Te  Te171  1  0.94316420  0.06171844  0.27795258  1
  Te  Te172  1  0.90978298  0.07565521  0.55016716  1
  Te  Te173  1  0.93602342  0.11591456  0.88054967  1
  Te  Te174  1  0.93821956  0.39710833  0.26251418  1
  Te  Te175  1  0.94824471  0.44413645  0.57299159  1
  Te  Te176  1  0.92219237  0.42412356  0.89889548  1
  Te  Te177  1  0.92372431  0.75620332  0.23777210  1
  Te  Te178  1  0.89212066  0.79037471  0.58634642  1
  Te  Te179  1  0.93335981  0.75058280  0.92291015  1
