# generated using pymatgen
data_In2Te3
_symmetry_space_group_name_H-M   'P 1'
_cell_length_a   18.94078802
_cell_length_b   18.91258494
_cell_length_c   18.94883439
_cell_angle_alpha   89.78436644
_cell_angle_beta   90.10217584
_cell_angle_gamma   90.01552980
_symmetry_Int_Tables_number   1
_chemical_formula_structural   In2Te3
_chemical_formula_sum   'In72 Te108'
_cell_volume   6787.77837547
_cell_formula_units_Z   36
loop_
 _symmetry_equiv_pos_site_id
 _symmetry_equiv_pos_as_xyz
  1  'x, y, z'
loop_
 _atom_site_type_symbol
 _atom_site_label
 _atom_site_symmetry_multiplicity
 _atom_site_fract_x
 _atom_site_fract_y
 _atom_site_fract_z
 _atom_site_occupancy
  In  In0  1  0.00600856  0.84717726  0.19219721  1
  In  In1  1  0.34081754  0.31716888  0.65747763  1
  In  In2  1  0.66521625  0.66987831  0.01475388  1
  In  In3  1  0.51373048  0.03888171  0.85542242  1
  In  In4  1  0.81343795  0.00496525  0.15517020  1
  In  In5  1  0.00166658  0.51672645  0.51506038  1
  In  In6  1  -0.00783543  0.68471773  0.35159984  1
  In  In7  1  0.82483555  0.49172569  -0.00332346  1
  In  In8  1  0.36329448  0.16884440  0.86070600  1
  In  In9  1  0.15648903  0.31774135  0.15204613  1
  In  In10  1  0.65612003  0.66305181  0.65918001  1
  In  In11  1  -0.02449430  0.67098126  0.00621846  1
  In  In12  1  0.34621192  0.00085031  0.31589843  1
  In  In13  1  0.66428994  0.84987258  0.84657614  1
  In  In14  1  0.51448614  0.49390393  0.64839919  1
  In  In15  1  0.17997760  0.49514942  0.32279261  1
  In  In16  1  0.51070618  0.32604729  0.82489719  1
  In  In17  1  0.67497506  0.34238927  0.32768090  1
  In  In18  1  0.48083931  0.82421613  0.01587270  1
  In  In19  1  -0.02318610  0.33068016  0.33269899  1
  In  In20  1  0.30955248  0.60433692  -0.01423833  1
  In  In21  1  0.01645014  0.01316052  0.34969856  1
  In  In22  1  0.15724242  -0.00909533  0.81034541  1
  In  In23  1  0.82230764  0.84346490  0.30765144  1
  In  In24  1  0.64715925  0.84242381  0.46082170  1
  In  In25  1  0.84751177  0.48634492  0.68931931  1
  In  In26  1  0.83626574  0.32059018  0.16375284  1
  In  In27  1  0.78254085  0.31175657  0.83749490  1
  In  In28  1  0.15455663  0.31568177  0.51330569  1
  In  In29  1  0.64611175  0.81455155  0.17208486  1
  In  In30  1  0.83777469  0.68613366  0.49655269  1
  In  In31  1  -0.02119471  0.83037296  0.84843566  1
  In  In32  1  0.33739848  0.47701893  0.48990813  1
  In  In33  1  0.84883172  0.83179661  0.67308662  1
  In  In34  1  0.33749036  0.83224082  0.16763542  1
  In  In35  1  0.49056936  0.00882158  0.49021135  1
  In  In36  1  0.68557790  0.00015999  0.64867096  1
  In  In37  1  0.82337590  0.18372687  0.34204202  1
  In  In38  1  0.01698419  0.83525062  0.50578789  1
  In  In39  1  0.35101759  0.65834526  0.31364825  1
  In  In40  1  0.14419242  0.18368600  -0.02591460  1
  In  In41  1  0.67865110  0.50198323  0.16837265  1
  In  In42  1  0.31852491  0.66153386  0.68417082  1
  In  In43  1  0.34922311  0.01420248  0.66090433  1
  In  In44  1  0.48299203  0.87740277  0.63579030  1
  In  In45  1  0.84006132  0.16991107  0.66828565  1
  In  In46  1  0.32801959  -0.00604745  0.01364304  1
  In  In47  1  0.35288523  0.46838451  0.13956937  1
  In  In48  1  0.51305466  0.64689427  0.47243119  1
  In  In49  1  0.65126836  0.05081563  0.03818287  1
  In  In50  1  0.17159913  0.67951488  0.17291872  1
  In  In51  1  0.36690019  0.18986051  0.16365488  1
  In  In52  1  0.03290306  0.62190887  0.69330645  1
  In  In53  1  0.45250772  0.64893550  0.84844140  1
  In  In54  1  0.67074029  0.48638158  0.49621222  1
  In  In55  1  0.51128246  0.64753583  0.17173704  1
  In  In56  1  -0.00991737  0.01008623  -0.01009705  1
  In  In57  1  0.65549959  0.48475196  0.85494514  1
  In  In58  1  0.33325673  0.80205560  0.84442055  1
  In  In59  1  0.17400472  0.81947970  0.64788165  1
  In  In60  1  0.82561111  0.02026450  0.48194951  1
  In  In61  1  0.00767303  -0.02294951  0.68858935  1
  In  In62  1  0.67333014  0.18606039  0.50332383  1
  In  In63  1  0.37590563  0.33046059  0.33410209  1
  In  In64  1  0.15923650  0.64574908  0.83789608  1
  In  In65  1  0.00381208  0.48258087  0.83421327  1
  In  In66  1  -0.00979404  0.16510665  0.15779639  1
  In  In67  1  0.16868033  0.19470779  0.70123287  1
  In  In68  1  0.34738658  0.16153193  0.50933245  1
  In  In69  1  -0.00137778  0.47889151  0.16521489  1
  In  In70  1  0.81346712  0.05558330  0.86444886  1
  In  In71  1  0.18601258  0.14288894  0.34706352  1
  Te  Te72  1  0.08989875  0.08273330  0.07974925  1
  Te  Te73  1  0.07705093  0.11067578  0.43941758  1
  Te  Te74  1  0.06276116  0.09742115  0.76253174  1
  Te  Te75  1  0.07091509  0.40053062  0.06260878  1
  Te  Te76  1  0.08379286  0.41595593  0.40962493  1
  Te  Te77  1  0.09911419  0.39487166  0.76851766  1
  Te  Te78  1  0.07377946  0.75679250  0.08806827  1
  Te  Te79  1  0.10113262  0.75331577  0.41956145  1
  Te  Te80  1  0.08572879  0.76186388  0.75854032  1
  Te  Te81  1  0.43265431  0.09199464  0.06108625  1
  Te  Te82  1  0.42683951  0.10815954  0.39350664  1
  Te  Te83  1  0.43577594  0.10846843  0.74139345  1
  Te  Te84  1  0.42248691  0.35522398  0.07936396  1
  Te  Te85  1  0.45221456  0.41943665  0.42195388  1
  Te  Te86  1  0.42227897  0.41719286  0.74053839  1
  Te  Te87  1  0.40027796  0.71405749  0.08213439  1
  Te  Te88  1  0.43468952  0.74901101  0.39760837  1
  Te  Te89  1  0.43298740  0.76028118  0.73483676  1
  Te  Te90  1  0.78661751  0.12020411  0.06217242  1
  Te  Te91  1  0.72196971  0.08168425  0.39585197  1
  Te  Te92  1  0.72261953  0.10753525  0.75072211  1
  Te  Te93  1  0.73828617  0.39496529  0.07374916  1
  Te  Te94  1  0.76872736  0.40776558  0.42116713  1
  Te  Te95  1  0.72341979  0.41527309  0.73782305  1
  Te  Te96  1  0.75360785  0.75664552  0.09134072  1
  Te  Te97  1  0.74128244  0.74357190  0.39318780  1
  Te  Te98  1  0.73856308  0.75698569  0.74756410  1
  Te  Te99  1  0.08004374  0.24085330  0.26205262  1
  Te  Te100  1  0.06632417  0.25856044  0.61515170  1
  Te  Te101  1  0.10887391  0.29767129  0.88826153  1
  Te  Te102  1  0.07344792  0.58311225  0.25584860  1
  Te  Te103  1  0.11452763  0.58553396  0.57951189  1
  Te  Te104  1  0.07046058  0.57379669  0.93726849  1
  Te  Te105  1  0.10115340  0.92654617  0.26954591  1
  Te  Te106  1  0.10445048  0.93579846  0.57830389  1
  Te  Te107  1  0.08509654  0.91257037  0.91847964  1
  Te  Te108  1  0.47473614  0.27235316  0.23591246  1
  Te  Te109  1  0.44112345  0.25634435  0.57109492  1
  Te  Te110  1  0.42297992  0.27913047  0.94215520  1
  Te  Te111  1  0.42681226  0.54517383  0.24790294  1
  Te  Te112  1  0.41836433  0.59056423  0.58048093  1
  Te  Te113  1  0.42565964  0.52372710  0.92634774  1
  Te  Te114  1  0.43427726  0.92828002  0.22205223  1
  Te  Te115  1  0.36730271  0.91812036  0.53613481  1
  Te  Te116  1  0.42039095  0.92007373  0.90448388  1
  Te  Te117  1  0.73453792  0.23109223  0.23090824  1
  Te  Te118  1  0.78162628  0.26159744  0.56789567  1
  Te  Te119  1  0.74243755  0.22251374  0.95112039  1
  Te  Te120  1  0.70262135  0.60425911  0.26910786  1
  Te  Te121  1  0.76497140  0.58587578  0.58750254  1
  Te  Te122  1  0.74665600  0.59158514  0.91238049  1
  Te  Te123  1  0.71704221  0.93368054  0.24655212  1
  Te  Te124  1  0.75602891  0.89342859  0.56583166  1
  Te  Te125  1  0.72813273  0.95210452  0.93653560  1
  Te  Te126  1  0.25159175  0.23957578  0.06544988  1
  Te  Te127  1  0.26072806  0.26066708  0.41524923  1
  Te  Te128  1  0.27182516  0.26710048  0.78493761  1
  Te  Te129  1  0.23013877  0.55702641  0.10801716  1
  Te  Te130  1  0.26088524  0.58394564  0.41289350  1
  Te  Te131  1  0.25582512  0.55549016  0.76761652  1
  Te  Te132  1  0.24030651  0.89847155  0.07896882  1
  Te  Te133  1  0.26562489  0.95930210  0.43007016  1
  Te  Te134  1  0.26787605  0.90684821  0.74438872  1
  Te  Te135  1  0.57909712  0.17661408  0.08314625  1
  Te  Te136  1  0.58780846  0.24844175  0.40196695  1
  Te  Te137  1  0.60602130  0.22525923  0.77120827  1
  Te  Te138  1  0.57463976  0.56182269  0.06574653  1
  Te  Te139  1  0.60658541  0.56865126  0.38506305  1
  Te  Te140  1  0.57354807  0.58798144  0.76235602  1
  Te  Te141  1  0.58042105  0.91731983  0.07708408  1
  Te  Te142  1  0.56591667  0.93798686  0.38639341  1
  Te  Te143  1  0.58215777  0.93202444  0.74553392  1
  Te  Te144  1  0.94620553  0.27819251  0.07317882  1
  Te  Te145  1  0.91827983  0.24318303  0.43644780  1
  Te  Te146  1  0.90231348  0.25077003  0.77511478  1
  Te  Te147  1  0.89966971  0.57487334  0.09821456  1
  Te  Te148  1  0.90452744  0.57765040  0.41450762  1
  Te  Te149  1  0.91005906  0.59624221  0.77277770  1
  Te  Te150  1  0.91663721  0.91913275  0.08742502  1
  Te  Te151  1  0.90981597  0.90337394  0.41738106  1
  Te  Te152  1  0.88254672  0.93854829  0.77676472  1
  Te  Te153  1  0.26086157  0.09480741  0.22671000  1
  Te  Te154  1  0.24150967  0.10286433  0.60118832  1
  Te  Te155  1  0.24559150  0.07366753  0.90370981  1
  Te  Te156  1  0.25654387  0.38853231  0.24653417  1
  Te  Te157  1  0.24315926  0.41342870  0.58937469  1
  Te  Te158  1  0.27794365  0.47771943  0.91191252  1
  Te  Te159  1  0.24811583  0.76419946  0.27099508  1
  Te  Te160  1  0.26657827  0.73788295  0.57018716  1
  Te  Te161  1  0.23697624  0.73385929  0.93510871  1
  Te  Te162  1  0.51096521  0.10655427  0.19660774  1
  Te  Te163  1  0.58234980  0.08745044  0.58128457  1
  Te  Te164  1  0.60556944  0.15167593  0.90590130  1
  Te  Te165  1  0.58281064  0.40311614  0.22567169  1
  Te  Te166  1  0.59233048  0.39210554  0.57865101  1
  Te  Te167  1  0.59184842  0.38173728  0.93710672  1
  Te  Te168  1  0.54544566  0.75702642  0.26508683  1
  Te  Te169  1  0.57589215  0.76060729  0.57342005  1
  Te  Te170  1  0.56877316  0.74882200  0.91458930  1
  Te  Te171  1  0.90929681  0.07610242  0.25707892  1
  Te  Te172  1  0.91639059  0.06032675  0.59341920  1
  Te  Te173  1  0.93679023  0.12255003  0.90960479  1
  Te  Te174  1  0.88824329  0.42850278  0.25739776  1
  Te  Te175  1  0.94211615  0.41621733  0.60370762  1
  Te  Te176  1  0.89533802  0.40042675  0.90103916  1
  Te  Te177  1  0.90730631  0.73911363  0.23835706  1
  Te  Te178  1  0.94125117  0.73698459  0.59850546  1
  Te  Te179  1  0.88336197  0.76138715  0.93394376  1
