# generated using pymatgen
data_In2Te3
_symmetry_space_group_name_H-M   'P 1'
_cell_length_a   18.81102613
_cell_length_b   18.81816088
_cell_length_c   18.81341432
_cell_angle_alpha   89.94018118
_cell_angle_beta   89.99312100
_cell_angle_gamma   90.00017357
_symmetry_Int_Tables_number   1
_chemical_formula_structural   In2Te3
_chemical_formula_sum   'In72 Te108'
_cell_volume   6659.73646520
_cell_formula_units_Z   36
loop_
 _symmetry_equiv_pos_site_id
 _symmetry_equiv_pos_as_xyz
  1  'x, y, z'
loop_
 _atom_site_type_symbol
 _atom_site_label
 _atom_site_symmetry_multiplicity
 _atom_site_fract_x
 _atom_site_fract_y
 _atom_site_fract_z
 _atom_site_occupancy
  In  In0  1  0.18557955  0.52270028  0.66503490  1
  In  In1  1  0.17480848  0.68325156  0.17408065  1
  In  In2  1  -0.00051835  0.32575969  0.64397715  1
  In  In3  1  0.81622084  0.50803678  0.65528156  1
  In  In4  1  0.33932932  0.82376318  0.81785384  1
  In  In5  1  0.18649210  0.50056854  0.34126509  1
  In  In6  1  0.66733282  0.33074584  0.00344590  1
  In  In7  1  0.67114573  0.00326400  -0.01275490  1
  In  In8  1  0.00442562  -0.01235684  0.66457433  1
  In  In9  1  0.83282023  0.51985604  0.00269354  1
  In  In10  1  0.47691788  0.80275620  0.37435887  1
  In  In11  1  0.81315838  0.37259236  0.82657795  1
  In  In12  1  0.49064263  0.63879228  0.18265040  1
  In  In13  1  0.17431086  0.33305015  0.51258199  1
  In  In14  1  0.52589773  0.31576397  0.79649274  1
  In  In15  1  0.19358912  0.34492337  0.83730824  1
  In  In16  1  -0.01071084  0.14931615  0.81153869  1
  In  In17  1  0.83395614  0.83215427  0.32887619  1
  In  In18  1  0.33294055  0.68298260  -0.01504945  1
  In  In19  1  0.64919239  0.66538426  -0.02560627  1
  In  In20  1  0.17195446  0.66694597  0.51633240  1
  In  In21  1  0.34389600  0.51253060  0.19106444  1
  In  In22  1  0.47511435  0.00062119  0.82360330  1
  In  In23  1  0.32439639  0.00325650  0.33393558  1
  In  In24  1  0.82201128  0.29930799  0.16955079  1
  In  In25  1  0.15828957  0.81568668  0.67825595  1
  In  In26  1  0.00514478  0.48675570  0.15706936  1
  In  In27  1  0.00584657  0.34603607  0.35782377  1
  In  In28  1  0.65907978  -0.00698366  0.34517052  1
  In  In29  1  0.68063148  0.82784547  0.52481200  1
  In  In30  1  0.62251781  0.62639510  0.36838980  1
  In  In31  1  0.34447023  0.33035071  0.66069927  1
  In  In32  1  0.15515348  0.84455695  -0.03517043  1
  In  In33  1  0.64872908  0.48037274  0.21439545  1
  In  In34  1  0.34056723  0.82929888  0.17352620  1
  In  In35  1  0.32551764  0.01850696  0.00873021  1
  In  In36  1  0.82292022  0.31767200  0.50374079  1
  In  In37  1  0.83237209  0.66231713  0.50301425  1
  In  In38  1  0.15690049  0.15310459  0.00049417  1
  In  In39  1  0.82682078  0.16166526  0.34142964  1
  In  In40  1  0.34313315  0.18886814  0.20269032  1
  In  In41  1  -0.00675910  0.84906134  0.17134900  1
  In  In42  1  0.31067462  0.36580970  -0.02330034  1
  In  In43  1  0.83088078  0.15942188  -0.03653385  1
  In  In44  1  0.65004826  0.15457631  0.18495858  1
  In  In45  1  0.54016074  0.83382116  -0.01092636  1
  In  In46  1  0.33519243  0.17303219  0.81768122  1
  In  In47  1  0.32956939  -0.00323428  0.66440955  1
  In  In48  1  0.62867113  0.36530501  0.36631098  1
  In  In49  1  0.87555138  0.82504363  -0.03071673  1
  In  In50  1  0.02615163  0.13898997  0.16471686  1
  In  In51  1  0.01908674  0.52826148  0.81542089  1
  In  In52  1  0.48500280  0.50437496  0.65009897  1
  In  In53  1  0.82817033  0.14601595  0.66690392  1
  In  In54  1  0.18337392  0.16660313  0.34867498  1
  In  In55  1  0.49281334  0.17410404  0.01115777  1
  In  In56  1  0.01300884  -0.00439810  0.34054790  1
  In  In57  1  0.68892314  0.80292825  0.78476740  1
  In  In58  1  0.19391197  0.83653885  0.35833015  1
  In  In59  1  0.83991415  0.68126698  0.16283522  1
  In  In60  1  0.84043670  -0.02740208  0.80538247  1
  In  In61  1  0.64239637  0.15957444  0.48515793  1
  In  In62  1  0.00378312  0.81582845  0.50958604  1
  In  In63  1  0.66372179  0.00436357  0.65146848  1
  In  In64  1  0.35778473  0.16725978  0.50887298  1
  In  In65  1  0.16786965  0.34293484  0.15487144  1
  In  In66  1  0.83139127  0.51000662  0.35052287  1
  In  In67  1  0.47483531  0.51716018  -0.00410037  1
  In  In68  1  0.49290515  0.82370320  0.63805402  1
  In  In69  1  0.65411539  0.51926316  0.82085477  1
  In  In70  1  0.65892783  0.83350771  0.16569516  1
  In  In71  1  0.01709524  0.33781612  0.01593167  1
  Te  Te72  1  0.08173901  0.04049996  0.06690954  1
  Te  Te73  1  0.09463340  0.08171789  0.42865547  1
  Te  Te74  1  0.09479231  0.07958388  0.73959999  1
  Te  Te75  1  0.11487996  0.44699731  0.05655774  1
  Te  Te76  1  0.08688575  0.43974408  0.44263688  1
  Te  Te77  1  0.08518393  0.40769487  0.74117029  1
  Te  Te78  1  0.08713367  0.76661542  0.08320068  1
  Te  Te79  1  0.08814484  0.73937930  0.40851258  1
  Te  Te80  1  0.05110260  0.75693490  0.76484059  1
  Te  Te81  1  0.41689088  0.08579081  0.10916056  1
  Te  Te82  1  0.42657922  0.08859467  0.40092042  1
  Te  Te83  1  0.43237946  0.10577167  0.72324957  1
  Te  Te84  1  0.40721276  0.41465007  0.08447738  1
  Te  Te85  1  0.44293702  0.45925277  0.39139879  1
  Te  Te86  1  0.41874732  0.41583704  0.76252050  1
  Te  Te87  1  0.44212969  0.74816621  0.08256178  1
  Te  Te88  1  0.40509805  0.72797856  0.48036262  1
  Te  Te89  1  0.39408357  0.73567802  0.71107705  1
  Te  Te90  1  0.74753074  0.09863301  0.07966965  1
  Te  Te91  1  0.75613714  0.06737930  0.43746609  1
  Te  Te92  1  0.73689570  0.07699457  0.76798463  1
  Te  Te93  1  0.75238286  0.42375185  0.09189555  1
  Te  Te94  1  0.74049653  0.43401926  0.44611790  1
  Te  Te95  1  0.71245024  0.41674306  0.72177590  1
  Te  Te96  1  0.74404431  0.75134167  0.06674722  1
  Te  Te97  1  0.73553537  0.74185655  0.40258859  1
  Te  Te98  1  0.79944901  0.72799954  0.72225625  1
  Te  Te99  1  0.07447126  0.26070399  0.24584406  1
  Te  Te100  1  0.08619675  0.23135923  0.57326450  1
  Te  Te101  1  0.08098802  0.24981768  0.90647542  1
  Te  Te102  1  0.09185008  0.57581899  0.24712871  1
  Te  Te103  1  0.07591403  0.60673467  0.61317573  1
  Te  Te104  1  0.07609521  0.61654580  0.91638110  1
  Te  Te105  1  0.10758579  0.91132595  0.25617923  1
  Te  Te106  1  0.10258647  0.91141657  0.57197578  1
  Te  Te107  1  0.06051035  0.95035328  0.92926944  1
  Te  Te108  1  0.44799087  0.25243823  0.28202722  1
  Te  Te109  1  0.44988450  0.28155769  0.56364373  1
  Te  Te110  1  0.41479011  0.26279615  0.91282306  1
  Te  Te111  1  0.41233674  0.58964618  0.30267953  1
  Te  Te112  1  0.40289576  0.59515090  0.56277523  1
  Te  Te113  1  0.42122039  0.60637886  0.89247436  1
  Te  Te114  1  0.42796881  0.90567879  0.26969533  1
  Te  Te115  1  0.40980175  0.92246588  0.56207383  1
  Te  Te116  1  0.41121297  0.90753969  0.93220936  1
  Te  Te117  1  0.72465851  0.26246833  0.28521694  1
  Te  Te118  1  0.72174742  0.24562654  0.59350779  1
  Te  Te119  1  0.73600335  0.25396392  0.89229551  1
  Te  Te120  1  0.74790923  0.59393749  0.25159659  1
  Te  Te121  1  0.72182642  0.60035598  0.58351031  1
  Te  Te122  1  0.76299240  0.60074449  0.89476861  1
  Te  Te123  1  0.75183449  0.92795942  0.24200940  1
  Te  Te124  1  0.77120075  0.91179358  0.60717287  1
  Te  Te125  1  0.74400855  0.89386153  0.90562089  1
  Te  Te126  1  0.25562993  0.24691542  0.07182918  1
  Te  Te127  1  0.27338284  0.26547384  0.41768375  1
  Te  Te128  1  0.23650474  0.24601274  0.72808292  1
  Te  Te129  1  0.26325391  0.59339430  0.08749973  1
  Te  Te130  1  0.26674153  0.58231107  0.43576859  1
  Te  Te131  1  0.27128619  0.57115555  0.77315991  1
  Te  Te132  1  0.25082764  0.90344526  0.07672390  1
  Te  Te133  1  0.27945988  0.91765832  0.44886469  1
  Te  Te134  1  0.23824727  0.92124608  0.76090224  1
  Te  Te135  1  0.57551714  0.26285274  0.10420417  1
  Te  Te136  1  0.54261547  0.24612427  0.40810418  1
  Te  Te137  1  0.61756060  0.24006676  0.71363824  1
  Te  Te138  1  0.59512816  0.57500255  0.08739706  1
  Te  Te139  1  0.54561306  0.53874112  0.46867241  1
  Te  Te140  1  0.57932060  0.59957604  0.72054458  1
  Te  Te141  1  0.57704599  0.94034022  0.09226750  1
  Te  Te142  1  0.57959038  0.90082584  0.43636230  1
  Te  Te143  1  0.57411391  0.91025797  0.74947821  1
  Te  Te144  1  0.92354254  0.22890194  0.07008471  1
  Te  Te145  1  0.92833961  0.23508275  0.42943857  1
  Te  Te146  1  0.89852584  0.26390313  0.74978336  1
  Te  Te147  1  0.93798822  0.60065211  0.07785854  1
  Te  Te148  1  0.93174577  0.58929334  0.42152798  1
  Te  Te149  1  0.90387760  0.59205960  0.74284890  1
  Te  Te150  1  0.88916473  0.91105585  0.08668820  1
  Te  Te151  1  0.91663828  0.91311400  0.42703474  1
  Te  Te152  1  0.95452732  0.88178650  0.76271841  1
  Te  Te153  1  0.23706176  0.08403850  0.23281771  1
  Te  Te154  1  0.25383900  0.09292841  0.58161797  1
  Te  Te155  1  0.24390923  0.07954627  0.89625225  1
  Te  Te156  1  0.26466865  0.39845640  0.25834280  1
  Te  Te157  1  0.27156170  0.43272897  0.57467190  1
  Te  Te158  1  0.24642603  0.47586387  0.89291147  1
  Te  Te159  1  0.27574493  0.73664352  0.27522071  1
  Te  Te160  1  0.26840712  0.74904923  0.59962040  1
  Te  Te161  1  0.22811785  0.73509747  0.88739663  1
  Te  Te162  1  0.56008665  0.07994908  0.27523876  1
  Te  Te163  1  0.56007302  0.07429156  0.57377794  1
  Te  Te164  1  0.56932265  0.08914387  0.91031609  1
  Te  Te165  1  0.52104963  0.41312033  0.26224539  1
  Te  Te166  1  0.54648550  0.40087416  0.55868322  1
  Te  Te167  1  0.57913864  0.42243869  0.91841440  1
  Te  Te168  1  0.57779620  0.74535862  0.26076976  1
  Te  Te169  1  0.59695875  0.72359900  0.59334449  1
  Te  Te170  1  0.56996044  0.74375004  0.87145582  1
  Te  Te171  1  0.91575148  0.07742427  0.24981817  1
  Te  Te172  1  0.91725458  0.07241869  0.57812448  1
  Te  Te173  1  0.92687765  0.05204614  0.91517540  1
  Te  Te174  1  0.90785544  0.41119633  0.25143312  1
  Te  Te175  1  0.91255348  0.42454207  0.56844709  1
  Te  Te176  1  0.92417786  0.42133582  0.92197874  1
  Te  Te177  1  0.93644936  0.73907580  0.26449889  1
  Te  Te178  1  0.88987122  0.76715751  0.59773288  1
  Te  Te179  1  0.96784867  0.72934256  0.90336176  1
