# generated using pymatgen
data_In2Te3
_symmetry_space_group_name_H-M   'P 1'
_cell_length_a   19.05175421
_cell_length_b   19.04040872
_cell_length_c   19.02067070
_cell_angle_alpha   89.83940055
_cell_angle_beta   89.92487892
_cell_angle_gamma   89.70058561
_symmetry_Int_Tables_number   1
_chemical_formula_structural   In2Te3
_chemical_formula_sum   'In72 Te108'
_cell_volume   6899.68179935
_cell_formula_units_Z   36
loop_
 _symmetry_equiv_pos_site_id
 _symmetry_equiv_pos_as_xyz
  1  'x, y, z'
loop_
 _atom_site_type_symbol
 _atom_site_label
 _atom_site_symmetry_multiplicity
 _atom_site_fract_x
 _atom_site_fract_y
 _atom_site_fract_z
 _atom_site_occupancy
  In  In0  1  0.34466964  0.33073236  0.65782830  1
  In  In1  1  0.00963606  0.17978479  0.83973762  1
  In  In2  1  0.16876887  0.67919814  0.81526277  1
  In  In3  1  0.66093978  0.33024993  0.31657718  1
  In  In4  1  0.48821167  0.68587649  0.82962590  1
  In  In5  1  -0.00104794  -0.00063258  0.34588422  1
  In  In6  1  -0.01468615  0.15937632  0.17793598  1
  In  In7  1  0.80939312  0.35270825  0.85211449  1
  In  In8  1  0.16758447  0.80900929  0.34158245  1
  In  In9  1  0.16011984  0.00518702  0.81445564  1
  In  In10  1  0.51057020  -0.02655480  0.17010735  1
  In  In11  1  0.51584336  0.18998694  0.00356431  1
  In  In12  1  0.00042079  0.34477596  0.33757204  1
  In  In13  1  0.64375949  0.45724740  0.49494550  1
  In  In14  1  0.03113294  0.49560864  0.16553372  1
  In  In15  1  0.14734967  -0.04502447  0.53022973  1
  In  In16  1  0.82510173  0.69350926  0.17938441  1
  In  In17  1  0.64221535  0.81700698  0.16613341  1
  In  In18  1  0.34347291  0.50881642  0.76624364  1
  In  In19  1  0.68690888  0.00257840  0.34334325  1
  In  In20  1  0.16314194  0.15214922  -0.00860894  1
  In  In21  1  0.64833539  0.67599033  -0.02044255  1
  In  In22  1  0.31901368  0.33275553  -0.01097870  1
  In  In23  1  0.66903747  0.52144183  0.84315332  1
  In  In24  1  0.33490905  -0.00707656  0.69145189  1
  In  In25  1  0.85586673  0.48717473  0.02687203  1
  In  In26  1  0.49251224  0.51578195  -0.01887196  1
  In  In27  1  0.34386623  0.68579534  0.01873905  1
  In  In28  1  0.82651435  0.15968305  0.66655626  1
  In  In29  1  0.85428495  0.31404072  0.51153302  1
  In  In30  1  0.68927387  0.83043355  0.51041918  1
  In  In31  1  0.50123249  0.30567185  0.50972753  1
  In  In32  1  0.50656061  -0.01094657  0.83727435  1
  In  In33  1  0.31644090  0.32008415  0.32244760  1
  In  In34  1  0.00342436  0.50016550  0.81938583  1
  In  In35  1  0.84364560  0.64680799  0.50389821  1
  In  In36  1  0.31536534  0.52827095  0.53456458  1
  In  In37  1  0.03609484  0.74831608  0.60066780  1
  In  In38  1  0.16630222  0.49105733  -0.01792950  1
  In  In39  1  0.32445124  0.13716932  0.47622940  1
  In  In40  1  0.49023292  0.84507700  0.35964450  1
  In  In41  1  0.34568259  0.83525749  0.83297339  1
  In  In42  1  0.65585458  0.63518516  0.35178135  1
  In  In43  1  0.12599469  0.17393417  0.35669987  1
  In  In44  1  0.32749720  -0.02968284  0.27949598  1
  In  In45  1  0.84887583  0.84906074  0.33534037  1
  In  In46  1  0.48533117  0.49179690  0.33007843  1
  In  In47  1  0.67002666  0.17148055  0.81614184  1
  In  In48  1  0.66552991  0.16437239  0.15146881  1
  In  In49  1  0.82245629  0.46965933  0.67078747  1
  In  In50  1  0.82825389  0.50899247  0.31489567  1
  In  In51  1  0.81435076  0.87612314  -0.02982476  1
  In  In52  1  0.49647153  0.83607479  0.67510700  1
  In  In53  1  0.15452053  0.67857315  0.17730012  1
  In  In54  1  -0.00240120  0.84595045  0.16653065  1
  In  In55  1  0.82389323  0.14091545  0.00088697  1
  In  In56  1  0.33969928  0.16320395  0.84060914  1
  In  In57  1  0.32131487  0.82301239  0.51713772  1
  In  In58  1  0.48609538  0.17282775  0.33826028  1
  In  In59  1  0.33900976  0.50656200  0.16897468  1
  In  In60  1  0.01284601  0.00106799  0.00325264  1
  In  In61  1  0.32436436  0.11125564  0.16131602  1
  In  In62  1  0.84604889  -0.00417426  0.51653272  1
  In  In63  1  0.66686911  0.67168175  0.66061107  1
  In  In64  1  -0.00073710  0.33811664  0.67269394  1
  In  In65  1  0.16430066  0.19367857  0.64871324  1
  In  In66  1  0.83366935  0.85054990  0.71297574  1
  In  In67  1  0.00626996  0.70132040  0.01347393  1
  In  In68  1  0.82115774  0.31145142  0.14690824  1
  In  In69  1  0.85508746  0.68147407  0.84382114  1
  In  In70  1  0.19233775  0.49957748  0.35236809  1
  In  In71  1  0.52663775  0.04655675  0.53472556  1
  Te  Te72  1  0.09153733  0.07884835  0.10449592  1
  Te  Te73  1  0.07667257  0.06870282  0.45484518  1
  Te  Te74  1  0.07644716  0.09970015  0.73092798  1
  Te  Te75  1  0.08929954  0.40333329  0.07017458  1
  Te  Te76  1  0.08361364  0.42975919  0.42040421  1
  Te  Te77  1  0.09869358  0.42990578  0.73261265  1
  Te  Te78  1  0.10841618  0.78799965  0.08074873  1
  Te  Te79  1  0.09226438  0.73342198  0.44821803  1
  Te  Te80  1  0.05924631  0.75639626  0.75135559  1
  Te  Te81  1  0.44701380  0.07725157  0.07663771  1
  Te  Te82  1  0.41038358  0.05133960  0.38514710  1
  Te  Te83  1  0.43441113  0.09068841  0.74731263  1
  Te  Te84  1  0.41228871  0.42022497  0.07012033  1
  Te  Te85  1  0.41429211  0.38828353  0.41377807  1
  Te  Te86  1  0.44241953  0.40088546  0.74169353  1
  Te  Te87  1  0.46094816  0.74578132  0.08404933  1
  Te  Te88  1  0.40575134  0.74564410  0.42499980  1
  Te  Te89  1  0.38798412  0.74048635  0.71936801  1
  Te  Te90  1  0.72888333  0.05533375  0.07438026  1
  Te  Te91  1  0.77303772  0.08462277  0.42473616  1
  Te  Te92  1  0.77306727  0.06977615  0.77416235  1
  Te  Te93  1  0.74231664  0.41447688  0.07968232  1
  Te  Te94  1  0.76063621  0.40949084  0.40915960  1
  Te  Te95  1  0.71229736  0.40556884  0.74923718  1
  Te  Te96  1  0.75325530  0.76206285  0.06543782  1
  Te  Te97  1  0.75411693  0.74276887  0.40460394  1
  Te  Te98  1  0.73863327  0.74471007  0.77055924  1
  Te  Te99  1  0.08109932  0.25803414  0.23970595  1
  Te  Te100  1  0.06513856  0.26181309  0.56705948  1
  Te  Te101  1  0.10613670  0.26041186  0.91090474  1
  Te  Te102  1  0.08674506  0.58378782  0.27166446  1
  Te  Te103  1  0.10687414  0.62161377  0.55691309  1
  Te  Te104  1  0.06845001  0.59907422  0.92054585  1
  Te  Te105  1  0.09143868  0.91568270  0.26078365  1
  Te  Te106  1  0.04839214  0.90131875  0.63389752  1
  Te  Te107  1  0.10415742  0.92178516  0.92079834  1
  Te  Te108  1  0.40503036  0.23939865  0.23398265  1
  Te  Te109  1  0.40681435  0.21008777  0.57719996  1
  Te  Te110  1  0.42781850  0.26529459  0.90578898  1
  Te  Te111  1  0.42325726  0.59496367  0.24562260  1
  Te  Te112  1  0.38799251  0.59070448  0.64495509  1
  Te  Te113  1  0.38804484  0.59648368  0.90144402  1
  Te  Te114  1  0.41295976  0.85969918  0.17453439  1
  Te  Te115  1  0.41884889  0.93307197  0.57955880  1
  Te  Te116  1  0.41411635  0.92044238  0.92778920  1
  Te  Te117  1  0.75623090  0.22954526  0.25437793  1
  Te  Te118  1  0.74349859  0.25703179  0.59096625  1
  Te  Te119  1  0.73865277  0.24648339  0.93090001  1
  Te  Te120  1  0.73059191  0.58645547  0.22777350  1
  Te  Te121  1  0.73462472  0.56199417  0.57650586  1
  Te  Te122  1  0.77782492  0.58690983  0.93499965  1
  Te  Te123  1  0.74362927  0.90415876  0.24428127  1
  Te  Te124  1  0.74732066  0.92576185  0.60840420  1
  Te  Te125  1  0.75392865  0.93587300  0.85181795  1
  Te  Te126  1  0.26082170  0.22741341  0.07845993  1
  Te  Te127  1  0.23565257  0.25062114  0.42956063  1
  Te  Te128  1  0.25140189  0.25167600  0.75557805  1
  Te  Te129  1  0.23536850  0.58870160  0.07723037  1
  Te  Te130  1  0.28461886  0.59767981  0.40965400  1
  Te  Te131  1  0.20573438  0.56246142  0.73383505  1
  Te  Te132  1  0.27601612  0.97054285  0.14114503  1
  Te  Te133  1  0.24561070  0.91641053  0.42029983  1
  Te  Te134  1  0.23808832  0.89231040  0.74134972  1
  Te  Te135  1  0.58237006  0.27399209  0.10300979  1
  Te  Te136  1  0.59834475  0.23519828  0.41709765  1
  Te  Te137  1  0.57596845  0.20502257  0.70867012  1
  Te  Te138  1  0.56000138  0.60883860  0.07680452  1
  Te  Te139  1  0.55720318  0.57067602  0.44400000  1
  Te  Te140  1  0.57408742  0.59061412  0.74804466  1
  Te  Te141  1  0.61226119  0.92710286  0.07215679  1
  Te  Te142  1  0.59084636  0.92801514  0.43702517  1
  Te  Te143  1  0.59440879  0.92014016  0.74084072  1
  Te  Te144  1  0.92250018  0.23721936  0.06323118  1
  Te  Te145  1  0.92187188  0.24145194  0.40547009  1
  Te  Te146  1  0.90077579  0.26559070  0.76416314  1
  Te  Te147  1  0.92981303  0.60432655  0.10170627  1
  Te  Te148  1  0.92117473  0.58114816  0.40055728  1
  Te  Te149  1  0.90120032  0.57837260  0.74039393  1
  Te  Te150  1  0.90507933  0.92883759  0.08287465  1
  Te  Te151  1  0.93759014  0.89715459  0.44311822  1
  Te  Te152  1  0.96269599  0.90530620  0.75731119  1
  Te  Te153  1  0.23827215  0.09910041  0.28995154  1
  Te  Te154  1  0.24230224  0.06599842  0.59001727  1
  Te  Te155  1  0.25986604  0.06146190  0.91664394  1
  Te  Te156  1  0.23880077  0.41475247  0.23396271  1
  Te  Te157  1  0.25081181  0.40476857  0.57366102  1
  Te  Te158  1  0.26627198  0.43181685  0.88966663  1
  Te  Te159  1  0.26121887  0.74902529  0.24591067  1
  Te  Te160  1  0.20898620  0.73773411  0.56569960  1
  Te  Te161  1  0.25000365  0.75409134  0.91906150  1
  Te  Te162  1  0.58268605  0.08023187  0.25850489  1
  Te  Te163  1  0.63505556  0.12286983  0.60063732  1
  Te  Te164  1  0.58863514  0.09080651  0.91478816  1
  Te  Te165  1  0.57383561  0.41699860  0.23921832  1
  Te  Te166  1  0.55385470  0.40884877  0.60060427  1
  Te  Te167  1  0.59484443  0.42712048  0.92505052  1
  Te  Te168  1  0.57476007  0.74641179  0.28239929  1
  Te  Te169  1  0.57557008  0.75222067  0.57149757  1
  Te  Te170  1  0.57789474  0.77565775  0.90005802  1
  Te  Te171  1  0.90684361  0.06042036  0.25052479  1
  Te  Te172  1  0.92984258  0.08597819  0.59592684  1
  Te  Te173  1  0.92368689  0.07583901  0.90654093  1
  Te  Te174  1  0.91033786  0.41399820  0.22658885  1
  Te  Te175  1  0.92671439  0.43176285  0.57029536  1
  Te  Te176  1  0.93071321  0.41194977  0.91928293  1
  Te  Te177  1  0.93683735  0.74777799  0.26442753  1
  Te  Te178  1  0.88182077  0.74931826  0.60282691  1
  Te  Te179  1  0.92896948  0.78906340  0.91814221  1
