# generated using pymatgen
data_In2Te3
_symmetry_space_group_name_H-M   'P 1'
_cell_length_a   18.87296227
_cell_length_b   18.87829316
_cell_length_c   18.89853037
_cell_angle_alpha   90.00961764
_cell_angle_beta   89.93001835
_cell_angle_gamma   90.09892112
_symmetry_Int_Tables_number   1
_chemical_formula_structural   In2Te3
_chemical_formula_sum   'In72 Te108'
_cell_volume   6733.32928069
_cell_formula_units_Z   36
loop_
 _symmetry_equiv_pos_site_id
 _symmetry_equiv_pos_as_xyz
  1  'x, y, z'
loop_
 _atom_site_type_symbol
 _atom_site_label
 _atom_site_symmetry_multiplicity
 _atom_site_fract_x
 _atom_site_fract_y
 _atom_site_fract_z
 _atom_site_occupancy
  In  In0  1  0.17250933  0.65521223  0.80365149  1
  In  In1  1  0.17203502  0.82316137  0.63992276  1
  In  In2  1  0.84317852  0.34022504  0.51846968  1
  In  In3  1  -0.00376817  0.65667802  0.66438203  1
  In  In4  1  0.32568572  0.51060866  0.80029677  1
  In  In5  1  0.82494997  0.33054661  0.17019360  1
  In  In6  1  0.15252086  -0.02001598  0.17428665  1
  In  In7  1  0.65390201  0.69375687  0.32243198  1
  In  In8  1  0.17431014  0.50671144  0.00620458  1
  In  In9  1  0.15746020  0.52737543  0.33281752  1
  In  In10  1  0.69832232  0.51164552  0.53384679  1
  In  In11  1  0.01633562  0.16063308  0.52082025  1
  In  In12  1  0.67036992  -0.01516412  0.02979254  1
  In  In13  1  0.65909963  0.34466861  0.67677490  1
  In  In14  1  0.32514699  0.83394181  0.81001415  1
  In  In15  1  0.14900837  0.34017303  0.13614525  1
  In  In16  1  0.51014653  0.00297305  0.82922018  1
  In  In17  1  0.70527265  0.80274358  0.82402671  1
  In  In18  1  0.32357941  0.16194135  0.82984011  1
  In  In19  1  0.80740551  -0.05089933  0.20709371  1
  In  In20  1  0.01374855  0.18383869  0.81744706  1
  In  In21  1  0.37039672  0.86683878  0.20218707  1
  In  In22  1  0.18388867  0.14835771  0.32039205  1
  In  In23  1  0.67272413  0.50461565  0.81517136  1
  In  In24  1  0.64123953  0.83537150  0.48774842  1
  In  In25  1  0.35352148  0.67496017  0.33648716  1
  In  In26  1  0.35271155  0.02292174  0.02999251  1
  In  In27  1  0.65692991  -0.00497168  0.65824223  1
  In  In28  1  0.16775875  0.00470632  0.49541609  1
  In  In29  1  0.48602647  0.81634243  0.65928677  1
  In  In30  1  0.83062408  0.81378757  0.66238837  1
  In  In31  1  -0.04354300  0.62862357  -0.01370523  1
  In  In32  1  0.00877851  0.51767022  0.50876894  1
  In  In33  1  0.85511442  0.18218014  0.66355495  1
  In  In34  1  0.51228116  0.16972673  0.65444008  1
  In  In35  1  0.67370205  0.16313603  0.87576314  1
  In  In36  1  0.68031073  0.65694639  0.01231105  1
  In  In37  1  0.33322143  0.30819368  0.32445465  1
  In  In38  1  0.30078324  0.46640435  0.51960547  1
  In  In39  1  0.82966981  0.13318302  0.31510951  1
  In  In40  1  0.16823769  0.18118451  0.66996046  1
  In  In41  1  -0.00779950  0.32585427  0.35072325  1
  In  In42  1  0.50389387  0.14376409  0.35390815  1
  In  In43  1  0.48951791  0.65047227  0.51581029  1
  In  In44  1  -0.02020188  0.38547875  -0.04900264  1
  In  In45  1  0.33383111  0.32833279  0.00935579  1
  In  In46  1  0.00628514  0.82608127  0.17575137  1
  In  In47  1  0.80824303  0.49853043  0.33154389  1
  In  In48  1  0.48321020  0.35092944  0.83950201  1
  In  In49  1  -0.01987475  0.67849696  0.33675566  1
  In  In50  1  0.49686275  0.33288678  0.17541457  1
  In  In51  1  0.00682671  0.00589917  -0.01089684  1
  In  In52  1  0.50192140  0.50040116  0.34863923  1
  In  In53  1  0.64310896  0.16290280  0.17471203  1
  In  In54  1  0.18246399  0.16424000  -0.00765727  1
  In  In55  1  0.51624727  0.66522785  0.81673725  1
  In  In56  1  0.67134861  0.14879781  0.47374602  1
  In  In57  1  0.35756154  0.68229838  -0.01921321  1
  In  In58  1  0.68829353  0.35043093  0.00769039  1
  In  In59  1  0.50760842  0.84773019  0.01864149  1
  In  In60  1  0.84393531  0.00388731  0.81883448  1
  In  In61  1  -0.03762060  0.16290383  0.18123013  1
  In  In62  1  0.84080675  0.81062310  0.00852487  1
  In  In63  1  0.14172409  0.84796870  -0.00030778  1
  In  In64  1  0.34048033  0.84432819  0.49634154  1
  In  In65  1  0.80702425  0.19208500  0.00577783  1
  In  In66  1  0.14277749  0.36281761  0.80528317  1
  In  In67  1  0.66106064  0.51059022  0.16597329  1
  In  In68  1  0.17236236  0.67353261  0.17869839  1
  In  In69  1  -0.01214926  0.85074168  0.46644061  1
  In  In70  1  0.35231664  0.49598749  0.19634188  1
  In  In71  1  0.34885948  0.16962684  0.49751224  1
  Te  Te72  1  0.08224526  0.09681981  0.08822841  1
  Te  Te73  1  0.07403651  0.08267645  0.40257596  1
  Te  Te74  1  0.08824040  0.08237027  0.74602484  1
  Te  Te75  1  0.05557060  0.44243115  0.07705242  1
  Te  Te76  1  0.08870923  0.42172985  0.41850308  1
  Te  Te77  1  0.03584804  0.43676858  0.73412626  1
  Te  Te78  1  0.07574459  0.73141138  0.07415371  1
  Te  Te79  1  0.08393360  0.75254487  0.41005228  1
  Te  Te80  1  0.07944057  0.75760550  0.74452658  1
  Te  Te81  1  0.42953395  0.10197530  0.12251033  1
  Te  Te82  1  0.38831984  0.06067988  0.40149361  1
  Te  Te83  1  0.41704542  0.08101779  0.74070141  1
  Te  Te84  1  0.42528235  0.42789294  0.08046273  1
  Te  Te85  1  0.40414830  0.40543805  0.41600253  1
  Te  Te86  1  0.41810052  0.42125695  0.72804909  1
  Te  Te87  1  0.41438257  0.75730163  0.09879217  1
  Te  Te88  1  0.44983642  0.75716124  0.41715645  1
  Te  Te89  1  0.39667544  0.72111144  0.73754716  1
  Te  Te90  1  0.76189011  0.08353383  0.10392787  1
  Te  Te91  1  0.77829848  0.04957069  0.43031004  1
  Te  Te92  1  0.73463627  0.08870113  0.75234846  1
  Te  Te93  1  0.78425325  0.44885967  0.07590646  1
  Te  Te94  1  0.74158706  0.40188166  0.42797568  1
  Te  Te95  1  0.76745157  0.44475284  0.71156021  1
  Te  Te96  1  0.72425903  0.77437646  0.09434029  1
  Te  Te97  1  0.74660061  0.75139196  0.42232288  1
  Te  Te98  1  0.76240729  0.69819223  0.73363837  1
  Te  Te99  1  0.07784252  0.25040354  0.24688606  1
  Te  Te100  1  0.08361748  0.27711029  0.58834031  1
  Te  Te101  1  0.09469604  0.26995639  0.92603733  1
  Te  Te102  1  0.06046668  0.58646103  0.23557749  1
  Te  Te103  1  0.10854987  0.59950143  0.58323188  1
  Te  Te104  1  0.08781560  0.58461105  0.91005491  1
  Te  Te105  1  0.09789846  0.88627767  0.27566197  1
  Te  Te106  1  0.07135403  0.91971003  0.57577169  1
  Te  Te107  1  0.07707528  0.92214688  0.89118232  1
  Te  Te108  1  0.41942722  0.21396690  0.23478199  1
  Te  Te109  1  0.42344401  0.26273752  0.58428711  1
  Te  Te110  1  0.41880403  0.23822695  0.92170345  1
  Te  Te111  1  0.45052523  0.60103356  0.24573573  1
  Te  Te112  1  0.40374778  0.55217965  0.58518118  1
  Te  Te113  1  0.42409258  0.57404214  0.90279352  1
  Te  Te114  1  0.44681417  0.93144422  0.31164832  1
  Te  Te115  1  0.43347117  0.92589552  0.57883718  1
  Te  Te116  1  0.41425197  0.91114101  0.91000746  1
  Te  Te117  1  0.74040467  0.24572751  0.26138292  1
  Te  Te118  1  0.73541880  0.23953036  0.58760959  1
  Te  Te119  1  0.76578636  0.28514034  0.89193938  1
  Te  Te120  1  0.75611268  0.60519027  0.23775331  1
  Te  Te121  1  0.79412059  0.57466162  0.62659865  1
  Te  Te122  1  0.75997380  0.59054788  0.90471823  1
  Te  Te123  1  0.71011008  0.87259434  0.29683821  1
  Te  Te124  1  0.74697245  0.90766574  0.57525694  1
  Te  Te125  1  0.74957465  0.92397411  0.91546259  1
  Te  Te126  1  0.25699549  0.23701052  0.10295598  1
  Te  Te127  1  0.23602826  0.24662015  0.42309526  1
  Te  Te128  1  0.25788520  0.27373628  0.75129182  1
  Te  Te129  1  0.27068561  0.58766972  0.09400911  1
  Te  Te130  1  0.26586151  0.58387451  0.41964688  1
  Te  Te131  1  0.21455115  0.54962666  0.70758516  1
  Te  Te132  1  0.25746499  0.90714177  0.08139317  1
  Te  Te133  1  0.24686423  0.91671985  0.40771172  1
  Te  Te134  1  0.25132901  0.92059405  0.72009868  1
  Te  Te135  1  0.58463113  0.25965457  0.07278264  1
  Te  Te136  1  0.57125834  0.24853208  0.43194459  1
  Te  Te137  1  0.58057315  0.24199436  0.77353474  1
  Te  Te138  1  0.57074325  0.58407823  0.07810211  1
  Te  Te139  1  0.60438835  0.58245012  0.42351390  1
  Te  Te140  1  0.57649405  0.56895394  0.72316188  1
  Te  Te141  1  0.56854424  0.93237101  0.12493522  1
  Te  Te142  1  0.58657148  0.93045794  0.38454755  1
  Te  Te143  1  0.59061733  0.89474038  0.75635724  1
  Te  Te144  1  0.92465064  0.26798446  0.07148496  1
  Te  Te145  1  0.90060443  0.22739957  0.42198662  1
  Te  Te146  1  0.91312278  0.27441493  0.76185140  1
  Te  Te147  1  0.86370667  0.58464854  0.09021099  1
  Te  Te148  1  0.89963740  0.57986066  0.42232614  1
  Te  Te149  1  0.95161087  0.56245037  0.77241793  1
  Te  Te150  1  0.91747510  0.92157976  0.08011228  1
  Te  Te151  1  0.89232109  0.94370492  0.40229584  1
  Te  Te152  1  0.91705357  0.90300070  0.74324159  1
  Te  Te153  1  0.26210905  0.05798794  0.23576867  1
  Te  Te154  1  0.25585225  0.08778504  0.58783698  1
  Te  Te155  1  0.25255757  0.05705817  0.91416862  1
  Te  Te156  1  0.23498026  0.41165479  0.24620988  1
  Te  Te157  1  0.20653839  0.37602034  0.58771698  1
  Te  Te158  1  0.25581794  0.41767387  0.91355118  1
  Te  Te159  1  0.26415280  0.76743586  0.25659805  1
  Te  Te160  1  0.27353098  0.73906734  0.57490206  1
  Te  Te161  1  0.23802321  0.74957820  0.91688511  1
  Te  Te162  1  0.60856036  0.06365150  0.28083836  1
  Te  Te163  1  0.56935382  0.06568067  0.55780877  1
  Te  Te164  1  0.57318209  0.07395270  0.94766561  1
  Te  Te165  1  0.59324053  0.41244799  0.26148121  1
  Te  Te166  1  0.58354893  0.43487976  0.58813339  1
  Te  Te167  1  0.58985289  0.42611309  0.91860523  1
  Te  Te168  1  0.60727651  0.78869420  0.21425015  1
  Te  Te169  1  0.59377520  0.73357988  0.59263732  1
  Te  Te170  1  0.58501223  0.75794926  0.91989871  1
  Te  Te171  1  0.93206097  0.03327127  0.25754909  1
  Te  Te172  1  0.92263629  0.07387072  0.59344495  1
  Te  Te173  1  0.90862105  0.10403938  0.92100447  1
  Te  Te174  1  0.91543092  0.41726500  0.25665468  1
  Te  Te175  1  0.94219736  0.41599821  0.59907700  1
  Te  Te176  1  0.88482239  0.48264938  0.89009869  1
  Te  Te177  1  0.89686708  0.76365789  0.24991059  1
  Te  Te178  1  0.92554267  0.74711311  0.56476971  1
  Te  Te179  1  0.92208595  0.74687454  0.90630426  1
