# generated using pymatgen
data_In2Te3
_symmetry_space_group_name_H-M   'P 1'
_cell_length_a   18.78747297
_cell_length_b   18.80423655
_cell_length_c   18.79028950
_cell_angle_alpha   89.87930387
_cell_angle_beta   89.93979939
_cell_angle_gamma   90.00663508
_symmetry_Int_Tables_number   1
_chemical_formula_structural   In2Te3
_chemical_formula_sum   'In72 Te108'
_cell_volume   6638.29180737
_cell_formula_units_Z   36
loop_
 _symmetry_equiv_pos_site_id
 _symmetry_equiv_pos_as_xyz
  1  'x, y, z'
loop_
 _atom_site_type_symbol
 _atom_site_label
 _atom_site_symmetry_multiplicity
 _atom_site_fract_x
 _atom_site_fract_y
 _atom_site_fract_z
 _atom_site_occupancy
  In  In0  1  0.47308457  0.32216376  0.81881542  1
  In  In1  1  0.33163749  0.32270971  -0.00082531  1
  In  In2  1  0.47148653  0.68525992  0.48765130  1
  In  In3  1  0.17407944  0.67775113  0.82936353  1
  In  In4  1  0.82541325  0.33914655  0.84571283  1
  In  In5  1  0.83900241  0.31671631  0.15762506  1
  In  In6  1  0.01497118  0.15698128  0.85579695  1
  In  In7  1  0.84095188  0.50672362  -0.01865219  1
  In  In8  1  0.00862545  -0.01170062  0.00173660  1
  In  In9  1  0.86732719  0.86089850  0.68546505  1
  In  In10  1  0.33360673  0.17768458  0.48709484  1
  In  In11  1  0.49364694  -0.01080995  0.83960336  1
  In  In12  1  0.17352378  0.00475052  0.17920375  1
  In  In13  1  0.50510467  0.34046726  0.14230184  1
  In  In14  1  0.16154529  0.49847899  0.31827338  1
  In  In15  1  0.49034546  0.16170629  0.33708381  1
  In  In16  1  0.66471091  0.67889593  0.29827772  1
  In  In17  1  0.33082318  0.65854454  0.66344435  1
  In  In18  1  0.84173521  0.65551391  0.49178337  1
  In  In19  1  0.65950212  0.30979243  -0.00881493  1
  In  In20  1  0.66759184  0.32440268  0.33055936  1
  In  In21  1  0.16524637  -0.00200040  0.50014029  1
  In  In22  1  0.48288653  0.47042751  0.66054476  1
  In  In23  1  -0.00057288  0.31566951  0.31859699  1
  In  In24  1  0.66013493  0.50320693  0.16807676  1
  In  In25  1  0.85200063  0.68079329  0.86673935  1
  In  In26  1  0.32608538  -0.00050789  0.67222422  1
  In  In27  1  -0.01865487  0.01849091  0.32079218  1
  In  In28  1  0.00826457  0.48376366  0.82300114  1
  In  In29  1  0.31114451  0.01470060  -0.02487730  1
  In  In30  1  -0.00290386  0.15903312  0.16459504  1
  In  In31  1  0.32994824  0.36227883  0.33378959  1
  In  In32  1  0.67425749  0.15900311  0.82693236  1
  In  In33  1  0.17456876  0.31101559  0.83196650  1
  In  In34  1  0.48882744  0.83864418  0.33262658  1
  In  In35  1  0.67915329  0.49756432  0.82149575  1
  In  In36  1  0.65805525  0.16622057  0.48879195  1
  In  In37  1  0.31405077  0.16632188  0.15944195  1
  In  In38  1  0.85192203  0.47727741  0.66322761  1
  In  In39  1  0.83874117  0.86247722  0.31038830  1
  In  In40  1  0.68526487  0.02439775  0.02888997  1
  In  In41  1  0.03440157  0.66895936  0.67588003  1
  In  In42  1  0.01022238  0.68267812  0.01493820  1
  In  In43  1  0.34295386  0.65893915  0.01366076  1
  In  In44  1  0.68295936  0.69227328  0.05582844  1
  In  In45  1  0.81795862  0.16559893  0.67047142  1
  In  In46  1  0.68816519  0.84452862  0.86560613  1
  In  In47  1  0.63022103  0.47909018  0.47236138  1
  In  In48  1  0.00223418  0.50131947  0.15002813  1
  In  In49  1  0.02026398  0.01515415  0.68721241  1
  In  In50  1  0.47463664  0.84980807  0.67661511  1
  In  In51  1  0.01669570  0.67094412  0.35132335  1
  In  In52  1  0.17911254  0.33600508  0.51251864  1
  In  In53  1  -0.00587076  0.51318785  0.51366254  1
  In  In54  1  0.19380092  0.65574315  0.49215331  1
  In  In55  1  0.49034637  0.49862156  0.00971328  1
  In  In56  1  0.00343903  0.33582797  0.65740354  1
  In  In57  1  0.48883880  -0.00642000  0.15598381  1
  In  In58  1  0.32153740  0.84417622  0.84714576  1
  In  In59  1  0.48119948  0.18365892  0.65249713  1
  In  In60  1  0.67227772  0.66695010  0.66779298  1
  In  In61  1  0.81230556  0.01076922  0.50047489  1
  In  In62  1  0.51224644  0.66122905  0.87091693  1
  In  In63  1  0.66396131  0.03748717  0.66824272  1
  In  In64  1  0.18185337  0.50548401  0.02141062  1
  In  In65  1  0.32841026  0.82217422  0.48759763  1
  In  In66  1  0.00594012  0.83365064  0.15856962  1
  In  In67  1  0.00250566  0.19207701  0.49204113  1
  In  In68  1  0.30713638  0.81948353  0.16793042  1
  In  In69  1  0.68007775  -0.01324821  0.30606989  1
  In  In70  1  0.65529886  0.84397373  0.48117504  1
  In  In71  1  0.02546235  0.80997320  0.48624034  1
  Te  Te72  1  0.10027194  0.08617094  0.07426830  1
  Te  Te73  1  0.08151758  0.09152785  0.40914840  1
  Te  Te74  1  0.12100628  0.09008459  0.77056538  1
  Te  Te75  1  0.09574292  0.40524417  0.08925171  1
  Te  Te76  1  0.07664105  0.41290998  0.42489425  1
  Te  Te77  1  0.10785190  0.41626788  0.73292292  1
  Te  Te78  1  0.11290858  0.75256508  0.09480341  1
  Te  Te79  1  0.13715428  0.76144640  0.38713439  1
  Te  Te80  1  0.07024579  0.77258072  0.77624718  1
  Te  Te81  1  0.40817864  0.08978011  0.06649147  1
  Te  Te82  1  0.39023489  0.07147102  0.39989496  1
  Te  Te83  1  0.41570172  0.09209473  0.75742181  1
  Te  Te84  1  0.38882380  0.43001827  0.09957634  1
  Te  Te85  1  0.42062275  0.44077275  0.42072760  1
  Te  Te86  1  0.37541452  0.40809145  0.74540120  1
  Te  Te87  1  0.42062987  0.74472780  0.10715193  1
  Te  Te88  1  0.38419560  0.72505915  0.36724516  1
  Te  Te89  1  0.41892841  0.74225127  0.76969239  1
  Te  Te90  1  0.76490069  0.10945793  0.12241226  1
  Te  Te91  1  0.75255184  0.09373914  0.38950552  1
  Te  Te92  1  0.77522709  0.05677029  0.76882281  1
  Te  Te93  1  0.74248164  0.41993477  0.06426058  1
  Te  Te94  1  0.74759073  0.42651461  0.39989699  1
  Te  Te95  1  0.74174252  0.39350545  0.72982193  1
  Te  Te96  1  0.78768306  0.78847187  0.09548764  1
  Te  Te97  1  0.76310555  0.76028690  0.41120320  1
  Te  Te98  1  0.76055321  0.75303188  0.75695484  1
  Te  Te99  1  0.09676501  0.23904688  0.24041574  1
  Te  Te100  1  0.10147548  0.23449536  0.60029182  1
  Te  Te101  1  0.08721584  0.25713326  0.94009574  1
  Te  Te102  1  0.08513397  0.59972505  0.23312676  1
  Te  Te103  1  0.11207116  0.56921521  0.59121369  1
  Te  Te104  1  0.07821366  0.58066972  0.91737286  1
  Te  Te105  1  0.07970323  0.91790581  0.26338874  1
  Te  Te106  1  0.08031900  0.90935630  0.59228007  1
  Te  Te107  1  0.06330426  0.89739524  0.89522464  1
  Te  Te108  1  0.41472941  0.25799639  0.24354769  1
  Te  Te109  1  0.39794976  0.28342186  0.57521740  1
  Te  Te110  1  0.43625980  0.23923740  0.93440392  1
  Te  Te111  1  0.43695688  0.51432852  0.29451547  1
  Te  Te112  1  0.40903035  0.57083720  0.56648770  1
  Te  Te113  1  0.40101761  0.56470033  0.90459504  1
  Te  Te114  1  0.39177881  0.92154926  0.24828586  1
  Te  Te115  1  0.41256050  0.92786763  0.56523953  1
  Te  Te116  1  0.42090046  0.90564243  0.94344175  1
  Te  Te117  1  0.72363446  0.24199631  0.21814873  1
  Te  Te118  1  0.75035021  0.24835828  0.56962980  1
  Te  Te119  1  0.76947028  0.22441822  0.92854707  1
  Te  Te120  1  0.75985028  0.58182937  0.24334185  1
  Te  Te121  1  0.75203166  0.56977053  0.58228642  1
  Te  Te122  1  0.72690685  0.60020613  0.92612457  1
  Te  Te123  1  0.72844846  0.88180788  0.20711192  1
  Te  Te124  1  0.74255183  0.90937389  0.59228307  1
  Te  Te125  1  0.77182483  0.93898353  0.93981754  1
  Te  Te126  1  0.22561719  0.23987864  0.06472662  1
  Te  Te127  1  0.23649583  0.25488851  0.39878066  1
  Te  Te128  1  0.27661310  0.21599397  0.78103180  1
  Te  Te129  1  0.26609945  0.58186205  0.11576736  1
  Te  Te130  1  0.26504039  0.55379921  0.41181042  1
  Te  Te131  1  0.24670411  0.57612009  0.75202110  1
  Te  Te132  1  0.23779694  0.92004492  0.06961177  1
  Te  Te133  1  0.25317749  0.92180693  0.40815929  1
  Te  Te134  1  0.23496549  0.91645549  0.75360306  1
  Te  Te135  1  0.57584799  0.22661171  0.07987755  1
  Te  Te136  1  0.56076928  0.26522379  0.42392902  1
  Te  Te137  1  0.58599480  0.25013343  0.74192676  1
  Te  Te138  1  0.56413868  0.59816940  0.09717038  1
  Te  Te139  1  0.58539664  0.61208585  0.41293779  1
  Te  Te140  1  0.56914102  0.58282427  0.74417541  1
  Te  Te141  1  0.59179143  0.91942021  0.07947010  1
  Te  Te142  1  0.57150743  0.94477333  0.40793425  1
  Te  Te143  1  0.59427090  0.91001329  0.75120994  1
  Te  Te144  1  0.92917423  0.24750342  0.06497578  1
  Te  Te145  1  0.90244630  0.22868454  0.39064047  1
  Te  Te146  1  0.92166115  0.25075535  0.75490641  1
  Te  Te147  1  0.90086754  0.59840774  0.08508463  1
  Te  Te148  1  0.91378059  0.56481885  0.39405404  1
  Te  Te149  1  0.91079522  0.58517420  0.75410505  1
  Te  Te150  1  0.90503056  0.91962846  0.08989361  1
  Te  Te151  1  0.92155487  0.91714717  0.43422042  1
  Te  Te152  1  0.94699918  0.93170472  0.79259859  1
  Te  Te153  1  0.25905856  0.08410692  0.27095050  1
  Te  Te154  1  0.24615525  0.09669809  0.58537898  1
  Te  Te155  1  0.23589165  0.10996155  0.88617922  1
  Te  Te156  1  0.23108544  0.40170507  0.23092190  1
  Te  Te157  1  0.28705001  0.39192538  0.59723951  1
  Te  Te158  1  0.24919651  0.42008040  0.91436459  1
  Te  Te159  1  0.25306806  0.73670233  0.27967698  1
  Te  Te160  1  0.24040534  0.76105365  0.59743247  1
  Te  Te161  1  0.24372057  0.75252322  0.94102870  1
  Te  Te162  1  0.57918756  0.08359460  0.24087133  1
  Te  Te163  1  0.55786846  0.08060996  0.56922320  1
  Te  Te164  1  0.58391078  0.08058520  0.91965891  1
  Te  Te165  1  0.56252740  0.42847650  0.26158060  1
  Te  Te166  1  0.58813804  0.39766006  0.58824081  1
  Te  Te167  1  0.57830045  0.41745705  0.90735645  1
  Te  Te168  1  0.57006424  0.76831929  0.22837348  1
  Te  Te169  1  0.57485366  0.75420030  0.58481930  1
  Te  Te170  1  0.58925072  0.76372843  0.95031519  1
  Te  Te171  1  0.88380178  0.06796309  0.21594400  1
  Te  Te172  1  0.92080680  0.08192811  0.58272783  1
  Te  Te173  1  0.91454890  0.08557329  0.93724404  1
  Te  Te174  1  0.91264448  0.41761695  0.24313987  1
  Te  Te175  1  0.90787672  0.39005612  0.55183892  1
  Te  Te176  1  0.93701085  0.40086522  0.92982014  1
  Te  Te177  1  0.92243606  0.74755748  0.25678177  1
  Te  Te178  1  0.92216313  0.74113907  0.58893532  1
  Te  Te179  1  0.92854499  0.78365150  0.93867745  1
