# generated using pymatgen
data_In2Te3
_symmetry_space_group_name_H-M   'P 1'
_cell_length_a   18.76272380
_cell_length_b   18.75917252
_cell_length_c   18.75988862
_cell_angle_alpha   90.01578660
_cell_angle_beta   89.96527906
_cell_angle_gamma   89.97918149
_symmetry_Int_Tables_number   1
_chemical_formula_structural   In2Te3
_chemical_formula_sum   'In72 Te108'
_cell_volume   6602.97561581
_cell_formula_units_Z   36
loop_
 _symmetry_equiv_pos_site_id
 _symmetry_equiv_pos_as_xyz
  1  'x, y, z'
loop_
 _atom_site_type_symbol
 _atom_site_label
 _atom_site_symmetry_multiplicity
 _atom_site_fract_x
 _atom_site_fract_y
 _atom_site_fract_z
 _atom_site_occupancy
  In  In0  1  0.29850815  0.65579672  0.33778781  1
  In  In1  1  0.49487533  0.14189060  -0.00912593  1
  In  In2  1  0.49613771  0.86549691  -0.00390701  1
  In  In3  1  0.82622644  0.65655251  0.82909850  1
  In  In4  1  0.81823887  0.15526530  0.33517571  1
  In  In5  1  0.49762676  0.00084129  0.51953581  1
  In  In6  1  0.31860926  0.82141487  0.17982073  1
  In  In7  1  0.32648373  0.00474515  -0.00803377  1
  In  In8  1  -0.02017987  0.83766084  0.49887575  1
  In  In9  1  0.69145453  0.35579199  0.33829773  1
  In  In10  1  0.31334696  0.15565848  0.52489892  1
  In  In11  1  0.65244735  0.18420488  0.81782144  1
  In  In12  1  0.51195006  0.66251969  0.50948638  1
  In  In13  1  0.82922048  0.33270723  0.50753126  1
  In  In14  1  0.01317042  -0.00633856  0.65520638  1
  In  In15  1  -0.02659425  0.37299769  0.33229492  1
  In  In16  1  0.01947216  0.15511286  0.50327144  1
  In  In17  1  0.67735380  0.67074310  0.35592596  1
  In  In18  1  0.49702665  0.33812861  0.51421201  1
  In  In19  1  0.68166283  0.80739188  0.49679867  1
  In  In20  1  0.16027919  0.15606155  0.67367752  1
  In  In21  1  0.15970253  0.34679172  0.82397561  1
  In  In22  1  0.83544206  0.50879717  0.66262229  1
  In  In23  1  0.67456444  0.34508691  -0.02539193  1
  In  In24  1  0.13996908  -0.03010758  0.20071266  1
  In  In25  1  0.68346890  -0.01158404  0.31606950  1
  In  In26  1  -0.02055261  0.52502323  0.48163751  1
  In  In27  1  -0.00437022  0.17164032  0.16343543  1
  In  In28  1  0.15880405  0.66140105  0.49701502  1
  In  In29  1  0.66185630  0.82284069  0.81573762  1
  In  In30  1  0.29163412  0.65789125  -0.00396996  1
  In  In31  1  0.84786176  -0.01471430  0.18560945  1
  In  In32  1  0.66736460  0.66000184  0.63700942  1
  In  In33  1  0.32874131  0.85662949  0.50736048  1
  In  In34  1  0.32792789  0.67122156  0.67242090  1
  In  In35  1  0.66128214  0.00988914  0.00632361  1
  In  In36  1  0.49350564  0.67572272  0.16958802  1
  In  In37  1  0.68462029  0.16289744  0.50713743  1
  In  In38  1  0.31399069  0.34901835  0.63487631  1
  In  In39  1  0.51288063  0.32872640  0.17262942  1
  In  In40  1  0.50515190  0.16277033  0.32253280  1
  In  In41  1  0.51479186  0.49953844  0.66170584  1
  In  In42  1  0.16513282  0.16703258  -0.01422702  1
  In  In43  1  0.69776026  0.67629409  0.00840351  1
  In  In44  1  0.01389024  0.32978067  0.01674180  1
  In  In45  1  -0.00962866  -0.00982333  -0.00955488  1
  In  In46  1  0.32251508  -0.02320354  0.33804125  1
  In  In47  1  0.68606879  0.16654600  0.17127071  1
  In  In48  1  0.00571084  0.82401816  0.82509022  1
  In  In49  1  0.00830050  0.49136070  0.80895049  1
  In  In50  1  0.33715331  0.50952334  0.17493186  1
  In  In51  1  0.83352391  0.32618873  0.81640819  1
  In  In52  1  0.85624061  0.00328734  0.82944159  1
  In  In53  1  -0.00237884  0.66395820  0.02815529  1
  In  In54  1  0.17045361  0.15619571  0.34459702  1
  In  In55  1  0.82481058  0.84176261  0.02387111  1
  In  In56  1  0.36416809  0.14681867  0.81031474  1
  In  In57  1  0.13413279  0.52719314  0.33671523  1
  In  In58  1  0.16575294  0.33183817  0.15791038  1
  In  In59  1  0.83902759  0.51209739  0.01054618  1
  In  In60  1  0.49813340  0.82276216  0.33295093  1
  In  In61  1  0.84437819  0.17633010  0.66048934  1
  In  In62  1  0.48452516  0.67595444  0.81935238  1
  In  In63  1  0.66831354  -0.02125287  0.65217949  1
  In  In64  1  0.16730020  0.67896440  0.81785198  1
  In  In65  1  0.52380979  0.46988119  -0.01858988  1
  In  In66  1  0.14637021  0.82493552  -0.01868448  1
  In  In67  1  0.32556362  0.31352093  -0.01589212  1
  In  In68  1  0.15457665  0.50375685  0.02602340  1
  In  In69  1  0.34007039  0.51566080  0.81282995  1
  In  In70  1  0.33599909  0.32823187  0.35203297  1
  In  In71  1  0.68102780  0.52016237  0.18182202  1
  Te  Te72  1  0.09004094  0.07566380  0.08492074  1
  Te  Te73  1  0.09537618  0.05601692  0.42307090  1
  Te  Te74  1  0.06832656  0.07977554  0.76240139  1
  Te  Te75  1  0.05323128  0.43813660  0.12182661  1
  Te  Te76  1  0.08207163  0.41528009  0.42719431  1
  Te  Te77  1  0.09740685  0.42125010  0.71159083  1
  Te  Te78  1  0.09074199  0.75518457  0.09878349  1
  Te  Te79  1  0.05438159  0.73296572  0.40963185  1
  Te  Te80  1  0.09123978  0.76099819  0.72181395  1
  Te  Te81  1  0.41587417  0.06986306  0.09118344  1
  Te  Te82  1  0.41073636  0.08640404  0.41630998  1
  Te  Te83  1  0.43556203  0.05441821  0.72213180  1
  Te  Te84  1  0.41049273  0.41225370  0.08215012  1
  Te  Te85  1  0.42455448  0.42399740  0.41876515  1
  Te  Te86  1  0.41421784  0.40889952  0.73763723  1
  Te  Te87  1  0.40417922  0.74949609  0.06903903  1
  Te  Te88  1  0.40292392  0.74611531  0.42383986  1
  Te  Te89  1  0.41320295  0.77834110  0.73646875  1
  Te  Te90  1  0.77443572  0.07745037  0.08410742  1
  Te  Te91  1  0.75972677  0.05371224  0.43326814  1
  Te  Te92  1  0.75168107  0.08075975  0.74423132  1
  Te  Te93  1  0.74705023  0.41611309  0.08888279  1
  Te  Te94  1  0.77152874  0.44426092  0.42634587  1
  Te  Te95  1  0.74777187  0.42516765  0.74907884  1
  Te  Te96  1  0.77534216  0.73756192  0.11757335  1
  Te  Te97  1  0.79635273  0.74012906  0.42232511  1
  Te  Te98  1  0.76142323  0.74857028  0.72502576  1
  Te  Te99  1  0.08006411  0.25696308  0.26199617  1
  Te  Te100  1  0.08460516  0.25340755  0.59178021  1
  Te  Te101  1  0.07005370  0.24849169  0.89949984  1
  Te  Te102  1  0.04077307  0.60499970  0.25116702  1
  Te  Te103  1  0.05679783  0.59879736  0.58451439  1
  Te  Te104  1  0.08206924  0.58758143  0.91680123  1
  Te  Te105  1  0.03676832  0.89449284  0.28812469  1
  Te  Te106  1  0.09493748  0.90207794  0.57207848  1
  Te  Te107  1  0.09159557  0.93404443  0.88943176  1
  Te  Te108  1  0.40483957  0.24457659  0.24145731  1
  Te  Te109  1  0.41872124  0.23822333  0.59784806  1
  Te  Te110  1  0.43617378  0.25201438  0.90179996  1
  Te  Te111  1  0.42318578  0.58813917  0.27328589  1
  Te  Te112  1  0.40900394  0.57693377  0.58288935  1
  Te  Te113  1  0.41650152  0.58099399  0.92880541  1
  Te  Te114  1  0.42392365  0.91651875  0.23846222  1
  Te  Te115  1  0.38548015  0.95304456  0.61145310  1
  Te  Te116  1  0.40919200  0.92642256  0.89054005  1
  Te  Te117  1  0.77406781  0.26926793  0.24231715  1
  Te  Te118  1  0.73298831  0.26760929  0.60689292  1
  Te  Te119  1  0.76012140  0.23316031  0.91549261  1
  Te  Te120  1  0.77567055  0.58018091  0.28130879  1
  Te  Te121  1  0.75603020  0.57492655  0.55359379  1
  Te  Te122  1  0.73540015  0.56468162  0.91024789  1
  Te  Te123  1  0.77622151  0.88446919  0.26800068  1
  Te  Te124  1  0.77134274  0.90370012  0.57156416  1
  Te  Te125  1  0.75131551  0.91201782  0.90793040  1
  Te  Te126  1  0.25797864  0.22846233  0.09085522  1
  Te  Te127  1  0.23470098  0.25695172  0.44092115  1
  Te  Te128  1  0.26195856  0.25534250  0.75573788  1
  Te  Te129  1  0.22615036  0.60118842  0.12143404  1
  Te  Te130  1  0.25443872  0.55037737  0.44228911  1
  Te  Te131  1  0.22595812  0.56811096  0.72798967  1
  Te  Te132  1  0.23744615  0.91094211  0.08048339  1
  Te  Te133  1  0.22017284  0.90538069  0.41703883  1
  Te  Te134  1  0.29154750  0.87920793  0.78408750  1
  Te  Te135  1  0.59178160  0.24525190  0.07089512  1
  Te  Te136  1  0.60095562  0.24657679  0.40648361  1
  Te  Te137  1  0.56290110  0.28331924  0.75854856  1
  Te  Te138  1  0.57816250  0.58103772  0.08096779  1
  Te  Te139  1  0.58994239  0.57217432  0.42394980  1
  Te  Te140  1  0.59379261  0.59119312  0.75600422  1
  Te  Te141  1  0.60293957  0.90302300  0.08988275  1
  Te  Te142  1  0.58222274  0.91868802  0.42099791  1
  Te  Te143  1  0.57046669  0.91750149  0.74627022  1
  Te  Te144  1  0.90511779  0.25333281  0.08093914  1
  Te  Te145  1  0.91768369  0.24621947  0.41409541  1
  Te  Te146  1  0.93890772  0.25883508  0.73802731  1
  Te  Te147  1  0.90289688  0.59192702  0.12079463  1
  Te  Te148  1  0.89739669  0.61657957  0.39405087  1
  Te  Te149  1  0.93568081  0.60467177  0.73620168  1
  Te  Te150  1  0.94389759  0.89726911  0.10148956  1
  Te  Te151  1  0.93835740  0.93723445  0.39411218  1
  Te  Te152  1  0.90746749  0.89807008  0.73175098  1
  Te  Te153  1  0.24883262  0.07258986  0.24391020  1
  Te  Te154  1  0.23554599  0.05196203  0.59637335  1
  Te  Te155  1  0.24593417  0.08279043  0.88768991  1
  Te  Te156  1  0.24110208  0.42195699  0.25791850  1
  Te  Te157  1  0.22959262  0.45099334  0.57411639  1
  Te  Te158  1  0.24923073  0.43370600  0.92442117  1
  Te  Te159  1  0.22144479  0.76487723  0.27552527  1
  Te  Te160  1  0.23871135  0.76039982  0.58623636  1
  Te  Te161  1  0.27172417  0.77486443  0.89217614  1
  Te  Te162  1  0.58409011  0.06953267  0.23094268  1
  Te  Te163  1  0.58136364  0.09969996  0.60007727  1
  Te  Te164  1  0.58102760  0.06730517  0.89029662  1
  Te  Te165  1  0.58031733  0.43054481  0.26110998  1
  Te  Te166  1  0.60367102  0.42113824  0.57314624  1
  Te  Te167  1  0.58644452  0.39782305  0.86268480  1
  Te  Te168  1  0.60064500  0.75266815  0.24553420  1
  Te  Te169  1  0.56827484  0.77341104  0.59579907  1
  Te  Te170  1  0.58379148  0.74563202  0.92589172  1
  Te  Te171  1  0.93477915  0.07973126  0.27094027  1
  Te  Te172  1  0.90995420  0.07232517  0.57163309  1
  Te  Te173  1  0.91808741  0.09932661  0.92255743  1
  Te  Te174  1  0.92081018  0.44526900  0.21732698  1
  Te  Te175  1  0.92973325  0.41629928  0.58472608  1
  Te  Te176  1  0.92583902  0.42226408  0.91948952  1
  Te  Te177  1  0.97320076  0.73873271  0.27648633  1
  Te  Te178  1  0.88654544  0.78481380  0.60322389  1
  Te  Te179  1  0.90867670  0.74671637  0.92359177  1
