# generated using pymatgen
data_In2Te3
_symmetry_space_group_name_H-M   'P 1'
_cell_length_a   18.85481152
_cell_length_b   18.86007647
_cell_length_c   18.84643904
_cell_angle_alpha   90.00595776
_cell_angle_beta   90.04780608
_cell_angle_gamma   89.87798207
_symmetry_Int_Tables_number   1
_chemical_formula_structural   In2Te3
_chemical_formula_sum   'In72 Te108'
_cell_volume   6701.83622149
_cell_formula_units_Z   36
loop_
 _symmetry_equiv_pos_site_id
 _symmetry_equiv_pos_as_xyz
  1  'x, y, z'
loop_
 _atom_site_type_symbol
 _atom_site_label
 _atom_site_symmetry_multiplicity
 _atom_site_fract_x
 _atom_site_fract_y
 _atom_site_fract_z
 _atom_site_occupancy
  In  In0  1  0.67710964  0.85500547  0.16484560  1
  In  In1  1  0.50334636  -0.01110155  0.16091985  1
  In  In2  1  0.32734092  0.36685653  0.31010492  1
  In  In3  1  0.85029426  -0.01184068  0.85279508  1
  In  In4  1  0.19121321  0.16205956  0.02257459  1
  In  In5  1  0.02286515  0.32051894  0.30827471  1
  In  In6  1  0.49046987  0.18311391  -0.00392060  1
  In  In7  1  0.17138392  0.35456251  0.84067707  1
  In  In8  1  0.66484783  -0.00390603  0.65261301  1
  In  In9  1  0.15911684  0.82590303  -0.00312020  1
  In  In10  1  0.87949105  0.54831312  0.32588543  1
  In  In11  1  0.64407005  0.49676647  0.85311914  1
  In  In12  1  0.01515634  0.49453430  0.82996783  1
  In  In13  1  0.03294461  0.80869097  0.47574817  1
  In  In14  1  0.49915914  -0.00873083  0.51832643  1
  In  In15  1  0.66657584  0.34814348  0.63614850  1
  In  In16  1  0.82517850  0.15835279  0.31593031  1
  In  In17  1  0.00241214  0.16861682  0.47427630  1
  In  In18  1  0.67627181  0.00023035  0.31532246  1
  In  In19  1  0.29898347  -0.02455008  0.35540227  1
  In  In20  1  0.66483545  0.34221187  0.32065569  1
  In  In21  1  0.64142284  0.67950629  0.67942095  1
  In  In22  1  0.84787602  0.52273599  0.65442006  1
  In  In23  1  0.03717686  0.64228899  0.65674775  1
  In  In24  1  0.47958084  0.83414570  0.67591003  1
  In  In25  1  0.21757582  0.51094929  0.02813517  1
  In  In26  1  0.00177063  -0.01111005  0.33543094  1
  In  In27  1  0.32437713  0.35833325  0.66394916  1
  In  In28  1  0.85069793  0.84051435  0.01450714  1
  In  In29  1  0.47401650  0.63321439  0.51073726  1
  In  In30  1  0.47797002  0.19498335  0.31760684  1
  In  In31  1  0.17896211  0.33432500  0.48871086  1
  In  In32  1  0.34177157  0.15659958  0.50503221  1
  In  In33  1  0.30714689  -0.04141441  0.66838771  1
  In  In34  1  0.84606507  0.35764379  0.51975217  1
  In  In35  1  0.66017825  0.15634637  0.83559014  1
  In  In36  1  0.85900177  0.00837093  0.15488909  1
  In  In37  1  0.66456813  0.68378491  0.00716861  1
  In  In38  1  0.84470915  0.66932552  0.49447457  1
  In  In39  1  0.48897847  0.34948943  0.46273403  1
  In  In40  1  0.68076037  0.83108347  0.84887176  1
  In  In41  1  0.83598603  0.34285031  0.17065456  1
  In  In42  1  0.64129176  0.49777208  0.17931803  1
  In  In43  1  0.15744591  -0.00503097  0.18070690  1
  In  In44  1  0.84493823  0.33618301  0.80236459  1
  In  In45  1  0.48433689  0.65780321  0.16340688  1
  In  In46  1  0.48884356  0.02436288  0.84508563  1
  In  In47  1  0.33490868  -0.00061294  -0.01281407  1
  In  In48  1  0.00559145  0.68274085  0.02469937  1
  In  In49  1  0.30971228  0.82416974  0.83093189  1
  In  In50  1  0.15779612  0.15969565  0.31661966  1
  In  In51  1  0.01457790  -0.00848467  0.64290692  1
  In  In52  1  0.86598472  0.17256509  0.67225035  1
  In  In53  1  0.32668599  0.79539544  0.17088109  1
  In  In54  1  0.49079464  0.80565571  0.33162772  1
  In  In55  1  0.64759847  0.49230034  0.49047064  1
  In  In56  1  0.01636182  0.81644997  0.83664313  1
  In  In57  1  0.18327756  0.63463832  0.82944497  1
  In  In58  1  0.67511601  0.66211475  0.35838721  1
  In  In59  1  0.65341724  0.31913390  -0.00745034  1
  In  In60  1  0.51462451  0.17350966  0.67889869  1
  In  In61  1  0.68344996  0.81285442  0.48017208  1
  In  In62  1  0.34189723  0.18092850  0.86012949  1
  In  In63  1  0.81663486  0.82929137  0.65196444  1
  In  In64  1  0.03089047  0.35113576  0.01781201  1
  In  In65  1  0.16273583  0.15090704  0.66661178  1
  In  In66  1  0.83863639  0.14815611  0.01385341  1
  In  In67  1  0.45889856  0.64052419  0.84536959  1
  In  In68  1  0.84169776  0.52059061  0.00790282  1
  In  In69  1  0.46190109  0.32072142  0.84538742  1
  In  In70  1  0.16425934  0.51490548  0.33728041  1
  In  In71  1  0.30384193  0.65305041  0.31979864  1
  Te  Te72  1  0.08555408  0.08421350  0.08748000  1
  Te  Te73  1  0.10204649  0.06608611  0.42275022  1
  Te  Te74  1  0.06754326  0.07637136  0.75046248  1
  Te  Te75  1  0.10301123  0.44660635  0.10465254  1
  Te  Te76  1  0.07444858  0.41614694  0.41480649  1
  Te  Te77  1  0.09717203  0.42231339  0.73169781  1
  Te  Te78  1  0.10410516  0.74978279  0.11190194  1
  Te  Te79  1  0.09549343  0.71952702  0.37449100  1
  Te  Te80  1  0.11225167  0.74211268  0.74548899  1
  Te  Te81  1  0.41199423  0.08569743  0.08420512  1
  Te  Te82  1  0.42415717  0.07155095  0.40829636  1
  Te  Te83  1  0.40880609  0.07567367  0.72793444  1
  Te  Te84  1  0.36000050  0.48657474  0.08751189  1
  Te  Te85  1  0.37895301  0.43884745  0.42792937  1
  Te  Te86  1  0.40221431  0.43097643  0.76711976  1
  Te  Te87  1  0.43430828  0.76473266  0.07439169  1
  Te  Te88  1  0.39734665  0.72986691  0.42000403  1
  Te  Te89  1  0.38784402  0.73055284  0.73685795  1
  Te  Te90  1  0.74150757  0.07785320  0.09716693  1
  Te  Te91  1  0.75137449  0.07889041  0.41422386  1
  Te  Te92  1  0.75579117  0.07797535  0.74553595  1
  Te  Te93  1  0.74143091  0.42283736  0.07600288  1
  Te  Te94  1  0.75706543  0.42457128  0.41147682  1
  Te  Te95  1  0.74509908  0.43697728  0.74184289  1
  Te  Te96  1  0.76680675  0.74727510  0.10070461  1
  Te  Te97  1  0.78990639  0.76064974  0.38532533  1
  Te  Te98  1  0.75895726  0.73654729  0.75785391  1
  Te  Te99  1  0.10397558  0.24624096  0.20970779  1
  Te  Te100  1  0.08629608  0.24677997  0.57386161  1
  Te  Te101  1  0.10129694  0.25293811  0.92669065  1
  Te  Te102  1  0.07590009  0.61299606  0.26051433  1
  Te  Te103  1  0.14463265  0.59160745  0.57060108  1
  Te  Te104  1  0.08225090  0.58017540  0.93579190  1
  Te  Te105  1  0.07059016  0.89354815  0.24459385  1
  Te  Te106  1  0.10848236  0.88879476  0.58210763  1
  Te  Te107  1  0.05921650  0.91849047  0.93576691  1
  Te  Te108  1  0.38876424  0.26443291  0.22010542  1
  Te  Te109  1  0.42215946  0.25686436  0.58677936  1
  Te  Te110  1  0.36849833  0.28710596  0.97160054  1
  Te  Te111  1  0.39729405  0.56237320  0.24146658  1
  Te  Te112  1  0.37968293  0.59963408  0.61728538  1
  Te  Te113  1  0.38136720  0.56354441  0.94739102  1
  Te  Te114  1  0.40662654  0.90880011  0.25671115  1
  Te  Te115  1  0.39360929  0.88945620  0.55862829  1
  Te  Te116  1  0.42055285  0.90419877  0.90479311  1
  Te  Te117  1  0.73539891  0.24392143  0.22731442  1
  Te  Te118  1  0.76170515  0.24585094  0.58036814  1
  Te  Te119  1  0.76017248  0.25142457  0.90444363  1
  Te  Te120  1  0.74484460  0.57973140  0.25051975  1
  Te  Te121  1  0.72902878  0.59530987  0.57675657  1
  Te  Te122  1  0.74615730  0.59246052  0.91315668  1
  Te  Te123  1  0.78634469  0.91519604  0.25251777  1
  Te  Te124  1  0.75617840  0.92705740  0.55287525  1
  Te  Te125  1  0.74574821  0.92842566  0.94518732  1
  Te  Te126  1  0.26999149  0.26829767  0.08651407  1
  Te  Te127  1  0.26319740  0.23962372  0.40361325  1
  Te  Te128  1  0.25750079  0.24697256  0.74842187  1
  Te  Te129  1  0.27530953  0.60631493  0.13343593  1
  Te  Te130  1  0.23903485  0.59345590  0.44415527  1
  Te  Te131  1  0.27355228  0.57479224  0.72942158  1
  Te  Te132  1  0.25965480  0.91295881  0.08638356  1
  Te  Te133  1  0.22241743  0.87143011  0.43091388  1
  Te  Te134  1  0.21420177  0.92169744  0.77547555  1
  Te  Te135  1  0.56897806  0.25815400  0.09544360  1
  Te  Te136  1  0.58824993  0.24761943  0.41450596  1
  Te  Te137  1  0.59251847  0.27756663  0.76056024  1
  Te  Te138  1  0.57379411  0.57724014  0.06838867  1
  Te  Te139  1  0.55835462  0.57234563  0.39698564  1
  Te  Te140  1  0.56055358  0.57278334  0.74932799  1
  Te  Te141  1  0.56825705  0.89066671  0.07101791  1
  Te  Te142  1  0.58020398  0.90952102  0.40878065  1
  Te  Te143  1  0.58497391  0.91831319  0.75557576  1
  Te  Te144  1  0.92308106  0.25878394  0.07925544  1
  Te  Te145  1  0.90639086  0.26506116  0.40368728  1
  Te  Te146  1  0.95692604  0.26032944  0.74611784  1
  Te  Te147  1  0.92224297  0.59038373  0.10993434  1
  Te  Te148  1  0.94528368  0.56881663  0.45719829  1
  Te  Te149  1  0.92733348  0.59714433  0.75967096  1
  Te  Te150  1  0.95520892  0.92500883  0.07561316  1
  Te  Te151  1  0.92837394  0.90279744  0.43081939  1
  Te  Te152  1  0.91683501  0.90608611  0.74192817  1
  Te  Te153  1  0.26742800  0.07889848  0.24757149  1
  Te  Te154  1  0.24429567  0.06276039  0.57216064  1
  Te  Te155  1  0.23980650  0.07618175  0.89787859  1
  Te  Te156  1  0.20709124  0.41365527  0.23431258  1
  Te  Te157  1  0.22482040  0.43901097  0.58626529  1
  Te  Te158  1  0.27091183  0.45143449  0.89680961  1
  Te  Te159  1  0.22288202  0.77529695  0.27948160  1
  Te  Te160  1  0.24060314  0.80672136  0.57015124  1
  Te  Te161  1  0.25399460  0.72590135  0.93196468  1
  Te  Te162  1  0.57285079  0.09104763  0.24944368  1
  Te  Te163  1  0.59264530  0.10122629  0.56925821  1
  Te  Te164  1  0.59147168  0.07701574  0.94357719  1
  Te  Te165  1  0.55169992  0.40617576  0.24995769  1
  Te  Te166  1  0.54881748  0.42861214  0.58611551  1
  Te  Te167  1  0.54869981  0.41544384  0.93613508  1
  Te  Te168  1  0.59789264  0.74193256  0.24385143  1
  Te  Te169  1  0.57039780  0.75780766  0.56867622  1
  Te  Te170  1  0.57177580  0.73641908  0.89641718  1
  Te  Te171  1  0.94371693  0.09913549  0.24481066  1
  Te  Te172  1  0.91739704  0.07875691  0.56393546  1
  Te  Te173  1  0.92781235  0.09841031  0.90828722  1
  Te  Te174  1  0.93591394  0.42733221  0.24327559  1
  Te  Te175  1  0.94712547  0.42873932  0.59930665  1
  Te  Te176  1  0.91452810  0.41491667  0.92307168  1
  Te  Te177  1  0.93220038  0.67141932  0.26007224  1
  Te  Te178  1  0.93208085  0.74738429  0.59451062  1
  Te  Te179  1  0.91161713  0.74115124  0.91689873  1
