# generated using pymatgen
data_In2Te3
_symmetry_space_group_name_H-M   'P 1'
_cell_length_a   18.80202458
_cell_length_b   18.80342270
_cell_length_c   18.81618831
_cell_angle_alpha   89.94216605
_cell_angle_beta   89.95991251
_cell_angle_gamma   90.05713010
_symmetry_Int_Tables_number   1
_chemical_formula_structural   In2Te3
_chemical_formula_sum   'In72 Te108'
_cell_volume   6652.31234112
_cell_formula_units_Z   36
loop_
 _symmetry_equiv_pos_site_id
 _symmetry_equiv_pos_as_xyz
  1  'x, y, z'
loop_
 _atom_site_type_symbol
 _atom_site_label
 _atom_site_symmetry_multiplicity
 _atom_site_fract_x
 _atom_site_fract_y
 _atom_site_fract_z
 _atom_site_occupancy
  In  In0  1  0.36063619  0.49289588  0.49859139  1
  In  In1  1  0.14267150  0.17430986  -0.01849838  1
  In  In2  1  -0.00441293  0.83158288  0.20003777  1
  In  In3  1  0.16773509  0.67516811  0.15371929  1
  In  In4  1  0.32898768  0.35779292  0.33765842  1
  In  In5  1  0.13738449  0.31962997  0.83026310  1
  In  In6  1  0.17742029  0.84738654  0.01645197  1
  In  In7  1  0.15952314  0.48530767  0.33755556  1
  In  In8  1  0.83300470  0.18058949  0.34220705  1
  In  In9  1  0.33616023  0.46856601  0.81732544  1
  In  In10  1  0.68183251  0.01804471  0.31746851  1
  In  In11  1  0.14566616  0.48859142  0.68107007  1
  In  In12  1  0.66210960  0.33585385  -0.01895146  1
  In  In13  1  0.67338427  0.00245095  0.68901149  1
  In  In14  1  0.00559839  0.00676196  0.33087442  1
  In  In15  1  0.83983656  0.66829332  0.53811702  1
  In  In16  1  -0.00994259  0.02297698  0.68324703  1
  In  In17  1  0.13871773  0.20611310  0.29634969  1
  In  In18  1  0.15245204  0.33004410  0.50833087  1
  In  In19  1  0.01222847  0.63236973  -0.03470393  1
  In  In20  1  0.35707035  0.19418258  0.52169039  1
  In  In21  1  0.50282032  0.35107639  0.15564885  1
  In  In22  1  -0.01410725  0.83332217  0.82500035  1
  In  In23  1  0.12130601  0.81124970  0.32364357  1
  In  In24  1  0.31947258  0.85689031  0.51157215  1
  In  In25  1  0.33897371  0.63476380  0.66592406  1
  In  In26  1  0.51250507  0.00465350  0.83545903  1
  In  In27  1  0.68023773  0.16848634  0.14449910  1
  In  In28  1  0.66772016  0.63901258  0.32794787  1
  In  In29  1  0.51000100  0.64744109  0.82037312  1
  In  In30  1  0.82830202  0.02328017  0.52803711  1
  In  In31  1  0.69121968  0.16763434  0.83723746  1
  In  In32  1  0.34546436  0.80714788  0.86230132  1
  In  In33  1  0.84815866  0.33134722  0.83351433  1
  In  In34  1  0.52028775  0.82813243  -0.02194431  1
  In  In35  1  0.66808405  0.80401493  0.14565128  1
  In  In36  1  0.81826329  0.83232587  -0.00247798  1
  In  In37  1  0.34065033  -0.00727235  0.66068430  1
  In  In38  1  0.14208158  0.63819178  0.51282505  1
  In  In39  1  0.66341487  0.84235627  0.51545501  1
  In  In40  1  0.35156556  0.64547358  0.30920844  1
  In  In41  1  0.66952278  0.49993287  0.16075700  1
  In  In42  1  0.32772942  0.18978472  0.83325471  1
  In  In43  1  0.13368079  0.00011079  0.48771608  1
  In  In44  1  0.82581790  0.00456992  0.16574988  1
  In  In45  1  0.50707005  0.49285370  0.34118017  1
  In  In46  1  0.31936706  0.67125005  0.00459375  1
  In  In47  1  0.70602324  0.82829407  0.81603185  1
  In  In48  1  -0.00806885  0.47896558  0.50913345  1
  In  In49  1  0.34616422  0.16086525  0.16190599  1
  In  In50  1  0.49995701  0.65876495  0.50087595  1
  In  In51  1  0.33458377  0.84350910  0.13880919  1
  In  In52  1  0.85473164  0.32160879  0.15686885  1
  In  In53  1  0.80154633  0.33351035  0.50260252  1
  In  In54  1  0.31264917  0.52127103  0.18132205  1
  In  In55  1  0.82531313  0.51186374  -0.04847392  1
  In  In56  1  -0.02277694  0.65170233  0.34836162  1
  In  In57  1  0.53259271  0.19847686  0.67583552  1
  In  In58  1  -0.03029870  0.03306145  -0.02018800  1
  In  In59  1  0.33352142  0.31148791  -0.02419241  1
  In  In60  1  0.16524284  -0.00046217  0.82398146  1
  In  In61  1  0.68227013  0.65228644  0.69010175  1
  In  In62  1  0.51113390  0.84193799  0.34463857  1
  In  In63  1  -0.00697063  0.47571468  0.15698468  1
  In  In64  1  0.50874311  0.49546806  0.00725945  1
  In  In65  1  0.14821735  0.80243685  0.68505416  1
  In  In66  1  0.34427140  0.03295588  0.35967059  1
  In  In67  1  0.50388100  0.00327849  0.15683364  1
  In  In68  1  0.84275443  0.50142665  0.69536997  1
  In  In69  1  0.46773857  0.02737763  0.51781205  1
  In  In70  1  0.16071970  0.16064658  0.65980548  1
  In  In71  1  0.85303596  0.81978650  0.34773292  1
  Te  Te72  1  0.06969967  0.08382446  0.07510548  1
  Te  Te73  1  0.07630327  0.11803205  0.40772500  1
  Te  Te74  1  0.07598494  0.11302412  0.77838701  1
  Te  Te75  1  0.09033763  0.38692544  0.09339659  1
  Te  Te76  1  0.05911405  0.39103447  0.39985836  1
  Te  Te77  1  0.04709469  0.39618178  0.74106568  1
  Te  Te78  1  0.06471515  0.75582775  0.07864939  1
  Te  Te79  1  0.04952529  0.75413478  0.44981808  1
  Te  Te80  1  0.05043256  0.71277499  0.75762910  1
  Te  Te81  1  0.42768059  0.08724793  0.06345604  1
  Te  Te82  1  0.44732147  0.13499110  0.41204918  1
  Te  Te83  1  0.42098507  0.09354731  0.74160517  1
  Te  Te84  1  0.39109923  0.42169064  0.07787701  1
  Te  Te85  1  0.44690636  0.38578647  0.43301634  1
  Te  Te86  1  0.42683408  0.40951485  0.72097007  1
  Te  Te87  1  0.43251695  0.74698126  0.07725757  1
  Te  Te88  1  0.40985407  0.75081879  0.41814266  1
  Te  Te89  1  0.41678449  0.74297094  0.74448354  1
  Te  Te90  1  0.75824937  0.07830720  0.05814712  1
  Te  Te91  1  0.73715387  0.10145689  0.43282874  1
  Te  Te92  1  0.77812718  0.10552532  0.72884916  1
  Te  Te93  1  0.76141503  0.41648963  0.06853350  1
  Te  Te94  1  0.71327217  0.40234264  0.40435698  1
  Te  Te95  1  0.74324986  0.41756416  0.76984451  1
  Te  Te96  1  0.75322703  0.71277747  0.06430084  1
  Te  Te97  1  0.74145242  0.74557218  0.42400816  1
  Te  Te98  1  0.79286198  0.73923581  0.73667603  1
  Te  Te99  1  0.04960432  0.27599902  0.19594557  1
  Te  Te100  1  0.06106632  0.24685166  0.59095965  1
  Te  Te101  1  0.04006763  0.28320751  0.94669088  1
  Te  Te102  1  0.08463703  0.59141653  0.25490591  1
  Te  Te103  1  0.03809695  0.58566913  0.61208820  1
  Te  Te104  1  0.11995203  0.56955863  0.89038275  1
  Te  Te105  1  0.10166494  0.93624399  0.23609936  1
  Te  Te106  1  0.08715998  0.92366237  0.60935416  1
  Te  Te107  1  0.07418165  0.92183964  0.91954696  1
  Te  Te108  1  0.41561925  0.26652057  0.24817198  1
  Te  Te109  1  0.41836914  0.28686062  0.62204127  1
  Te  Te110  1  0.44273666  0.26293206  0.89028474  1
  Te  Te111  1  0.45185388  0.57385545  0.22239981  1
  Te  Te112  1  0.45287584  0.55279083  0.60518482  1
  Te  Te113  1  0.40418590  0.58000122  0.91305940  1
  Te  Te114  1  0.41253511  0.92818273  0.26484248  1
  Te  Te115  1  0.44092202  0.89686409  0.59260613  1
  Te  Te116  1  0.41232935  0.92484352  0.92829686  1
  Te  Te117  1  0.74481983  0.25992795  0.24624928  1
  Te  Te118  1  0.72870503  0.26115872  0.61463177  1
  Te  Te119  1  0.77953795  0.24506531  0.94270933  1
  Te  Te120  1  0.76886743  0.56486083  0.25126775  1
  Te  Te121  1  0.74778968  0.55873434  0.58618131  1
  Te  Te122  1  0.71968902  0.61336452  0.93139184  1
  Te  Te123  1  0.74726950  0.89547612  0.25234575  1
  Te  Te124  1  0.76537223  0.90784736  0.60644947  1
  Te  Te125  1  0.75071531  0.93126283  0.91131427  1
  Te  Te126  1  0.24529358  0.23946578  0.07669908  1
  Te  Te127  1  0.25100809  0.25184470  0.41843098  1
  Te  Te128  1  0.24441271  0.26622233  0.73219960  1
  Te  Te129  1  0.22235887  0.56711813  0.06413070  1
  Te  Te130  1  0.25763995  0.58038147  0.41606470  1
  Te  Te131  1  0.23362564  0.58416008  0.76509919  1
  Te  Te132  1  0.25008177  0.95220782  0.09001330  1
  Te  Te133  1  0.23450475  0.92011198  0.40261919  1
  Te  Te134  1  0.25739444  0.90008404  0.75151116  1
  Te  Te135  1  0.57184920  0.24840256  0.06831167  1
  Te  Te136  1  0.64090645  0.28330516  0.45630632  1
  Te  Te137  1  0.62865914  0.28312058  0.75753519  1
  Te  Te138  1  0.59643544  0.59574954  0.07225563  1
  Te  Te139  1  0.60108320  0.56064471  0.44197441  1
  Te  Te140  1  0.59795072  0.54618614  0.75531239  1
  Te  Te141  1  0.60033249  0.91925965  0.07180443  1
  Te  Te142  1  0.58903536  0.94442554  0.42587272  1
  Te  Te143  1  0.58152031  0.89799155  0.75280865  1
  Te  Te144  1  0.95059444  0.23710094  0.07989587  1
  Te  Te145  1  0.91492713  0.27408061  0.42164079  1
  Te  Te146  1  0.89329838  0.21036838  0.75635075  1
  Te  Te147  1  0.91796273  0.57067405  0.06661903  1
  Te  Te148  1  0.88953504  0.56218258  0.43107976  1
  Te  Te149  1  0.94369406  0.59609449  0.74938292  1
  Te  Te150  1  0.92145647  0.91346045  0.08753215  1
  Te  Te151  1  0.90998955  0.93622416  0.42574285  1
  Te  Te152  1  0.90054143  0.93743413  0.76470970  1
  Te  Te153  1  0.24611792  0.10075981  0.26295285  1
  Te  Te154  1  0.25560964  0.07849022  0.56407122  1
  Te  Te155  1  0.25384666  0.08365363  0.91437059  1
  Te  Te156  1  0.22828636  0.40112106  0.23046827  1
  Te  Te157  1  0.24363035  0.43034745  0.57746231  1
  Te  Te158  1  0.23265955  0.40805603  0.91193194  1
  Te  Te159  1  0.25633089  0.75624633  0.24854291  1
  Te  Te160  1  0.25043592  0.73752080  0.58098685  1
  Te  Te161  1  0.21773793  0.74288337  0.91182779  1
  Te  Te162  1  0.58032257  0.10327742  0.24453948  1
  Te  Te163  1  0.58880500  0.08580939  0.59049678  1
  Te  Te164  1  0.59292116  0.09329926  0.91995775  1
  Te  Te165  1  0.60164996  0.40191611  0.25962179  1
  Te  Te166  1  0.61127358  0.35059787  0.59146498  1
  Te  Te167  1  0.58690093  0.43436396  0.89804812  1
  Te  Te168  1  0.57779116  0.74045811  0.25328102  1
  Te  Te169  1  0.58884435  0.73721358  0.59650281  1
  Te  Te170  1  0.61205126  0.72869994  0.90442301  1
  Te  Te171  1  0.91785407  0.09625972  0.24466872  1
  Te  Te172  1  0.93793476  0.11223671  0.57463538  1
  Te  Te173  1  0.90075806  0.12518170  0.88799765  1
  Te  Te174  1  0.89670197  0.42433499  0.25633275  1
  Te  Te175  1  0.90817999  0.39639774  0.60461509  1
  Te  Te176  1  0.93722197  0.41966610  0.91790709  1
  Te  Te177  1  0.89540538  0.72210332  0.23794240  1
  Te  Te178  1  0.94327104  0.76722446  0.56312706  1
  Te  Te179  1  0.91056121  0.73749093  0.91738316  1
