# generated using pymatgen
data_In2Te3
_symmetry_space_group_name_H-M   'P 1'
_cell_length_a   18.77392620
_cell_length_b   18.77756519
_cell_length_c   18.77238189
_cell_angle_alpha   89.92880156
_cell_angle_beta   90.09323253
_cell_angle_gamma   90.06499356
_symmetry_Int_Tables_number   1
_chemical_formula_structural   In2Te3
_chemical_formula_sum   'In72 Te108'
_cell_volume   6617.78382453
_cell_formula_units_Z   36
loop_
 _symmetry_equiv_pos_site_id
 _symmetry_equiv_pos_as_xyz
  1  'x, y, z'
loop_
 _atom_site_type_symbol
 _atom_site_label
 _atom_site_symmetry_multiplicity
 _atom_site_fract_x
 _atom_site_fract_y
 _atom_site_fract_z
 _atom_site_occupancy
  In  In0  1  0.48946183  0.65371210  0.81497711  1
  In  In1  1  0.66434879  0.49705098  0.19647271  1
  In  In2  1  0.49316592  0.16925548  0.34653029  1
  In  In3  1  0.02544632  0.82352933  0.83504636  1
  In  In4  1  0.18580719  0.50251867  -0.01721700  1
  In  In5  1  0.32514497  0.34985015  0.34152928  1
  In  In6  1  0.03105446  0.29433582  -0.01780267  1
  In  In7  1  0.17197997  0.65594618  0.81767603  1
  In  In8  1  0.30491102  -0.01378144  0.01602063  1
  In  In9  1  0.82629097  0.82435089  0.31349719  1
  In  In10  1  0.19088362  0.01599345  0.83925355  1
  In  In11  1  0.48207140  0.49669492  -0.00574922  1
  In  In12  1  0.85480766  0.31779391  0.17793075  1
  In  In13  1  0.49689089  0.80875175  0.01594269  1
  In  In14  1  0.82674341  0.18652304  0.66203103  1
  In  In15  1  0.82875061  0.18436977  0.32479350  1
  In  In16  1  0.18185087  -0.00282959  0.49648471  1
  In  In17  1  0.85838234  0.01810885  0.86132052  1
  In  In18  1  0.02581707  -0.01497133  0.29621333  1
  In  In19  1  0.48419136  0.63567720  0.52413387  1
  In  In20  1  0.64676080  0.34151314  0.65855353  1
  In  In21  1  0.66798369  0.32890984  -0.01518926  1
  In  In22  1  0.84033982  0.49628790  0.65650256  1
  In  In23  1  0.18149764  0.84999020  0.00748169  1
  In  In24  1  0.00290610  0.34638622  0.66332285  1
  In  In25  1  0.66230262  0.67181173  -0.01195316  1
  In  In26  1  0.16391115  0.50488525  0.65283527  1
  In  In27  1  0.50303499  0.33978472  0.18967820  1
  In  In28  1  0.82883483  0.32614484  0.83260236  1
  In  In29  1  0.83613092  0.66903856  0.83536731  1
  In  In30  1  0.61853833  0.85361582  0.46908235  1
  In  In31  1  0.68015315  -0.00394008  -0.00660724  1
  In  In32  1  0.83914390  0.65588373  0.49593111  1
  In  In33  1  0.83039852  0.02464009  0.49116163  1
  In  In34  1  0.16735971  0.66455481  0.51328940  1
  In  In35  1  0.33435428  0.84424339  0.15796612  1
  In  In36  1  0.32341332  0.35704073  0.66533389  1
  In  In37  1  0.03134398  0.35656989  0.35260799  1
  In  In38  1  0.32543882  0.17431364  0.84551847  1
  In  In39  1  0.48166523  0.66368443  0.18329020  1
  In  In40  1  0.63805016  0.66926096  0.34447290  1
  In  In41  1  0.84052066  -0.01372154  0.16981721  1
  In  In42  1  0.83332315  0.83169003  0.65345397  1
  In  In43  1  0.34875185  0.81653976  0.82490022  1
  In  In44  1  0.00354986  0.50009074  0.83959664  1
  In  In45  1  0.32515804  0.64790593  0.34121591  1
  In  In46  1  0.51157159  0.16425115  0.67170158  1
  In  In47  1  0.02911322  0.00006285  0.68417129  1
  In  In48  1  0.67026874  0.17616810  0.52404974  1
  In  In49  1  0.32575905  0.83285494  0.49725686  1
  In  In50  1  0.85538974  0.87894386  -0.00940026  1
  In  In51  1  0.68313285  0.82233345  0.17669539  1
  In  In52  1  0.48717044  0.33715375  0.80536740  1
  In  In53  1  0.00655183  0.49444093  0.17311860  1
  In  In54  1  0.30422017  0.33226103  0.01058375  1
  In  In55  1  -0.00504600  0.66713925  0.34602848  1
  In  In56  1  0.47296026  -0.00798856  0.17265727  1
  In  In57  1  0.00170406  0.83628377  0.49154568  1
  In  In58  1  0.83991238  0.65710650  0.17984245  1
  In  In59  1  0.17088983  0.15736188  0.31255430  1
  In  In60  1  0.67434635  0.64550636  0.65285646  1
  In  In61  1  0.16839488  0.33572924  0.19114772  1
  In  In62  1  0.67750484  0.16627505  0.16076154  1
  In  In63  1  0.32795733  -0.01445049  0.65436358  1
  In  In64  1  0.48659683  0.13247714  0.00113913  1
  In  In65  1  0.51923057  -0.01079831  0.83289639  1
  In  In66  1  0.65967408  0.00142523  0.67140651  1
  In  In67  1  0.32308340  0.15049397  0.48851599  1
  In  In68  1  0.16758292  0.66552284  0.15362936  1
  In  In69  1  0.47975861  0.35184462  0.50225541  1
  In  In70  1  0.82800939  0.51388104  0.00960918  1
  In  In71  1  0.01482062  0.19184864  0.50354880  1
  Te  Te72  1  0.03673469  0.04394293  0.04889809  1
  Te  Te73  1  0.07190856  0.07621922  0.41815647  1
  Te  Te74  1  0.08913841  0.10629819  0.77129200  1
  Te  Te75  1  0.08534725  0.41193441  0.07202334  1
  Te  Te76  1  0.13188958  0.43307781  0.43157352  1
  Te  Te77  1  0.09994100  0.41500863  0.76267065  1
  Te  Te78  1  0.08416046  0.76060853  0.07478583  1
  Te  Te79  1  0.10087621  0.75931842  0.40745400  1
  Te  Te80  1  0.09032223  0.74396314  0.73057629  1
  Te  Te81  1  0.38263006  0.09389381  0.10318127  1
  Te  Te82  1  0.41386402  0.05903908  0.41320300  1
  Te  Te83  1  0.41347566  0.07868854  0.76041259  1
  Te  Te84  1  0.40596791  0.41339130  0.09591681  1
  Te  Te85  1  0.39983310  0.44936029  0.42428983  1
  Te  Te86  1  0.42936747  0.44794764  0.72134278  1
  Te  Te87  1  0.38816385  0.72451263  0.07705399  1
  Te  Te88  1  0.41953316  0.73265212  0.42404992  1
  Te  Te89  1  0.41288597  0.73822233  0.71659559  1
  Te  Te90  1  0.77306337  0.08623380  0.07385787  1
  Te  Te91  1  0.72934037  0.09669808  0.40488613  1
  Te  Te92  1  0.76218441  0.08106591  0.75138795  1
  Te  Te93  1  0.75081343  0.41234156  0.09454983  1
  Te  Te94  1  0.78781454  0.37606844  0.35845313  1
  Te  Te95  1  0.74523875  0.42118294  0.74929676  1
  Te  Te96  1  0.76572862  0.75072161  0.07110530  1
  Te  Te97  1  0.74576878  0.75745038  0.42563343  1
  Te  Te98  1  0.74326446  0.74920568  0.74438420  1
  Te  Te99  1  0.06049306  0.24554780  0.25215647  1
  Te  Te100  1  0.10444830  0.25889641  0.59731950  1
  Te  Te101  1  0.11123697  0.22311602  0.88261045  1
  Te  Te102  1  0.09167497  0.58260361  0.26155506  1
  Te  Te103  1  0.06054129  0.57891788  0.57439922  1
  Te  Te104  1  0.07977442  0.59829900  0.92713207  1
  Te  Te105  1  0.10705850  0.88130120  0.23334291  1
  Te  Te106  1  0.09915381  0.90487979  0.58844313  1
  Te  Te107  1  0.08265769  0.93797032  0.92088184  1
  Te  Te108  1  0.39918620  0.24701992  0.25400905  1
  Te  Te109  1  0.40900570  0.23995770  0.58772079  1
  Te  Te110  1  0.42899162  0.25649427  0.92667864  1
  Te  Te111  1  0.42185549  0.55937938  0.26805589  1
  Te  Te112  1  0.38048244  0.57487942  0.61442777  1
  Te  Te113  1  0.39961697  0.58677160  0.91316849  1
  Te  Te114  1  0.41218242  0.90097417  0.27458571  1
  Te  Te115  1  0.42654293  0.91250069  0.57577258  1
  Te  Te116  1  0.41533010  0.92070968  0.93099718  1
  Te  Te117  1  0.71928929  0.28020909  0.26079739  1
  Te  Te118  1  0.76279051  0.28944711  0.57059088  1
  Te  Te119  1  0.76117656  0.23251015  0.92492302  1
  Te  Te120  1  0.75526288  0.58622741  0.28251101  1
  Te  Te121  1  0.74214629  0.55180570  0.55078911  1
  Te  Te122  1  0.73778907  0.57146269  0.90077902  1
  Te  Te123  1  0.73111202  0.93553126  0.26675171  1
  Te  Te124  1  0.74447357  0.91872271  0.56363827  1
  Te  Te125  1  0.74604567  0.90810603  0.88962032  1
  Te  Te126  1  0.22333506  0.23921402  0.09233445  1
  Te  Te127  1  0.23321763  0.24895071  0.41608691  1
  Te  Te128  1  0.24999141  0.25995292  0.75151826  1
  Te  Te129  1  0.26104906  0.56804018  0.09208423  1
  Te  Te130  1  0.23393505  0.56005570  0.42522178  1
  Te  Te131  1  0.27123230  0.58330986  0.72773825  1
  Te  Te132  1  0.20589948  0.95576198  0.14076940  1
  Te  Te133  1  0.25341897  0.91764198  0.39674077  1
  Te  Te134  1  0.24429573  0.90335383  0.75231697  1
  Te  Te135  1  0.57195745  0.24855822  0.08107856  1
  Te  Te136  1  0.58177059  0.26130209  0.43030514  1
  Te  Te137  1  0.60232605  0.24103122  0.76472984  1
  Te  Te138  1  0.58766452  0.58755609  0.09144868  1
  Te  Te139  1  0.57770500  0.56448170  0.42942235  1
  Te  Te140  1  0.59034893  0.56817210  0.74693988  1
  Te  Te141  1  0.58426510  0.91983030  0.08478669  1
  Te  Te142  1  0.53032821  0.94008660  0.39112579  1
  Te  Te143  1  0.57165628  0.89874487  0.73029033  1
  Te  Te144  1  0.92360044  0.23872782  0.07158690  1
  Te  Te145  1  0.91305351  0.26967270  0.42265717  1
  Te  Te146  1  0.93169779  0.24465406  0.75616585  1
  Te  Te147  1  0.93634802  0.59451867  0.07925227  1
  Te  Te148  1  0.93574852  0.56079628  0.43247638  1
  Te  Te149  1  0.92694042  0.58959197  0.74265978  1
  Te  Te150  1  0.95688344  0.92002413  0.09616136  1
  Te  Te151  1  0.91005438  0.92428364  0.40408325  1
  Te  Te152  1  0.91705608  0.91608252  0.75142089  1
  Te  Te153  1  0.25725779  0.06577026  0.24028379  1
  Te  Te154  1  0.23536515  0.09492761  0.60187724  1
  Te  Te155  1  0.23480695  0.11057098  0.95331335  1
  Te  Te156  1  0.25190898  0.44140556  0.24822360  1
  Te  Te157  1  0.23392727  0.41043938  0.55604426  1
  Te  Te158  1  0.26280700  0.41293489  0.89431332  1
  Te  Te159  1  0.25556000  0.74802314  0.24977723  1
  Te  Te160  1  0.25951931  0.74466767  0.59845095  1
  Te  Te161  1  0.25035987  0.74580192  0.91692686  1
  Te  Te162  1  0.57303346  0.08865224  0.24074082  1
  Te  Te163  1  0.56891720  0.06976010  0.56778593  1
  Te  Te164  1  0.60067995  0.09503710  0.90742516  1
  Te  Te165  1  0.56905343  0.43010748  0.28784331  1
  Te  Te166  1  0.57282996  0.44099566  0.57862273  1
  Te  Te167  1  0.57817195  0.42129994  0.90338517  1
  Te  Te168  1  0.56432520  0.76991017  0.25717285  1
  Te  Te169  1  0.58737878  0.74560153  0.57056350  1
  Te  Te170  1  0.57823987  0.76021716  0.89912025  1
  Te  Te171  1  0.92251714  0.08971798  0.24783694  1
  Te  Te172  1  0.92777298  0.08460153  0.59223020  1
  Te  Te173  1  0.94347269  0.10581924  0.94879031  1
  Te  Te174  1  0.90390234  0.43413319  0.26944647  1
  Te  Te175  1  0.93347293  0.42970810  0.56070680  1
  Te  Te176  1  0.91549359  0.41398752  0.93143021  1
  Te  Te177  1  0.93895567  0.76035746  0.23553639  1
  Te  Te178  1  0.93185418  0.73797170  0.58622582  1
  Te  Te179  1  0.92297107  0.75509609  0.92621695  1
