# generated using pymatgen
data_In2Te3
_symmetry_space_group_name_H-M   'P 1'
_cell_length_a   18.79102135
_cell_length_b   18.77847146
_cell_length_c   18.78583385
_cell_angle_alpha   89.99249991
_cell_angle_beta   90.00028043
_cell_angle_gamma   90.01740135
_symmetry_Int_Tables_number   1
_chemical_formula_structural   In2Te3
_chemical_formula_sum   'In72 Te108'
_cell_volume   6628.89404627
_cell_formula_units_Z   36
loop_
 _symmetry_equiv_pos_site_id
 _symmetry_equiv_pos_as_xyz
  1  'x, y, z'
loop_
 _atom_site_type_symbol
 _atom_site_label
 _atom_site_symmetry_multiplicity
 _atom_site_fract_x
 _atom_site_fract_y
 _atom_site_fract_z
 _atom_site_occupancy
  In  In0  1  0.33754330  0.51937086  0.50742040  1
  In  In1  1  0.65165345  0.85664950  0.17856748  1
  In  In2  1  0.67252955  0.33100084  0.34083191  1
  In  In3  1  0.46255143  0.66695303  0.16025634  1
  In  In4  1  0.67235538  0.46870142  0.16936849  1
  In  In5  1  0.17260730  0.16237777  0.32028857  1
  In  In6  1  0.48411159  0.48242722  -0.01625155  1
  In  In7  1  0.49171647  0.82993839  0.02252007  1
  In  In8  1  0.32868979  0.34403010  0.32547905  1
  In  In9  1  0.31383436  0.67768774  0.66450673  1
  In  In10  1  0.16330554  0.48828070  0.67469832  1
  In  In11  1  -0.02439221  0.18109353  0.51267464  1
  In  In12  1  0.33502965  0.00767843  0.31942292  1
  In  In13  1  0.46838208  0.65247860  0.83568832  1
  In  In14  1  0.33883661  0.31843167  0.67621480  1
  In  In15  1  0.65746044  0.65721125  -0.00344254  1
  In  In16  1  0.17560966  0.33089947  0.17408533  1
  In  In17  1  0.66025613  0.47762376  0.81792653  1
  In  In18  1  0.49240702  0.46379264  0.67030856  1
  In  In19  1  0.49849265  0.32542216  0.50358808  1
  In  In20  1  0.01924283  0.83140956  0.83025444  1
  In  In21  1  0.32619161  0.66565339  0.32628351  1
  In  In22  1  -0.00017102  0.03577755  0.67977580  1
  In  In23  1  -0.00320592  0.63504158  0.66513197  1
  In  In24  1  0.83464077  0.17901242  0.34960570  1
  In  In25  1  0.82076269  0.85378732  0.66116486  1
  In  In26  1  0.85864623  0.67940839  0.17981206  1
  In  In27  1  0.83349967  0.31219481  0.15318333  1
  In  In28  1  0.03647643  0.65753011  -0.02666233  1
  In  In29  1  0.66099798  0.03742493  0.64697976  1
  In  In30  1  -0.00508588  0.83052530  0.49146161  1
  In  In31  1  0.84206583  0.47382553  -0.00448250  1
  In  In32  1  -0.01136385  0.33959955  0.65998796  1
  In  In33  1  0.84579134  0.84759061  0.02709269  1
  In  In34  1  0.82521661  0.01647054  0.15686424  1
  In  In35  1  0.19668873  0.65463549  0.14278853  1
  In  In36  1  0.81843005  0.49844601  0.33916705  1
  In  In37  1  -0.00493064  0.85959620  0.17157105  1
  In  In38  1  0.67186621  0.85819771  0.83835748  1
  In  In39  1  0.49472381  0.01470147  0.84347442  1
  In  In40  1  0.03078452  0.18300102  0.16030052  1
  In  In41  1  0.51929036  0.66411505  0.48206783  1
  In  In42  1  0.67406617  0.31867720  0.66048840  1
  In  In43  1  0.00124132  -0.00818157  0.33341489  1
  In  In44  1  0.66184740  0.01486626  0.34112134  1
  In  In45  1  0.66147582  0.67831457  0.35893885  1
  In  In46  1  0.82558201  0.65130971  0.48985624  1
  In  In47  1  0.85503203  0.65766443  0.81261277  1
  In  In48  1  0.34706370  -0.01019022  0.68496229  1
  In  In49  1  0.13140531  0.35795129  0.47782419  1
  In  In50  1  0.15648107  0.67689375  0.51182883  1
  In  In51  1  0.66854739  0.00419239  -0.01578001  1
  In  In52  1  0.17848698  -0.00587637  0.49392487  1
  In  In53  1  0.83121238  0.17214317  0.67455110  1
  In  In54  1  -0.00285529  0.32691231  -0.00803669  1
  In  In55  1  0.18361584  0.85072963  0.67768582  1
  In  In56  1  0.16991955  0.16831031  0.70195975  1
  In  In57  1  0.17704691  0.15919903  -0.01124698  1
  In  In58  1  0.15954379  0.84287742  0.00016645  1
  In  In59  1  0.48891708  0.82141132  0.65672182  1
  In  In60  1  0.32523408  0.00350508  0.01088333  1
  In  In61  1  0.31883684  0.34679886  -0.00748281  1
  In  In62  1  0.35226456  0.16723427  0.50173499  1
  In  In63  1  0.49963269  0.31405627  0.81883839  1
  In  In64  1  0.67720472  0.64812799  0.63809835  1
  In  In65  1  0.49715253  0.16213997  0.00583188  1
  In  In66  1  -0.00260053  0.49569465  0.16174179  1
  In  In67  1  0.49593312  0.85163895  0.33451082  1
  In  In68  1  0.17470900  0.65089681  0.85544320  1
  In  In69  1  0.50709467  0.16679566  0.33241577  1
  In  In70  1  0.49525635  0.31604918  0.16500568  1
  In  In71  1  0.00980598  0.67319204  0.31753145  1
  Te  Te72  1  0.09711767  0.07609690  0.08478851  1
  Te  Te73  1  0.08122619  0.09569320  0.42762008  1
  Te  Te74  1  0.09048096  0.07683685  0.78956931  1
  Te  Te75  1  0.09303270  0.41603846  0.07465256  1
  Te  Te76  1  0.04686680  0.45387069  0.41040809  1
  Te  Te77  1  0.09911585  0.38106332  0.75393623  1
  Te  Te78  1  0.06750820  0.74398987  0.09515318  1
  Te  Te79  1  0.09913126  0.76617568  0.40075635  1
  Te  Te80  1  0.09284823  0.73293448  0.73502122  1
  Te  Te81  1  0.41730285  0.08036493  0.09930750  1
  Te  Te82  1  0.43330374  0.06692773  0.42394164  1
  Te  Te83  1  0.41025072  0.10150630  0.75830573  1
  Te  Te84  1  0.40466732  0.41916614  0.09802717  1
  Te  Te85  1  0.42036625  0.42542513  0.41879323  1
  Te  Te86  1  0.39838289  0.42414172  0.77920955  1
  Te  Te87  1  0.37682781  0.75379193  0.07782985  1
  Te  Te88  1  0.41416667  0.75213336  0.41910739  1
  Te  Te89  1  0.39383799  0.76434557  0.76234118  1
  Te  Te90  1  0.74375601  0.10609058  0.06801281  1
  Te  Te91  1  0.74878572  0.09316347  0.43330181  1
  Te  Te92  1  0.75614667  0.07189913  0.75893658  1
  Te  Te93  1  0.73528030  0.38510504  0.05875475  1
  Te  Te94  1  0.76781218  0.39679351  0.43523383  1
  Te  Te95  1  0.75987634  0.38306144  0.76630624  1
  Te  Te96  1  0.73480472  0.75733482  0.08464379  1
  Te  Te97  1  0.76195484  0.76472036  0.42066582  1
  Te  Te98  1  0.74197075  0.74645519  0.75241440  1
  Te  Te99  1  0.07553501  0.27188001  0.27544645  1
  Te  Te100  1  0.09571352  0.24490734  0.58561177  1
  Te  Te101  1  0.09232881  0.25056908  0.90654282  1
  Te  Te102  1  0.09852294  0.57852003  0.23851221  1
  Te  Te103  1  0.07937218  0.55451949  0.56498904  1
  Te  Te104  1  0.07310703  0.54522480  0.88459575  1
  Te  Te105  1  0.10205367  0.92467415  0.24998408  1
  Te  Te106  1  0.07466374  0.92147100  0.59445625  1
  Te  Te107  1  0.07220376  0.93451596  0.92056729  1
  Te  Te108  1  0.39737168  0.23220605  0.24855946  1
  Te  Te109  1  0.45057656  0.22531197  0.61362717  1
  Te  Te110  1  0.40479012  0.24413337  0.91556913  1
  Te  Te111  1  0.41554830  0.56860689  0.25793264  1
  Te  Te112  1  0.43147439  0.59798096  0.59997047  1
  Te  Te113  1  0.39218558  0.59777472  0.95181537  1
  Te  Te114  1  0.41705566  0.91830747  0.23137785  1
  Te  Te115  1  0.41382558  0.91790564  0.57490193  1
  Te  Te116  1  0.41502650  0.91054440  0.91813691  1
  Te  Te117  1  0.73790032  0.23420238  0.24284042  1
  Te  Te118  1  0.76709511  0.25094972  0.56617843  1
  Te  Te119  1  0.78798562  0.20519713  0.94601546  1
  Te  Te120  1  0.74805020  0.58850792  0.23479947  1
  Te  Te121  1  0.78018097  0.54888948  0.59409499  1
  Te  Te122  1  0.75199625  0.57705080  0.90746770  1
  Te  Te123  1  0.76300945  0.92066425  0.25639438  1
  Te  Te124  1  0.72575085  0.92410742  0.57369036  1
  Te  Te125  1  0.78305355  0.93124886  0.91322087  1
  Te  Te126  1  0.26239881  0.24166675  0.08835779  1
  Te  Te127  1  0.25065278  0.25245438  0.42454404  1
  Te  Te128  1  0.24205189  0.27342494  0.78031520  1
  Te  Te129  1  0.24905258  0.56450650  0.03856190  1
  Te  Te130  1  0.23309767  0.58161904  0.41794902  1
  Te  Te131  1  0.26412915  0.56845246  0.75652322  1
  Te  Te132  1  0.24144723  0.91715470  0.09960908  1
  Te  Te133  1  0.25141563  0.91141771  0.39848696  1
  Te  Te134  1  0.24103755  0.94114368  0.77998343  1
  Te  Te135  1  0.59412795  0.24384449  0.08410587  1
  Te  Te136  1  0.59926587  0.23220161  0.43572575  1
  Te  Te137  1  0.60917964  0.23075508  0.76313332  1
  Te  Te138  1  0.57797808  0.56339612  0.08557043  1
  Te  Te139  1  0.60378627  0.55862066  0.42242963  1
  Te  Te140  1  0.57861923  0.58880303  0.74917200  1
  Te  Te141  1  0.56953354  0.94544484  0.08592496  1
  Te  Te142  1  0.59269493  0.91330019  0.42587120  1
  Te  Te143  1  0.57625948  0.92458903  0.74004339  1
  Te  Te144  1  0.91476270  0.21675585  0.06394420  1
  Te  Te145  1  0.90970041  0.28333463  0.42739193  1
  Te  Te146  1  0.93869867  0.23465055  0.75955311  1
  Te  Te147  1  0.91530729  0.58920733  0.06731296  1
  Te  Te148  1  0.93593037  0.57520727  0.41179127  1
  Te  Te149  1  0.92124496  0.53832969  0.75146462  1
  Te  Te150  1  0.93887254  0.96126843  0.06897898  1
  Te  Te151  1  0.90847296  0.93482264  0.43347390  1
  Te  Te152  1  0.92152735  0.92160516  0.75209860  1
  Te  Te153  1  0.24206808  0.07734417  0.22359205  1
  Te  Te154  1  0.25065157  0.09028608  0.59022280  1
  Te  Te155  1  0.25846191  0.07234384  0.89546695  1
  Te  Te156  1  0.24488784  0.43786618  0.24938144  1
  Te  Te157  1  0.26039587  0.40516762  0.57662246  1
  Te  Te158  1  0.22378873  0.44700588  0.93913297  1
  Te  Te159  1  0.25024978  0.75521593  0.23593724  1
  Te  Te160  1  0.25863267  0.77834976  0.56512236  1
  Te  Te161  1  0.25106135  0.76046589  0.91715328  1
  Te  Te162  1  0.58750663  0.08805518  0.23677739  1
  Te  Te163  1  0.55938827  0.11652294  0.57590950  1
  Te  Te164  1  0.60116399  0.10999471  0.89606344  1
  Te  Te165  1  0.56827979  0.41128701  0.26350336  1
  Te  Te166  1  0.59597507  0.42431710  0.57062349  1
  Te  Te167  1  0.58743492  0.39042545  0.92063579  1
  Te  Te168  1  0.57919581  0.73670286  0.24189561  1
  Te  Te169  1  0.60168446  0.75986141  0.56985716  1
  Te  Te170  1  0.57688384  0.75406841  0.90961951  1
  Te  Te171  1  0.92406070  0.09764192  0.24775408  1
  Te  Te172  1  0.89747516  0.06632590  0.57253692  1
  Te  Te173  1  0.87702037  0.12597169  0.86293796  1
  Te  Te174  1  0.90589563  0.40908400  0.24588312  1
  Te  Te175  1  0.90220180  0.44686404  0.60662558  1
  Te  Te176  1  0.90468625  0.39035370  0.89228654  1
  Te  Te177  1  0.90939493  0.78216959  0.27630253  1
  Te  Te178  1  0.91215449  0.74141856  0.59321305  1
  Te  Te179  1  0.91226357  0.75192163  0.92107665  1
