# generated using pymatgen
data_In2Te3
_symmetry_space_group_name_H-M   'P 1'
_cell_length_a   18.94596126
_cell_length_b   18.96516969
_cell_length_c   18.93524729
_cell_angle_alpha   90.04794574
_cell_angle_beta   90.03995644
_cell_angle_gamma   90.09008298
_symmetry_Int_Tables_number   1
_chemical_formula_structural   In2Te3
_chemical_formula_sum   'In72 Te108'
_cell_volume   6803.67506928
_cell_formula_units_Z   36
loop_
 _symmetry_equiv_pos_site_id
 _symmetry_equiv_pos_as_xyz
  1  'x, y, z'
loop_
 _atom_site_type_symbol
 _atom_site_label
 _atom_site_symmetry_multiplicity
 _atom_site_fract_x
 _atom_site_fract_y
 _atom_site_fract_z
 _atom_site_occupancy
  In  In0  1  0.33080075  0.51599430  0.17237526  1
  In  In1  1  0.48432532  0.31062048  0.82190366  1
  In  In2  1  0.30963099  0.66841184  0.35208875  1
  In  In3  1  0.00530791  0.82139689  0.50479661  1
  In  In4  1  0.48124465  0.33260717  0.49086996  1
  In  In5  1  0.01650500  0.69520564  -0.03214702  1
  In  In6  1  0.47273059  0.51857147  0.36288043  1
  In  In7  1  -0.01998905  0.49493858  0.81631453  1
  In  In8  1  0.50734912  0.16245851  0.67134064  1
  In  In9  1  0.66462558  0.82941645  0.14951694  1
  In  In10  1  0.17354355  -0.02556636  0.13399290  1
  In  In11  1  0.46122718  0.66364721  0.79782639  1
  In  In12  1  0.66952025  0.65237730  -0.01557604  1
  In  In13  1  0.87044893  0.00076434  0.53139768  1
  In  In14  1  0.84527661  0.67273188  0.81602567  1
  In  In15  1  0.50606697  0.14742638  0.02948741  1
  In  In16  1  0.49560457  0.16950692  0.29316556  1
  In  In17  1  0.00048016  0.31420934  0.00328344  1
  In  In18  1  0.67757258  0.47179475  0.81985080  1
  In  In19  1  0.47961463  0.51667251  0.62685318  1
  In  In20  1  0.00845222  -0.00541155  0.72896209  1
  In  In21  1  0.65087326  0.68484940  0.35465139  1
  In  In22  1  0.00551116  -0.01533873  -0.04868389  1
  In  In23  1  0.30694064  0.51140452  0.82021106  1
  In  In24  1  0.85858106  0.28596315  0.80849869  1
  In  In25  1  0.82214666  0.49732161  0.34708407  1
  In  In26  1  0.02037181  0.51699245  0.49783160  1
  In  In27  1  0.16973197  0.67031660  0.17940888  1
  In  In28  1  0.66025972  0.48413407  0.16658146  1
  In  In29  1  0.67280633  0.83397403  0.84244111  1
  In  In30  1  0.67167622  0.64327238  0.65530485  1
  In  In31  1  0.82530270  0.66410443  0.14319656  1
  In  In32  1  0.48012176  0.31234339  0.16112134  1
  In  In33  1  0.31690586  0.16677339  0.16711607  1
  In  In34  1  0.49476854  0.00161786  0.50426257  1
  In  In35  1  0.16073475  -0.01604043  0.51277174  1
  In  In36  1  0.84663798  -0.01697554  0.17448405  1
  In  In37  1  0.24718698  0.76953005  0.69361656  1
  In  In38  1  -0.00067169  0.35000430  0.35422381  1
  In  In39  1  0.00215574  0.84538851  0.15158562  1
  In  In40  1  -0.00502954  0.53519194  0.17488552  1
  In  In41  1  0.49433120  -0.00485630  0.86367042  1
  In  In42  1  0.70463815  0.84675612  0.52924039  1
  In  In43  1  0.47955040  0.82380985  -0.00931926  1
  In  In44  1  0.16196888  0.30359525  0.84379170  1
  In  In45  1  0.68270516  0.16027845  0.18409257  1
  In  In46  1  0.50621983  0.84741280  0.66234092  1
  In  In47  1  0.82293442  0.32280066  0.14788911  1
  In  In48  1  0.16075195  0.51557595  0.66156784  1
  In  In49  1  0.84595592  0.67167088  0.53044874  1
  In  In50  1  0.68150858  -0.00849969  -0.01654282  1
  In  In51  1  0.67633590  0.31389535  0.65817932  1
  In  In52  1  0.31156198  0.69590107  -0.01066822  1
  In  In53  1  0.66855915  0.16197422  0.48544818  1
  In  In54  1  0.32210987  0.00996587  0.35185553  1
  In  In55  1  0.50102148  0.50371541  0.01424223  1
  In  In56  1  0.14257406  0.17609895  0.34219346  1
  In  In57  1  0.67202211  0.00363783  0.33797278  1
  In  In58  1  0.15240272  0.48342903  -0.02472146  1
  In  In59  1  0.04224502  0.32499199  0.62338632  1
  In  In60  1  0.48270459  0.85375145  0.32875287  1
  In  In61  1  0.85081116  0.32484228  0.51354239  1
  In  In62  1  0.26969131  0.16029193  0.52081604  1
  In  In63  1  0.17390857  0.34105613  0.18689121  1
  In  In64  1  0.67370714  0.34561959  0.30110510  1
  In  In65  1  0.16073116  0.14421924  -0.00262816  1
  In  In66  1  0.00907917  -0.01412109  0.32909941  1
  In  In67  1  0.48947527  0.66021448  0.48392784  1
  In  In68  1  0.30793921  0.33269645  0.68138927  1
  In  In69  1  0.01712688  0.69674727  0.32853941  1
  In  In70  1  0.33407228  0.16219816  0.84110580  1
  In  In71  1  0.69449732  0.32024045  -0.02775169  1
  Te  Te72  1  0.06414893  0.06100869  0.07753029  1
  Te  Te73  1  0.07077887  0.07795613  0.43249562  1
  Te  Te74  1  0.12671768  0.06255633  0.78726064  1
  Te  Te75  1  0.07199439  0.42612081  0.09140485  1
  Te  Te76  1  0.10465281  0.42644909  0.41969135  1
  Te  Te77  1  0.09271653  0.40572051  0.75488445  1
  Te  Te78  1  0.10138555  0.75936377  0.07705187  1
  Te  Te79  1  0.11428470  0.74447620  0.43324841  1
  Te  Te80  1  0.10095645  0.79662147  0.79225752  1
  Te  Te81  1  0.38918916  0.06941661  0.07886916  1
  Te  Te82  1  0.42692081  0.10269381  0.41492082  1
  Te  Te83  1  0.41863528  0.07130487  0.75359802  1
  Te  Te84  1  0.39968982  0.41328761  0.08108898  1
  Te  Te85  1  0.38178602  0.43410430  0.44465895  1
  Te  Te86  1  0.41827647  0.42575862  0.74853205  1
  Te  Te87  1  0.40428707  0.74584873  0.09009463  1
  Te  Te88  1  0.40428435  0.77002281  0.42576692  1
  Te  Te89  1  0.39723346  0.78860013  0.75224326  1
  Te  Te90  1  0.75804951  0.07310842  0.08729388  1
  Te  Te91  1  0.77345806  0.07055194  0.42585360  1
  Te  Te92  1  0.80612706  0.14317961  0.79161257  1
  Te  Te93  1  0.75519646  0.42942295  0.06240571  1
  Te  Te94  1  0.74362651  0.39695430  0.42658140  1
  Te  Te95  1  0.77621811  0.39807595  0.73554490  1
  Te  Te96  1  0.75495258  0.76092750  0.04851269  1
  Te  Te97  1  0.76391701  0.75366371  0.42536477  1
  Te  Te98  1  0.74269962  0.75106401  0.73577942  1
  Te  Te99  1  0.06140448  0.25875146  0.24448725  1
  Te  Te100  1  0.13869569  0.23483718  0.55588666  1
  Te  Te101  1  0.05813042  0.21366593  0.90578276  1
  Te  Te102  1  0.09879517  0.57827164  0.27663008  1
  Te  Te103  1  0.07832062  0.61512538  0.59144675  1
  Te  Te104  1  0.08385469  0.58440369  0.88703228  1
  Te  Te105  1  0.10435223  0.89910699  0.24992231  1
  Te  Te106  1  0.06754662  0.91399843  0.60825489  1
  Te  Te107  1  0.11754777  0.88935241  0.91769809  1
  Te  Te108  1  0.38107889  0.26562097  0.26560998  1
  Te  Te109  1  0.40799268  0.24660367  0.59412236  1
  Te  Te110  1  0.42002117  0.24067801  0.93921418  1
  Te  Te111  1  0.41810067  0.60766779  0.25540322  1
  Te  Te112  1  0.38191841  0.62103232  0.58508079  1
  Te  Te113  1  0.40677873  0.58133517  0.92141343  1
  Te  Te114  1  0.40396481  0.94514538  0.24730714  1
  Te  Te115  1  0.40175401  0.91985500  0.58494791  1
  Te  Te116  1  0.38288280  0.91602780  0.92369505  1
  Te  Te117  1  0.77645936  0.23922690  0.27213307  1
  Te  Te118  1  0.76786202  0.21836546  0.58638694  1
  Te  Te119  1  0.78994979  0.21388372  0.93110669  1
  Te  Te120  1  0.74082222  0.59129980  0.25066632  1
  Te  Te121  1  0.76206982  0.56121101  0.57623751  1
  Te  Te122  1  0.76252125  0.57066740  0.89792300  1
  Te  Te123  1  0.74763142  0.89998850  0.25524418  1
  Te  Te124  1  0.76528416  0.94417496  0.61804547  1
  Te  Te125  1  0.77218175  0.94188146  0.87493518  1
  Te  Te126  1  0.23281865  0.25415384  0.07534277  1
  Te  Te127  1  0.23882159  0.26043130  0.41828698  1
  Te  Te128  1  0.23086287  0.21668821  0.73997545  1
  Te  Te129  1  0.23238953  0.57871242  0.06462051  1
  Te  Te130  1  0.28813917  0.57905834  0.46747492  1
  Te  Te131  1  0.24123241  0.61898687  0.74198698  1
  Te  Te132  1  0.29427054  0.93452800  0.06200773  1
  Te  Te133  1  0.24608335  0.90384180  0.42132483  1
  Te  Te134  1  0.20507838  0.89817145  0.76184843  1
  Te  Te135  1  0.60561954  0.26006223  0.09022036  1
  Te  Te136  1  0.58130651  0.25208274  0.39742832  1
  Te  Te137  1  0.60338779  0.23540136  0.76612674  1
  Te  Te138  1  0.58370988  0.59892013  0.09767380  1
  Te  Te139  1  0.59985658  0.56593501  0.43136075  1
  Te  Te140  1  0.57954071  0.56839124  0.75277767  1
  Te  Te141  1  0.57533390  0.91760616  0.06516640  1
  Te  Te142  1  0.59598512  0.90761991  0.43107603  1
  Te  Te143  1  0.58667430  0.92990706  0.76069284  1
  Te  Te144  1  0.91637429  0.22870460  0.08776517  1
  Te  Te145  1  0.94044478  0.24254379  0.43357167  1
  Te  Te146  1  0.96116705  0.23159883  0.70690689  1
  Te  Te147  1  0.92833500  0.59769720  0.05408058  1
  Te  Te148  1  0.92067504  0.59791964  0.40231828  1
  Te  Te149  1  0.93832114  0.60277941  0.72490782  1
  Te  Te150  1  0.91031667  0.91430251  0.05521491  1
  Te  Te151  1  0.91549859  0.90637392  0.41813619  1
  Te  Te152  1  0.91057868  0.90422930  0.79793157  1
  Te  Te153  1  0.21911408  0.08294313  0.24765698  1
  Te  Te154  1  0.27505916  0.03537844  0.59602014  1
  Te  Te155  1  0.23645466  0.06172124  0.89789119  1
  Te  Te156  1  0.25037334  0.43726946  0.26575834  1
  Te  Te157  1  0.25317500  0.42865904  0.58573364  1
  Te  Te158  1  0.26071543  0.39828415  0.91192660  1
  Te  Te159  1  0.26492349  0.75914403  0.24495952  1
  Te  Te160  1  0.21064805  0.78484064  0.55040770  1
  Te  Te161  1  0.21897536  0.76901754  0.89898625  1
  Te  Te162  1  0.57923517  0.05928669  0.23076779  1
  Te  Te163  1  0.59845614  0.07416991  0.58883844  1
  Te  Te164  1  0.59438868  0.09811903  0.91807481  1
  Te  Te165  1  0.54755017  0.42233580  0.25403801  1
  Te  Te166  1  0.57720410  0.40359539  0.58604618  1
  Te  Te167  1  0.57418196  0.40863206  0.91987505  1
  Te  Te168  1  0.57265948  0.75877721  0.24910585  1
  Te  Te169  1  0.58339809  0.74413585  0.57922634  1
  Te  Te170  1  0.57079763  0.73231346  0.89879487  1
  Te  Te171  1  0.92339768  0.07756467  0.25432484  1
  Te  Te172  1  0.94667000  0.08822520  0.62675553  1
  Te  Te173  1  0.91208944  0.08173308  0.88724970  1
  Te  Te174  1  0.90143318  0.43023603  0.23597117  1
  Te  Te175  1  0.93607236  0.42680811  0.58692208  1
  Te  Te176  1  0.91435061  0.39648466  0.90920605  1
  Te  Te177  1  0.91252753  0.75251684  0.23294371  1
  Te  Te178  1  0.92094008  0.76555527  0.61342880  1
  Te  Te179  1  0.91512422  0.77932364  0.89604652  1
