# generated using pymatgen
data_In2Te3
_symmetry_space_group_name_H-M   'P 1'
_cell_length_a   18.92589410
_cell_length_b   18.94698472
_cell_length_c   18.93289263
_cell_angle_alpha   90.01484134
_cell_angle_beta   89.92022100
_cell_angle_gamma   89.94460062
_symmetry_Int_Tables_number   1
_chemical_formula_structural   In2Te3
_chemical_formula_sum   'In72 Te108'
_cell_volume   6789.10997887
_cell_formula_units_Z   36
loop_
 _symmetry_equiv_pos_site_id
 _symmetry_equiv_pos_as_xyz
  1  'x, y, z'
loop_
 _atom_site_type_symbol
 _atom_site_label
 _atom_site_symmetry_multiplicity
 _atom_site_fract_x
 _atom_site_fract_y
 _atom_site_fract_z
 _atom_site_occupancy
  In  In0  1  0.00109373  0.50832655  0.51104967  1
  In  In1  1  0.51514426  0.32958565  0.83560119  1
  In  In2  1  0.00350966  -0.02843844  0.30256215  1
  In  In3  1  0.48650275  0.67271582  0.80556879  1
  In  In4  1  0.79736331  0.29757451  0.84970354  1
  In  In5  1  0.01653888  0.64104352  -0.01220636  1
  In  In6  1  0.00729830  0.83921581  0.46418604  1
  In  In7  1  0.65965128  0.34193865  0.66307179  1
  In  In8  1  0.63875338  0.84557228  0.84891264  1
  In  In9  1  0.17697224  0.01202933  0.51292753  1
  In  In10  1  0.17921804  0.83398949  0.65351532  1
  In  In11  1  0.51329091  0.16434685  0.00735946  1
  In  In12  1  0.82414921  0.48359463  -0.02348585  1
  In  In13  1  0.47563157  0.80912313  0.03886184  1
  In  In14  1  0.35162279  0.48452172  0.47958275  1
  In  In15  1  0.36267055  0.30999571  0.31849057  1
  In  In16  1  -0.01037812  0.16444601  0.83794662  1
  In  In17  1  0.35811103  0.00265852  0.65124777  1
  In  In18  1  0.35105796  0.68276416  0.27556687  1
  In  In19  1  0.17752950  0.50698715  0.35185733  1
  In  In20  1  0.50439533  0.48004058  0.66896237  1
  In  In21  1  0.00618377  0.31233645  0.68858552  1
  In  In22  1  0.65309292  0.32485015  0.35069016  1
  In  In23  1  -0.00674706  0.16748424  0.16393427  1
  In  In24  1  0.19892417  0.48939345  0.02718665  1
  In  In25  1  0.64195056  0.51347937  0.16384825  1
  In  In26  1  0.15536490  0.00103267  0.84329738  1
  In  In27  1  0.00199813  0.49840504  0.84003235  1
  In  In28  1  0.81559172  0.48629320  0.63943838  1
  In  In29  1  0.64416784  0.50619554  0.85146251  1
  In  In30  1  0.79717039  0.85551861  0.32233349  1
  In  In31  1  0.34731002  0.16666932  0.17627303  1
  In  In32  1  0.53130950  0.82074726  0.29888642  1
  In  In33  1  0.00260716  0.49403550  0.15822009  1
  In  In34  1  0.64400786  0.01133727  0.64327394  1
  In  In35  1  0.79958581  0.14285149  0.36687698  1
  In  In36  1  0.81532817  0.64363412  0.83090097  1
  In  In37  1  0.64084708  0.51373781  0.51236466  1
  In  In38  1  0.35057980  0.84815902  0.50583017  1
  In  In39  1  0.79765951  0.31625293  0.49150744  1
  In  In40  1  0.49369282  0.67692964  0.50448126  1
  In  In41  1  0.82833850  0.49395517  0.29992177  1
  In  In42  1  0.01503230  0.66253627  0.65014413  1
  In  In43  1  0.18368278  0.17113924  0.35277326  1
  In  In44  1  0.19176738  0.34986207  0.83684662  1
  In  In45  1  0.18102846  0.66700981  0.14743522  1
  In  In46  1  0.63955729  0.85313023  0.49681749  1
  In  In47  1  0.21034717  0.52926496  0.68908807  1
  In  In48  1  0.38252061  0.18476409  0.51042402  1
  In  In49  1  0.84802735  0.81250188  0.02207111  1
  In  In50  1  0.82399767  0.84206291  0.69636137  1
  In  In51  1  -0.01477658  0.03034157  0.66963070  1
  In  In52  1  0.67215569  0.00322742  -0.00058842  1
  In  In53  1  0.82704205  0.30832726  0.15399791  1
  In  In54  1  0.02858280  0.83293821  0.84023477  1
  In  In55  1  0.47223105  -0.01069072  0.83414541  1
  In  In56  1  0.35947706  0.49789549  0.17485047  1
  In  In57  1  0.81164582  -0.00567999  0.16342760  1
  In  In58  1  0.81448912  0.03122947  0.84421771  1
  In  In59  1  0.81254481  0.66541532  0.17815815  1
  In  In60  1  0.48663577  0.49622591  -0.00658084  1
  In  In61  1  0.15850359  0.35757129  0.51676319  1
  In  In62  1  0.01215789  0.70140187  0.33059568  1
  In  In63  1  0.32878971  -0.01467060  0.32363515  1
  In  In64  1  0.52706210  0.02729227  0.17465111  1
  In  In65  1  0.32614313  0.16277170  0.82591109  1
  In  In66  1  0.16122671  0.16314930  0.00375833  1
  In  In67  1  0.16038541  0.32491040  0.16656637  1
  In  In68  1  0.33610602  0.82067230  0.83353798  1
  In  In69  1  0.18318776  0.82790382  0.01276905  1
  In  In70  1  -0.01533169  0.16347482  0.49856435  1
  In  In71  1  0.84128373  0.68194956  0.48625750  1
  Te  Te72  1  0.09041731  0.07858670  0.10025963  1
  Te  Te73  1  0.07785783  0.06850266  0.40995934  1
  Te  Te74  1  0.09526637  0.09989405  0.74599442  1
  Te  Te75  1  0.07780151  0.40336645  0.06509232  1
  Te  Te76  1  0.06922756  0.41660366  0.40910542  1
  Te  Te77  1  0.08784527  0.43295385  0.73186830  1
  Te  Te78  1  0.06813864  0.74496542  0.08159228  1
  Te  Te79  1  0.10291528  0.73203891  0.44103492  1
  Te  Te80  1  0.10376709  0.73899469  0.74757532  1
  Te  Te81  1  0.41560129  0.07211471  0.07893439  1
  Te  Te82  1  0.40737365  0.10023908  0.38896470  1
  Te  Te83  1  0.43516610  0.10074362  0.73732008  1
  Te  Te84  1  0.42647356  0.39817989  0.08840296  1
  Te  Te85  1  0.44276863  0.40860076  0.39170700  1
  Te  Te86  1  0.41632059  0.41964526  0.77063602  1
  Te  Te87  1  0.38863890  0.73543014  0.13360563  1
  Te  Te88  1  0.41939453  0.76657842  0.39499011  1
  Te  Te89  1  0.41320864  0.76908791  0.71856935  1
  Te  Te90  1  0.74039695  0.10536775  0.08723691  1
  Te  Te91  1  0.69067921  0.06711331  0.43336001  1
  Te  Te92  1  0.71772851  0.08547871  0.75028713  1
  Te  Te93  1  0.75093431  0.42608569  0.09452813  1
  Te  Te94  1  0.74968252  0.44221655  0.42294056  1
  Te  Te95  1  0.75052360  0.42775081  0.76350360  1
  Te  Te96  1  0.72971500  0.76728424  0.10324387  1
  Te  Te97  1  0.73107117  0.75580009  0.41505178  1
  Te  Te98  1  0.72766801  0.74812821  0.76466386  1
  Te  Te99  1  0.08253050  0.24517357  0.26793556  1
  Te  Te100  1  0.08677978  0.23965580  0.58207959  1
  Te  Te101  1  0.09157934  0.25535036  0.90549381  1
  Te  Te102  1  0.08862866  0.58378832  0.24497023  1
  Te  Te103  1  0.11817571  0.58166577  0.57394012  1
  Te  Te104  1  0.11880020  0.56166311  0.91298336  1
  Te  Te105  1  0.10864828  0.88628273  0.24386933  1
  Te  Te106  1  0.07121706  0.92391687  0.58926204  1
  Te  Te107  1  0.07752441  0.92562157  0.94789457  1
  Te  Te108  1  0.45396719  0.26890413  0.20538453  1
  Te  Te109  1  0.45311337  0.27813042  0.59521779  1
  Te  Te110  1  0.41911061  0.24232651  0.91788224  1
  Te  Te111  1  0.45196078  0.57602145  0.25853782  1
  Te  Te112  1  0.41715884  0.57216417  0.58645065  1
  Te  Te113  1  0.41164258  0.55991694  0.87498036  1
  Te  Te114  1  0.43120795  0.92108112  0.23390268  1
  Te  Te115  1  0.44472410  0.95323213  0.54441362  1
  Te  Te116  1  0.40374583  0.90410555  0.93990519  1
  Te  Te117  1  0.74346281  0.23897449  0.26292607  1
  Te  Te118  1  0.72583239  0.23158867  0.58566860  1
  Te  Te119  1  0.73708094  0.23073358  0.96550378  1
  Te  Te120  1  0.71995999  0.59511284  0.27383338  1
  Te  Te121  1  0.74714021  0.60561040  0.58062916  1
  Te  Te122  1  0.72743054  0.59731489  0.94400000  1
  Te  Te123  1  0.70515402  0.95370149  0.25905475  1
  Te  Te124  1  0.75096335  0.91444590  0.58790254  1
  Te  Te125  1  0.76346720  0.89964744  0.92089519  1
  Te  Te126  1  0.25989839  0.24967204  0.08235192  1
  Te  Te127  1  0.25943961  0.27448046  0.43362360  1
  Te  Te128  1  0.25156276  0.25698150  0.74156916  1
  Te  Te129  1  0.29565618  0.59934927  0.07287056  1
  Te  Te130  1  0.28465697  0.59611255  0.40102869  1
  Te  Te131  1  0.29192491  0.60431902  0.78466280  1
  Te  Te132  1  0.22715183  0.88828680  0.14084717  1
  Te  Te133  1  0.23851139  0.90987315  0.42116641  1
  Te  Te134  1  0.25228804  0.93313433  0.74554500  1
  Te  Te135  1  0.63096026  0.22068581  0.07948519  1
  Te  Te136  1  0.58113467  0.20595945  0.40875170  1
  Te  Te137  1  0.61521447  0.24528254  0.76597187  1
  Te  Te138  1  0.55822894  0.59563983  0.07593633  1
  Te  Te139  1  0.56192120  0.58427567  0.41125409  1
  Te  Te140  1  0.59139622  0.58562193  0.73515079  1
  Te  Te141  1  0.57727975  0.91845536  0.07885360  1
  Te  Te142  1  0.58326699  0.93421027  0.38393661  1
  Te  Te143  1  0.56517193  0.91573036  0.73831703  1
  Te  Te144  1  0.92294261  0.24658819  0.06173692  1
  Te  Te145  1  0.90441379  0.25240885  0.40607273  1
  Te  Te146  1  0.88911182  0.23408435  0.74425169  1
  Te  Te147  1  0.90465451  0.58093608  0.07962126  1
  Te  Te148  1  0.92140831  0.58400601  0.39977084  1
  Te  Te149  1  0.91638401  0.57632813  0.73201606  1
  Te  Te150  1  0.91692158  0.91661374  0.09692268  1
  Te  Te151  1  0.90080428  0.92898374  0.41126487  1
  Te  Te152  1  0.92902307  0.92637261  0.76938649  1
  Te  Te153  1  0.23936166  0.08150081  0.24403494  1
  Te  Te154  1  0.26753287  0.10594580  0.58427926  1
  Te  Te155  1  0.25848018  0.07151093  0.92809928  1
  Te  Te156  1  0.25015877  0.41317143  0.25438124  1
  Te  Te157  1  0.26854136  0.42350159  0.59632414  1
  Te  Te158  1  0.27982163  0.40177577  0.94125096  1
  Te  Te159  1  0.22308183  0.76681366  0.25403258  1
  Te  Te160  1  0.28705811  0.75006058  0.59812056  1
  Te  Te161  1  0.24451973  0.73756666  0.91295194  1
  Te  Te162  1  0.52715942  0.13418997  0.28181345  1
  Te  Te163  1  0.59568216  0.11754627  0.54565732  1
  Te  Te164  1  0.57917447  0.07347126  0.90367301  1
  Te  Te165  1  0.58623716  0.40122038  0.24425746  1
  Te  Te166  1  0.55972476  0.38347917  0.55300424  1
  Te  Te167  1  0.59568037  0.39938809  0.94491868  1
  Te  Te168  1  0.60984812  0.74526197  0.20252825  1
  Te  Te169  1  0.58051101  0.75715439  0.58998770  1
  Te  Te170  1  0.55453115  0.74376968  0.92251544  1
  Te  Te171  1  0.90203099  0.08127437  0.26195283  1
  Te  Te172  1  0.88780655  0.08827507  0.57833227  1
  Te  Te173  1  0.91009128  0.09071996  0.93631002  1
  Te  Te174  1  0.92484134  0.39550456  0.24138366  1
  Te  Te175  1  0.92071546  0.39351880  0.58232490  1
  Te  Te176  1  0.91482151  0.39111438  0.90007455  1
  Te  Te177  1  0.90127926  0.76596558  0.25100169  1
  Te  Te178  1  0.91672938  0.76331042  0.59186267  1
  Te  Te179  1  0.92440252  0.73079002  0.89619028  1
