# generated using pymatgen
data_In2Te3
_symmetry_space_group_name_H-M   'P 1'
_cell_length_a   18.99681293
_cell_length_b   18.97882275
_cell_length_c   18.96654928
_cell_angle_alpha   89.96805222
_cell_angle_beta   89.86255032
_cell_angle_gamma   90.07827578
_symmetry_Int_Tables_number   1
_chemical_formula_structural   In2Te3
_chemical_formula_sum   'In72 Te108'
_cell_volume   6838.11839931
_cell_formula_units_Z   36
loop_
 _symmetry_equiv_pos_site_id
 _symmetry_equiv_pos_as_xyz
  1  'x, y, z'
loop_
 _atom_site_type_symbol
 _atom_site_label
 _atom_site_symmetry_multiplicity
 _atom_site_fract_x
 _atom_site_fract_y
 _atom_site_fract_z
 _atom_site_occupancy
  In  In0  1  0.15338198  0.29675217  0.18861945  1
  In  In1  1  0.83646231  0.52383538  0.31426070  1
  In  In2  1  0.51252938  0.00369836  0.18319611  1
  In  In3  1  0.65682550  0.17119982  0.82543826  1
  In  In4  1  0.18550525  0.46825732  0.01422939  1
  In  In5  1  0.80128546  -0.04284930  0.49775617  1
  In  In6  1  0.35477218  0.85461630  0.16976377  1
  In  In7  1  0.34060916  0.15577177  0.18908237  1
  In  In8  1  0.33851477  0.32508843  -0.00029507  1
  In  In9  1  0.53829409  0.84880022  -0.00238650  1
  In  In10  1  0.52424640  0.66434834  0.51287579  1
  In  In11  1  0.66038079  0.84953808  0.82330227  1
  In  In12  1  0.02834004  0.14940698  0.79221563  1
  In  In13  1  -0.00919649  0.67591774  0.64879592  1
  In  In14  1  0.51744975  0.82744035  0.33007022  1
  In  In15  1  0.65148911  0.32002246  0.65982167  1
  In  In16  1  0.67792269  0.66091439  0.03385428  1
  In  In17  1  0.35699504  0.67439058  0.00365633  1
  In  In18  1  0.82473683  0.53159010  0.68441589  1
  In  In19  1  0.31738311  0.18252553  0.81885173  1
  In  In20  1  0.81733653  0.35668810  0.49947439  1
  In  In21  1  0.82082716  0.47200802  0.03720049  1
  In  In22  1  0.17081979  0.47805682  0.65918352  1
  In  In23  1  -0.00659146  0.85726013  0.48795109  1
  In  In24  1  0.83622197  0.13885410  0.34725491  1
  In  In25  1  0.80317978  0.69211374  0.46697902  1
  In  In26  1  0.32372797  0.68756804  0.33448466  1
  In  In27  1  0.15308917  0.80376570  -0.02628053  1
  In  In28  1  0.47806373  0.47935132  0.69148907  1
  In  In29  1  0.66652868  -0.00976014  0.32513406  1
  In  In30  1  -0.01355858  0.65638383  -0.00363179  1
  In  In31  1  0.40746287  0.42870119  0.51849749  1
  In  In32  1  0.48576096  0.66133134  0.83899319  1
  In  In33  1  0.00302773  0.34064799  0.66813098  1
  In  In34  1  0.17445111  0.85946675  0.67262801  1
  In  In35  1  0.51649594  0.50599275  -0.00865959  1
  In  In36  1  -0.00483952  0.28674312  0.31459446  1
  In  In37  1  0.82931555  0.00762574  0.81411299  1
  In  In38  1  0.35319069  0.50925193  0.17353751  1
  In  In39  1  0.64284386  0.49750174  0.47941297  1
  In  In40  1  0.16317272  0.00340686  0.15530709  1
  In  In41  1  0.82227283  0.31397880  0.17815194  1
  In  In42  1  0.32516889  0.00145743  -0.00495938  1
  In  In43  1  0.39821355  0.31417067  0.36763746  1
  In  In44  1  0.65985609  0.68642410  0.66906369  1
  In  In45  1  0.83671199  0.14475689  0.01910029  1
  In  In46  1  0.80621409  0.70870252  0.19777731  1
  In  In47  1  0.84717835  0.33565814  0.84241627  1
  In  In48  1  0.33025926  0.87655114  0.48340249  1
  In  In49  1  0.81466595  0.17258422  0.62602453  1
  In  In50  1  -0.00030315  0.85217277  0.17301243  1
  In  In51  1  0.47978989  0.03376787  0.50108705  1
  In  In52  1  0.66005436  0.17786706  0.18886925  1
  In  In53  1  0.67692086  0.01687434  0.01575757  1
  In  In54  1  0.16496448  0.17453324  -0.03775256  1
  In  In55  1  0.19489388  0.46770838  0.35042221  1
  In  In56  1  0.84331069  0.68331735  0.84010221  1
  In  In57  1  0.66692820  0.49249141  0.85880373  1
  In  In58  1  0.19503267  0.69213888  0.19205817  1
  In  In59  1  0.01814412  0.65320979  0.35579804  1
  In  In60  1  0.02127865  0.50020755  0.15871278  1
  In  In61  1  0.14901164  0.67217654  0.51036683  1
  In  In62  1  0.00849920  -0.01421197  -0.00621902  1
  In  In63  1  0.31660079  0.02201877  0.64754769  1
  In  In64  1  0.34435697  0.68627143  0.66870070  1
  In  In65  1  0.16358397  0.29662867  0.47758527  1
  In  In66  1  0.50078385  -0.00369680  0.82020113  1
  In  In67  1  -0.00161619  0.12194004  0.48519202  1
  In  In68  1  0.00145341  0.83798698  0.80326372  1
  In  In69  1  0.66609020  0.33686801  0.01654688  1
  In  In70  1  0.17885052  0.63940249  0.84129958  1
  In  In71  1  0.33527178  0.29059742  0.63037011  1
  Te  Te72  1  0.08316824  0.09534549  0.06550307  1
  Te  Te73  1  0.10424655  0.04939752  0.41544976  1
  Te  Te74  1  0.09682854  0.05781569  0.70110254  1
  Te  Te75  1  0.08091321  0.38290716  0.08481083  1
  Te  Te76  1  0.07487854  0.39430932  0.40122938  1
  Te  Te77  1  0.08363860  0.41819943  0.76131924  1
  Te  Te78  1  0.08190411  0.73639741  0.09117811  1
  Te  Te79  1  0.09437705  0.77280303  0.41133945  1
  Te  Te80  1  0.10211429  0.73132913  0.74361379  1
  Te  Te81  1  0.42312620  0.07369738  0.08356915  1
  Te  Te82  1  0.35632308  0.10688298  0.45258972  1
  Te  Te83  1  0.41463549  0.09267793  0.74234326  1
  Te  Te84  1  0.42969594  0.41735545  0.08170975  1
  Te  Te85  1  0.41756287  0.47060546  0.37588107  1
  Te  Te86  1  0.38976592  0.37512285  0.74225123  1
  Te  Te87  1  0.44488695  0.76503973  0.08883648  1
  Te  Te88  1  0.42076929  0.75629626  0.43586991  1
  Te  Te89  1  0.45328681  0.75712911  0.73453508  1
  Te  Te90  1  0.75801814  0.07743657  0.12936997  1
  Te  Te91  1  0.72882054  0.07542159  0.43477270  1
  Te  Te92  1  0.73523266  0.08861638  0.72613836  1
  Te  Te93  1  0.71773981  0.41666444  0.13467488  1
  Te  Te94  1  0.74203146  0.42640739  0.38896460  1
  Te  Te95  1  0.74385171  0.41105458  0.74784089  1
  Te  Te96  1  0.76268178  0.77146364  0.07400601  1
  Te  Te97  1  0.73648141  0.78818473  0.37275713  1
  Te  Te98  1  0.76441881  0.76640426  0.74379530  1
  Te  Te99  1  0.10418798  0.19113513  0.28120208  1
  Te  Te100  1  0.05663400  0.23962916  0.56940669  1
  Te  Te101  1  0.06894119  0.25376991  0.88538109  1
  Te  Te102  1  0.10847305  0.57549330  0.25819472  1
  Te  Te103  1  0.07064606  0.56471839  0.58054706  1
  Te  Te104  1  0.08889453  0.56350407  0.93614409  1
  Te  Te105  1  0.07082141  0.94927173  0.25761416  1
  Te  Te106  1  0.07289468  0.93058794  0.59249411  1
  Te  Te107  1  0.09678929  0.91759911  0.89076605  1
  Te  Te108  1  0.43129974  0.26429239  0.22866846  1
  Te  Te109  1  0.44463604  0.21328939  0.55377581  1
  Te  Te110  1  0.40811213  0.21948010  0.92666308  1
  Te  Te111  1  0.41792545  0.62092279  0.24332441  1
  Te  Te112  1  0.41670518  0.57804780  0.58257441  1
  Te  Te113  1  0.40031884  0.56087902  0.91021138  1
  Te  Te114  1  0.41889632  0.93482577  0.28194286  1
  Te  Te115  1  0.42270462  0.92232257  0.59023028  1
  Te  Te116  1  0.42509253  0.90894003  0.92050928  1
  Te  Te117  1  0.74491417  0.24919226  0.29134025  1
  Te  Te118  1  0.71599475  0.25118423  0.54171824  1
  Te  Te119  1  0.75596989  0.24349679  0.92457387  1
  Te  Te120  1  0.72492181  0.60164553  0.25771904  1
  Te  Te121  1  0.73800596  0.58707765  0.57311729  1
  Te  Te122  1  0.77014461  0.57968548  0.92652141  1
  Te  Te123  1  0.78519694  0.91035924  0.28532256  1
  Te  Te124  1  0.70411233  0.90144955  0.59373858  1
  Te  Te125  1  0.75122026  0.92726945  0.91710096  1
  Te  Te126  1  0.24491724  0.22665354  0.08397943  1
  Te  Te127  1  0.27184586  0.23083119  0.40076038  1
  Te  Te128  1  0.22237324  0.24521936  0.71973735  1
  Te  Te129  1  0.25252650  0.59522540  0.08261214  1
  Te  Te130  1  0.24424007  0.59162933  0.42280915  1
  Te  Te131  1  0.26378279  0.57435667  0.73395428  1
  Te  Te132  1  0.24242329  0.89080209  0.06574607  1
  Te  Te133  1  0.24140218  0.99423728  0.46481872  1
  Te  Te134  1  0.28357161  0.91772005  0.74752143  1
  Te  Te135  1  0.58130031  0.23821826  0.08212676  1
  Te  Te136  1  0.53231947  0.27230550  0.42869456  1
  Te  Te137  1  0.55791842  0.23876593  0.73884214  1
  Te  Te138  1  0.57636111  0.58178562  0.10074239  1
  Te  Te139  1  0.58601397  0.60314327  0.39486626  1
  Te  Te140  1  0.59054439  0.57069426  0.74700282  1
  Te  Te141  1  0.61216525  0.91577376  0.11120260  1
  Te  Te142  1  0.56929610  0.93122673  0.42643140  1
  Te  Te143  1  0.59721964  0.93697167  0.72224040  1
  Te  Te144  1  0.91581839  0.24860943  0.08554680  1
  Te  Te145  1  0.90593972  0.24906007  0.43738430  1
  Te  Te146  1  0.89937754  0.23873004  0.73474074  1
  Te  Te147  1  0.90658851  0.58419804  0.10342138  1
  Te  Te148  1  0.90750623  0.58506030  0.43336509  1
  Te  Te149  1  0.93736115  0.59097909  0.76545757  1
  Te  Te150  1  0.91195933  0.93558127  0.09095445  1
  Te  Te151  1  0.90359885  0.92730206  0.39012686  1
  Te  Te152  1  0.90609150  0.91700228  0.72705554  1
  Te  Te153  1  0.26886917  0.04367811  0.24977423  1
  Te  Te154  1  0.21012152  0.12492908  0.62189016  1
  Te  Te155  1  0.24094981  0.06661399  0.88879086  1
  Te  Te156  1  0.25306147  0.40457023  0.22803161  1
  Te  Te157  1  0.25341334  0.40458997  0.55248306  1
  Te  Te158  1  0.25262965  0.39845288  0.90610298  1
  Te  Te159  1  0.25039071  0.80601155  0.27291041  1
  Te  Te160  1  0.25304773  0.76466780  0.57139678  1
  Te  Te161  1  0.27147534  0.74545769  0.89839294  1
  Te  Te162  1  0.56750144  0.10189257  0.28310600  1
  Te  Te163  1  0.55020300  0.11830833  0.60203880  1
  Te  Te164  1  0.57967268  0.08160976  0.92084516  1
  Te  Te165  1  0.53306189  0.38021948  0.32292942  1
  Te  Te166  1  0.55790555  0.41096213  0.57347894  1
  Te  Te167  1  0.57109107  0.38883961  0.90700333  1
  Te  Te168  1  0.63161062  0.76170348  0.26297129  1
  Te  Te169  1  0.61370424  0.77685453  0.55954058  1
  Te  Te170  1  0.59944966  0.73167012  0.91035519  1
  Te  Te171  1  0.94556111  0.15340919  0.24765597  1
  Te  Te172  1  0.89519554  0.05670730  0.57413056  1
  Te  Te173  1  0.92509240  0.08716276  0.90289184  1
  Te  Te174  1  0.92530785  0.41655105  0.24807257  1
  Te  Te175  1  0.90324292  0.43244097  0.59751684  1
  Te  Te176  1  0.91546827  0.42387755  0.93619505  1
  Te  Te177  1  0.93808339  0.74245065  0.26160554  1
  Te  Te178  1  0.89974689  0.76142174  0.56363565  1
  Te  Te179  1  0.92759919  0.77571975  0.92420058  1
