# generated using pymatgen
data_In2Te3
_symmetry_space_group_name_H-M   'P 1'
_cell_length_a   18.92682381
_cell_length_b   18.92890441
_cell_length_c   18.93192691
_cell_angle_alpha   90.01410449
_cell_angle_beta   89.83222327
_cell_angle_gamma   90.11333107
_symmetry_Int_Tables_number   1
_chemical_formula_structural   In2Te3
_chemical_formula_sum   'In72 Te108'
_cell_volume   6782.58605019
_cell_formula_units_Z   36
loop_
 _symmetry_equiv_pos_site_id
 _symmetry_equiv_pos_as_xyz
  1  'x, y, z'
loop_
 _atom_site_type_symbol
 _atom_site_label
 _atom_site_symmetry_multiplicity
 _atom_site_fract_x
 _atom_site_fract_y
 _atom_site_fract_z
 _atom_site_occupancy
  In  In0  1  0.64768128  0.51358050  0.14654211  1
  In  In1  1  0.67866793  0.34631783  0.31823617  1
  In  In2  1  0.81483355  0.15718813  -0.02378143  1
  In  In3  1  -0.01870642  0.33255413  0.67275253  1
  In  In4  1  0.67040330  0.66875016  0.33501593  1
  In  In5  1  0.51232765  0.78926640  -0.02511896  1
  In  In6  1  0.34146925  0.64855129  -0.01782103  1
  In  In7  1  0.17394283  0.84461900  0.34863840  1
  In  In8  1  0.66376055  0.15500572  0.50395989  1
  In  In9  1  0.52199770  0.32162106  0.16523664  1
  In  In10  1  -0.01723843  0.65921930  0.67411681  1
  In  In11  1  0.51490310  0.17177864  0.00096746  1
  In  In12  1  0.51960259  0.83398578  0.32529717  1
  In  In13  1  0.31444470  0.64429139  0.32848568  1
  In  In14  1  0.78831129  0.66848289  0.81512223  1
  In  In15  1  0.82109506  0.83768505  0.33837933  1
  In  In16  1  0.65123869  0.83989631  0.51434204  1
  In  In17  1  0.50295873  0.18529667  0.32920951  1
  In  In18  1  0.01132032  0.32930591  -0.01028399  1
  In  In19  1  0.51919431  0.02146802  0.49625654  1
  In  In20  1  0.33770114  0.00545092  0.66574817  1
  In  In21  1  0.33774824  0.66578055  0.67821272  1
  In  In22  1  0.18397238  0.47916384  0.02218116  1
  In  In23  1  0.33570772  0.01595365  -0.01423337  1
  In  In24  1  0.02349320  0.81653951  0.50760501  1
  In  In25  1  0.49587063  0.38186790  0.83334607  1
  In  In26  1  0.47802400  0.65497048  0.49832712  1
  In  In27  1  0.50101616  0.84221904  0.68573491  1
  In  In28  1  0.18818677  0.16879574  0.68224663  1
  In  In29  1  0.67204522  0.50276553  0.52247312  1
  In  In30  1  0.17938288  0.49725790  0.67313764  1
  In  In31  1  0.16243225  0.83943277  0.67806518  1
  In  In32  1  0.13228923  0.67814107  0.17989124  1
  In  In33  1  0.19935444  0.33111067  0.82359828  1
  In  In34  1  0.81139528  0.02594132  0.80195943  1
  In  In35  1  0.00765488  0.17088300  0.84826910  1
  In  In36  1  -0.01904692  0.50108455  0.50440443  1
  In  In37  1  0.35806058  0.84404829  0.15593452  1
  In  In38  1  0.16398092  0.01941125  0.16308746  1
  In  In39  1  0.82277839  -0.00439295  0.50747288  1
  In  In40  1  0.16561830  0.17149206  0.32049552  1
  In  In41  1  0.67950950  0.83431586  0.15585706  1
  In  In42  1  0.50789690  -0.01133522  0.82995344  1
  In  In43  1  0.46670373  0.33872132  0.48874606  1
  In  In44  1  0.52632536  0.64439400  0.80160384  1
  In  In45  1  0.00228489  0.00862622  0.32082992  1
  In  In46  1  0.83295422  0.83114461  -0.00710322  1
  In  In47  1  0.16712349  0.31344197  0.16029120  1
  In  In48  1  0.15042391  -0.02353636  0.86232515  1
  In  In49  1  -0.00756206  -0.01898601  0.66171758  1
  In  In50  1  0.86117899  0.36803914  0.19067358  1
  In  In51  1  -0.00356366  0.68019805  0.01335108  1
  In  In52  1  0.00767389  0.53089379  0.83988883  1
  In  In53  1  0.51927544  0.01279767  0.17732760  1
  In  In54  1  0.31536090  0.82840613  0.50685973  1
  In  In55  1  0.82536983  0.66225270  0.15975274  1
  In  In56  1  -0.00693846  0.15274538  0.14824530  1
  In  In57  1  0.51562637  0.18232487  0.65607756  1
  In  In58  1  0.66647118  -0.00367882  -0.00411307  1
  In  In59  1  0.34789093  0.49742319  0.17762610  1
  In  In60  1  0.32996469  0.31128115  0.01020470  1
  In  In61  1  0.17505399  0.36323407  0.51018479  1
  In  In62  1  -0.02485235  0.67228275  0.36021302  1
  In  In63  1  -0.00381283  0.17696917  0.48919733  1
  In  In64  1  0.17205894  0.69612304  0.83286503  1
  In  In65  1  0.81202366  0.49676064  -0.00522589  1
  In  In66  1  0.80646758  0.32594619  0.83557633  1
  In  In67  1  -0.00727353  0.84191941  0.12501714  1
  In  In68  1  0.66696469  0.33501751  0.65658860  1
  In  In69  1  0.83343264  0.32331093  0.49833502  1
  In  In70  1  0.33750994  0.33838743  0.33523538  1
  In  In71  1  0.14965887  0.51043770  0.35453284  1
  Te  Te72  1  0.07607077  0.07053665  0.05906429  1
  Te  Te73  1  0.09098120  0.08194992  0.41950479  1
  Te  Te74  1  0.08043439  0.08071159  0.74756459  1
  Te  Te75  1  0.07032644  0.41607281  0.09880041  1
  Te  Te76  1  0.05986379  0.40374664  0.41891856  1
  Te  Te77  1  0.07835483  0.41166648  0.76301906  1
  Te  Te78  1  0.11049334  0.77765782  0.05053327  1
  Te  Te79  1  0.10574597  0.72642164  0.41785393  1
  Te  Te80  1  0.05939000  0.76327041  0.75932525  1
  Te  Te81  1  0.42253410  0.08883575  0.08756399  1
  Te  Te82  1  0.42052080  0.10201590  0.42242409  1
  Te  Te83  1  0.43075167  0.09051831  0.74882044  1
  Te  Te84  1  0.42404582  0.40749497  0.08344140  1
  Te  Te85  1  0.39428654  0.44689099  0.41774854  1
  Te  Te86  1  0.39307886  0.38063515  0.72695664  1
  Te  Te87  1  0.42507248  0.72718350  0.08409302  1
  Te  Te88  1  0.40943585  0.75904984  0.40324155  1
  Te  Te89  1  0.41483264  0.75349842  0.77183428  1
  Te  Te90  1  0.75500076  0.07395239  0.08315984  1
  Te  Te91  1  0.75562337  0.08494792  0.41380979  1
  Te  Te92  1  0.72078483  0.10560014  0.72011673  1
  Te  Te93  1  0.74340337  0.40783615  0.09640339  1
  Te  Te94  1  0.75710101  0.42866526  0.42014174  1
  Te  Te95  1  0.73304403  0.42795183  0.75347347  1
  Te  Te96  1  0.73639187  0.73197221  0.05976891  1
  Te  Te97  1  0.74807813  0.74783073  0.43672925  1
  Te  Te98  1  0.76999094  0.73882835  0.68605678  1
  Te  Te99  1  0.05958957  0.24901984  0.24680573  1
  Te  Te100  1  0.08761756  0.25804632  0.59351155  1
  Te  Te101  1  0.11778878  0.24604341  0.92112334  1
  Te  Te102  1  0.04317951  0.57284263  0.25487852  1
  Te  Te103  1  0.08134593  0.57811017  0.59023914  1
  Te  Te104  1  0.10488633  0.58667014  0.94040736  1
  Te  Te105  1  0.07974192  0.90053736  0.24242743  1
  Te  Te106  1  0.10359251  0.92867708  0.57135718  1
  Te  Te107  1  0.07123954  0.88859813  0.94638092  1
  Te  Te108  1  0.40433757  0.24992400  0.23281436  1
  Te  Te109  1  0.41440664  0.21406572  0.55173845  1
  Te  Te110  1  0.43196088  0.25920955  0.91112766  1
  Te  Te111  1  0.42903680  0.59199505  0.25414248  1
  Te  Te112  1  0.42627935  0.57322894  0.60748501  1
  Te  Te113  1  0.44386930  0.57127615  0.90642796  1
  Te  Te114  1  0.42124612  0.93175251  0.26309597  1
  Te  Te115  1  0.43146571  0.91537049  0.57042137  1
  Te  Te116  1  0.42543390  0.90722480  0.92678228  1
  Te  Te117  1  0.78149015  0.26172196  0.25569140  1
  Te  Te118  1  0.76150519  0.23084193  0.59700977  1
  Te  Te119  1  0.71625076  0.25506311  0.92617263  1
  Te  Te120  1  0.74915983  0.57010316  0.25183294  1
  Te  Te121  1  0.71383238  0.60540849  0.62437202  1
  Te  Te122  1  0.71553998  0.57482928  0.91280052  1
  Te  Te123  1  0.74716795  0.92470754  0.24789756  1
  Te  Te124  1  0.75302559  0.90441603  0.60007094  1
  Te  Te125  1  0.75044631  0.91588928  0.89925075  1
  Te  Te126  1  0.24225510  0.21664059  0.08099783  1
  Te  Te127  1  0.24169611  0.25884730  0.42208918  1
  Te  Te128  1  0.29771377  0.25444455  0.74092857  1
  Te  Te129  1  0.23967646  0.58831021  0.11148600  1
  Te  Te130  1  0.25902996  0.56346794  0.43877250  1
  Te  Te131  1  0.25408017  0.58084409  0.77478717  1
  Te  Te132  1  0.25670197  0.92647134  0.08064619  1
  Te  Te133  1  0.26004468  0.93523018  0.42366044  1
  Te  Te134  1  0.25829726  0.91854310  0.76234045  1
  Te  Te135  1  0.61298606  0.23338122  0.09211771  1
  Te  Te136  1  0.59591054  0.26984216  0.42666166  1
  Te  Te137  1  0.57840170  0.27017157  0.76112986  1
  Te  Te138  1  0.57185516  0.55993808  0.02551410  1
  Te  Te139  1  0.58412351  0.57801482  0.42087711  1
  Te  Te140  1  0.62148212  0.54909018  0.73714557  1
  Te  Te141  1  0.56767630  0.90198023  0.07378109  1
  Te  Te142  1  0.60242430  0.93379982  0.40333520  1
  Te  Te143  1  0.60856730  0.89549487  0.77215726  1
  Te  Te144  1  0.90538065  0.25287600  0.06386667  1
  Te  Te145  1  0.90203965  0.24107781  0.39678451  1
  Te  Te146  1  0.90286632  0.23562163  0.75836902  1
  Te  Te147  1  0.91546579  0.56972022  0.07947351  1
  Te  Te148  1  0.88505882  0.59703242  0.44728656  1
  Te  Te149  1  0.89140046  0.56759660  0.75333657  1
  Te  Te150  1  0.88375931  0.93131571  0.08869152  1
  Te  Te151  1  0.93228922  0.90704448  0.41942814  1
  Te  Te152  1  0.90737957  0.92042661  0.76361969  1
  Te  Te153  1  0.26006504  0.08516228  0.25017472  1
  Te  Te154  1  0.24842047  0.08291704  0.57996037  1
  Te  Te155  1  0.24964586  0.08217694  0.88729719  1
  Te  Te156  1  0.23004794  0.42031534  0.25440986  1
  Te  Te157  1  0.28014050  0.41160891  0.60498502  1
  Te  Te158  1  0.27585726  0.42280515  0.91725022  1
  Te  Te159  1  0.25288776  0.76047132  0.24088635  1
  Te  Te160  1  0.23314204  0.73450712  0.59297733  1
  Te  Te161  1  0.27200862  0.75983208  0.91824833  1
  Te  Te162  1  0.60045436  0.09955492  0.26195216  1
  Te  Te163  1  0.60979671  0.05915732  0.62008275  1
  Te  Te164  1  0.59506259  0.09002513  0.90115671  1
  Te  Te165  1  0.57145457  0.43294387  0.25481416  1
  Te  Te166  1  0.56185863  0.41459431  0.58237287  1
  Te  Te167  1  0.59868146  0.45246271  0.92348175  1
  Te  Te168  1  0.58622721  0.73719915  0.22948099  1
  Te  Te169  1  0.56443263  0.74237665  0.59222887  1
  Te  Te170  1  0.60909047  0.75051597  0.86953887  1
  Te  Te171  1  0.90424311  0.07868057  0.24035111  1
  Te  Te172  1  0.91764937  0.08825108  0.58442651  1
  Te  Te173  1  0.91708934  0.06815636  0.90993273  1
  Te  Te174  1  0.93741785  0.45637777  0.27642819  1
  Te  Te175  1  0.88879137  0.42458108  0.60098356  1
  Te  Te176  1  0.91898699  0.41784982  0.90782252  1
  Te  Te177  1  0.91424689  0.75527076  0.23924446  1
  Te  Te178  1  0.91244483  0.75711203  0.58753198  1
  Te  Te179  1  0.90247806  0.72658267  0.90658469  1
