# generated using pymatgen
data_In2Te3
_symmetry_space_group_name_H-M   'P 1'
_cell_length_a   18.77081012
_cell_length_b   18.77555598
_cell_length_c   18.76888635
_cell_angle_alpha   90.03437168
_cell_angle_beta   90.01772394
_cell_angle_gamma   90.05807282
_symmetry_Int_Tables_number   1
_chemical_formula_structural   In2Te3
_chemical_formula_sum   'In72 Te108'
_cell_volume   6614.75868727
_cell_formula_units_Z   36
loop_
 _symmetry_equiv_pos_site_id
 _symmetry_equiv_pos_as_xyz
  1  'x, y, z'
loop_
 _atom_site_type_symbol
 _atom_site_label
 _atom_site_symmetry_multiplicity
 _atom_site_fract_x
 _atom_site_fract_y
 _atom_site_fract_z
 _atom_site_occupancy
  In  In0  1  0.85564050  0.50706283  0.01440951  1
  In  In1  1  0.48315303  0.31741564  0.49889829  1
  In  In2  1  0.66321711  0.67502708  -0.01466260  1
  In  In3  1  0.17028333  0.01087855  0.16937493  1
  In  In4  1  0.82702440  0.01667310  0.17489854  1
  In  In5  1  0.68340453  0.83553235  0.50841137  1
  In  In6  1  0.81688222  0.33506733  0.84430613  1
  In  In7  1  0.48144823  0.00473250  0.15769408  1
  In  In8  1  0.33671344  0.64486566  -0.01654941  1
  In  In9  1  0.00427537  -0.00034123  -0.01078710  1
  In  In10  1  0.15595815  0.34157486  0.84571006  1
  In  In11  1  -0.00197939  0.51921496  0.85524686  1
  In  In12  1  -0.00003662  0.51315006  0.51412915  1
  In  In13  1  0.83112652  0.49135597  0.32682711  1
  In  In14  1  0.84123024  0.69794652  0.83822547  1
  In  In15  1  0.16326320  0.84500718  0.69099066  1
  In  In16  1  0.84131316  -0.01150500  0.50367091  1
  In  In17  1  0.51545837  0.32554872  0.83414704  1
  In  In18  1  -0.00192104  0.00164689  0.67904691  1
  In  In19  1  0.35673861  0.32416531  0.67941542  1
  In  In20  1  0.81020391  0.15954579  0.66569440  1
  In  In21  1  0.85116878  0.47156323  0.69251449  1
  In  In22  1  0.66065676  0.51038565  0.15787080  1
  In  In23  1  0.50221942  0.01489762  0.50921997  1
  In  In24  1  0.33060978  0.49933280  0.51802014  1
  In  In25  1  0.65384723  0.48645921  0.84088749  1
  In  In26  1  0.03538811  0.65289126  0.29512516  1
  In  In27  1  0.31685368  0.85306729  0.15302135  1
  In  In28  1  0.49010655  0.32423126  0.16010242  1
  In  In29  1  0.84077740  0.16499008  0.32785983  1
  In  In30  1  0.34024887  0.33331940  0.30904789  1
  In  In31  1  0.18299434  0.32844583  0.14679933  1
  In  In32  1  0.66389253  0.68818081  0.36149126  1
  In  In33  1  0.04928106  0.82154044  0.16225968  1
  In  In34  1  -0.00042188  0.83923654  0.48472452  1
  In  In35  1  0.02763294  0.83407442  0.83612783  1
  In  In36  1  0.02553020  0.70034129  0.66742879  1
  In  In37  1  -0.00063071  0.17175206  0.85538384  1
  In  In38  1  0.33023757  0.84567824  0.84985430  1
  In  In39  1  0.32583061  0.32771602  -0.01374352  1
  In  In40  1  0.17484061  0.15997652  0.66640333  1
  In  In41  1  0.49287969  0.63732110  0.50951633  1
  In  In42  1  0.16396938  0.14205897  0.34235778  1
  In  In43  1  0.32703252  0.49520914  0.15324592  1
  In  In44  1  0.32910958  0.14890118  0.49920885  1
  In  In45  1  0.66860716  0.17293128  0.82986034  1
  In  In46  1  -0.00184916  0.16214462  0.15428548  1
  In  In47  1  0.83297679  0.85181099  0.66558556  1
  In  In48  1  0.66490773  0.48724924  0.48543861  1
  In  In49  1  0.47364207  0.00026175  0.82053954  1
  In  In50  1  0.15189958  0.34806798  0.49826699  1
  In  In51  1  0.49057454  0.16416032  0.01622272  1
  In  In52  1  0.80410590  0.66376644  0.48312336  1
  In  In53  1  0.65430765  0.32608850  0.33271641  1
  In  In54  1  0.67660403  -0.00111922  0.00909467  1
  In  In55  1  0.65214229  0.00473499  0.30792356  1
  In  In56  1  0.49996149  0.65422233  0.16592369  1
  In  In57  1  0.50630186  0.84017327  -0.00907289  1
  In  In58  1  0.31622770  0.68059689  0.32204360  1
  In  In59  1  0.16671192  0.50187980  0.01914758  1
  In  In60  1  0.48878784  0.82377709  0.32185138  1
  In  In61  1  0.17844467  0.67584283  0.51634569  1
  In  In62  1  0.47469351  0.83256103  0.67932430  1
  In  In63  1  0.65587316  0.64401314  0.68489615  1
  In  In64  1  0.01953091  0.32763833  0.66319829  1
  In  In65  1  0.83626525  0.85625570  -0.00069719  1
  In  In66  1  0.65395927  0.16326054  0.51676111  1
  In  In67  1  -0.01472220  0.33390468  0.33198759  1
  In  In68  1  0.30478333  0.86978854  0.47569252  1
  In  In69  1  0.84532287  0.32660261  0.17254663  1
  In  In70  1  0.48805691  0.49302252  0.66535133  1
  In  In71  1  0.85435060  0.67068623  0.15154181  1
  Te  Te72  1  0.10056452  0.09724026  0.06175359  1
  Te  Te73  1  0.10420720  0.04574236  0.43638795  1
  Te  Te74  1  0.09063932  0.08169238  0.76976427  1
  Te  Te75  1  0.07620482  0.39755033  0.07160344  1
  Te  Te76  1  0.07568788  0.43859975  0.40355892  1
  Te  Te77  1  0.07935903  0.43473357  0.75254160  1
  Te  Te78  1  0.05508116  0.72052180  0.05463520  1
  Te  Te79  1  0.09137737  0.74309668  0.41044761  1
  Te  Te80  1  0.12544684  0.72615265  0.77963667  1
  Te  Te81  1  0.37962728  0.08788383  0.08410969  1
  Te  Te82  1  0.41516334  0.07330848  0.40551617  1
  Te  Te83  1  0.37512993  0.08036622  0.74231305  1
  Te  Te84  1  0.42099700  0.42225454  0.06192191  1
  Te  Te85  1  0.41439540  0.42187874  0.41336442  1
  Te  Te86  1  0.41046995  0.42681647  0.77891471  1
  Te  Te87  1  0.41501229  0.75056736  0.08334111  1
  Te  Te88  1  0.41137743  0.74895580  0.43155222  1
  Te  Te89  1  0.40303323  0.74099425  0.77222341  1
  Te  Te90  1  0.75949586  0.10269094  0.07648412  1
  Te  Te91  1  0.74322705  0.07726320  0.41632880  1
  Te  Te92  1  0.76140805  0.07114705  0.77231874  1
  Te  Te93  1  0.75371532  0.41663152  0.08303115  1
  Te  Te94  1  0.76400762  0.39066661  0.41908997  1
  Te  Te95  1  0.72600880  0.39895059  0.73769204  1
  Te  Te96  1  0.74999112  0.75689538  0.08069076  1
  Te  Te97  1  0.77591826  0.78718622  0.39636050  1
  Te  Te98  1  0.73724633  0.75966181  0.74580447  1
  Te  Te99  1  0.08725695  0.25023881  0.25124138  1
  Te  Te100  1  0.08137165  0.22946572  0.56389185  1
  Te  Te101  1  0.09560731  0.24726151  0.94154215  1
  Te  Te102  1  0.13134930  0.57373476  0.21846064  1
  Te  Te103  1  0.10400626  0.57445050  0.60772470  1
  Te  Te104  1  0.10764750  0.59585914  0.91757602  1
  Te  Te105  1  0.10102124  0.91733013  0.26665893  1
  Te  Te106  1  0.08524219  0.92036318  0.58248730  1
  Te  Te107  1  0.11362767  0.91691776  0.92660864  1
  Te  Te108  1  0.41776481  0.22557722  0.24560124  1
  Te  Te109  1  0.42741287  0.21679487  0.59928743  1
  Te  Te110  1  0.41282773  0.23449341  0.90305737  1
  Te  Te111  1  0.40806272  0.57593148  0.25781497  1
  Te  Te112  1  0.38621290  0.60943886  0.62350923  1
  Te  Te113  1  0.42312054  0.58643910  0.88181453  1
  Te  Te114  1  0.39661383  0.92737390  0.26168492  1
  Te  Te115  1  0.40136595  0.92550813  0.58251320  1
  Te  Te116  1  0.40157018  0.94354856  0.95092780  1
  Te  Te117  1  0.73944210  0.23907643  0.24073449  1
  Te  Te118  1  0.74608655  0.26015572  0.57944723  1
  Te  Te119  1  0.74452571  0.24561797  0.93560266  1
  Te  Te120  1  0.74972898  0.59698246  0.25118448  1
  Te  Te121  1  0.75181370  0.56600524  0.59190481  1
  Te  Te122  1  0.76657889  0.57940777  0.90509515  1
  Te  Te123  1  0.74451055  0.91257113  0.23979162  1
  Te  Te124  1  0.73036228  0.94538298  0.60241133  1
  Te  Te125  1  0.74039487  0.91404365  0.90411303  1
  Te  Te126  1  0.27179103  0.22750835  0.08295786  1
  Te  Te127  1  0.25211938  0.26398658  0.41854492  1
  Te  Te128  1  0.25022082  0.25169021  0.76279478  1
  Te  Te129  1  0.23834476  0.61396529  0.10972110  1
  Te  Te130  1  0.24655834  0.58031702  0.41864826  1
  Te  Te131  1  0.25715724  0.55948238  0.68104867  1
  Te  Te132  1  0.21436729  0.91328213  0.06080723  1
  Te  Te133  1  0.20996859  0.94486991  0.38734851  1
  Te  Te134  1  0.25649784  0.94578721  0.75749792  1
  Te  Te135  1  0.59128435  0.25642572  0.07520175  1
  Te  Te136  1  0.56559359  0.22739580  0.40767959  1
  Te  Te137  1  0.57502856  0.23526909  0.73219159  1
  Te  Te138  1  0.56885788  0.57592564  0.05388205  1
  Te  Te139  1  0.57251341  0.57071209  0.39708142  1
  Te  Te140  1  0.55285522  0.58721221  0.78232144  1
  Te  Te141  1  0.58762205  0.91022725  0.09869456  1
  Te  Te142  1  0.57970861  0.90600575  0.41840480  1
  Te  Te143  1  0.57371096  0.91344559  0.75233076  1
  Te  Te144  1  0.90916417  0.24301754  0.06896213  1
  Te  Te145  1  0.92652110  0.23599869  0.42469361  1
  Te  Te146  1  0.91826259  0.25476328  0.75153892  1
  Te  Te147  1  0.96170796  0.59126882  0.08254850  1
  Te  Te148  1  0.92063307  0.59459304  0.40903184  1
  Te  Te149  1  0.91880256  0.59996282  0.74048829  1
  Te  Te150  1  0.93597374  0.91847608  0.10168340  1
  Te  Te151  1  0.92173317  0.92768376  0.39574765  1
  Te  Te152  1  0.91441544  0.91847499  0.77626746  1
  Te  Te153  1  0.26556043  0.09942255  0.24408626  1
  Te  Te154  1  0.24571819  0.05903806  0.58346623  1
  Te  Te155  1  0.30003551  0.04870236  0.86853542  1
  Te  Te156  1  0.23216463  0.42832462  0.25461028  1
  Te  Te157  1  0.24528804  0.40564838  0.60703118  1
  Te  Te158  1  0.25474468  0.43935029  0.90995242  1
  Te  Te159  1  0.22911551  0.76850148  0.24112393  1
  Te  Te160  1  0.26072746  0.77790602  0.59231547  1
  Te  Te161  1  0.25124513  0.75723405  0.94019836  1
  Te  Te162  1  0.57078798  0.09927901  0.23054225  1
  Te  Te163  1  0.57894525  0.08238925  0.61712719  1
  Te  Te164  1  0.57356720  0.07425625  0.91920662  1
  Te  Te165  1  0.57298059  0.42311616  0.24784898  1
  Te  Te166  1  0.57946335  0.40406821  0.58187457  1
  Te  Te167  1  0.59214362  0.39682348  0.94033855  1
  Te  Te168  1  0.59360022  0.75076624  0.23886507  1
  Te  Te169  1  0.58586190  0.73735908  0.58114014  1
  Te  Te170  1  0.58591455  0.76184912  0.89465699  1
  Te  Te171  1  0.94228323  0.07107493  0.26289221  1
  Te  Te172  1  0.92182722  0.09136256  0.58258032  1
  Te  Te173  1  0.90209043  0.08131525  0.92056970  1
  Te  Te174  1  0.93467752  0.43850343  0.22926991  1
  Te  Te175  1  0.91600846  0.40071901  0.57365134  1
  Te  Te176  1  0.92787385  0.40442127  0.92623334  1
  Te  Te177  1  0.93421710  0.75652928  0.24830082  1
  Te  Te178  1  0.90315310  0.74742245  0.57747518  1
  Te  Te179  1  0.94168686  0.75032624  0.94019037  1
