# generated using pymatgen
data_In2Te3
_symmetry_space_group_name_H-M   'P 1'
_cell_length_a   18.77032865
_cell_length_b   18.78572596
_cell_length_c   18.78115119
_cell_angle_alpha   90.00538980
_cell_angle_beta   90.00308491
_cell_angle_gamma   90.00601403
_symmetry_Int_Tables_number   1
_chemical_formula_structural   In2Te3
_chemical_formula_sum   'In72 Te108'
_cell_volume   6622.50147132
_cell_formula_units_Z   36
loop_
 _symmetry_equiv_pos_site_id
 _symmetry_equiv_pos_as_xyz
  1  'x, y, z'
loop_
 _atom_site_type_symbol
 _atom_site_label
 _atom_site_symmetry_multiplicity
 _atom_site_fract_x
 _atom_site_fract_y
 _atom_site_fract_z
 _atom_site_occupancy
  In  In0  1  0.32378941  0.01347765  0.67829730  1
  In  In1  1  -0.00746336  0.47616276  0.51181977  1
  In  In2  1  0.00546712  0.21025731  0.18274521  1
  In  In3  1  0.00165657  0.01219723  0.37739143  1
  In  In4  1  0.49456170  0.49075819  0.33161113  1
  In  In5  1  0.82946287  0.51005009  0.34892010  1
  In  In6  1  0.32778497  0.65173118  0.34562081  1
  In  In7  1  0.51516767  0.84214861  0.66904077  1
  In  In8  1  0.34181923  0.02436012  0.36454218  1
  In  In9  1  0.54583407  0.02614183  0.52105884  1
  In  In10  1  0.16042788  0.48243843  0.64843882  1
  In  In11  1  0.00282571  0.65375090  0.01161664  1
  In  In12  1  0.65283563  0.16374968  0.81092486  1
  In  In13  1  0.81038506  0.00951070  0.81884320  1
  In  In14  1  0.81756621  0.81775094  0.66894798  1
  In  In15  1  -0.00274058  0.82342764  0.83856129  1
  In  In16  1  0.65968861  0.36512382  -0.02482518  1
  In  In17  1  0.67649630  0.33375828  0.68146166  1
  In  In18  1  -0.00193126  0.34643682  0.35249013  1
  In  In19  1  -0.03561762  0.79397022  0.19355136  1
  In  In20  1  0.82553682  0.65775180  0.51550266  1
  In  In21  1  -0.01287206  0.50622204  0.81510656  1
  In  In22  1  0.17500558  0.33836063  0.82615224  1
  In  In23  1  0.68402860  -0.01364203  -0.00931758  1
  In  In24  1  0.32829510  0.83919046  0.49761094  1
  In  In25  1  0.67825203  0.18724733  0.20138083  1
  In  In26  1  0.53148940  0.66166096  0.14553589  1
  In  In27  1  0.82151228  0.17935152  0.35004503  1
  In  In28  1  0.50219079  0.81863353  -0.01262779  1
  In  In29  1  0.83356663  0.33511321  0.50950937  1
  In  In30  1  0.48924891  0.65736444  0.49393441  1
  In  In31  1  0.85098328  0.19627193  0.01214719  1
  In  In32  1  0.66734549  0.85041492  0.50075070  1
  In  In33  1  0.00170519  0.84284735  0.50133175  1
  In  In34  1  0.52096253  0.46381932  0.66354483  1
  In  In35  1  0.48860400  0.33211555  0.17615837  1
  In  In36  1  0.49610753  0.00214527  0.79577779  1
  In  In37  1  0.66006102  0.62759322  0.67829226  1
  In  In38  1  0.35169346  0.83376929  0.14942504  1
  In  In39  1  0.34277533  0.33881053  -0.00545124  1
  In  In40  1  0.49003222  -0.00024105  0.16811945  1
  In  In41  1  0.67966560  0.00875531  0.34620638  1
  In  In42  1  0.00986330  0.19473326  0.81329739  1
  In  In43  1  0.19052365  0.00518664  0.82477726  1
  In  In44  1  0.16927620  0.18472474  0.36487601  1
  In  In45  1  -0.02106483  0.01755048  0.63212519  1
  In  In46  1  0.67315972  0.48694205  0.54244781  1
  In  In47  1  0.15014301  0.67213809  0.84816851  1
  In  In48  1  0.50315840  0.19877090  -0.02672663  1
  In  In49  1  0.32142201  0.19703953  0.14430895  1
  In  In50  1  0.35781221  0.49587960  0.82018121  1
  In  In51  1  0.51649127  0.65214194  0.81509897  1
  In  In52  1  0.83331930  0.00787610  0.18054567  1
  In  In53  1  0.18217592  0.80218662  -0.02097864  1
  In  In54  1  0.65916535  0.49003902  0.16082342  1
  In  In55  1  0.50201719  0.20456702  0.36566311  1
  In  In56  1  0.17224335  0.83438845  0.33901762  1
  In  In57  1  0.31511866  0.48391219  0.50491001  1
  In  In58  1  0.31914463  0.67118557  0.65741920  1
  In  In59  1  0.66581191  0.67430156  0.32845702  1
  In  In60  1  0.85609998  0.32885938  0.83372366  1
  In  In61  1  0.84568964  0.79652260  -0.01231659  1
  In  In62  1  0.69643006  0.80836207  0.15678178  1
  In  In63  1  0.16458460  0.65223611  0.49270103  1
  In  In64  1  0.15779587  0.64025865  0.16239514  1
  In  In65  1  0.32529309  -0.00302102  -0.01600798  1
  In  In66  1  0.16024023  0.18531512  0.64678685  1
  In  In67  1  0.01462149  0.49039427  0.14864620  1
  In  In68  1  0.17266780  0.18340920  -0.02828264  1
  In  In69  1  0.30444567  0.47790474  0.17080415  1
  In  In70  1  0.15067253  0.00973965  0.18621933  1
  In  In71  1  -0.00512023  0.00842441  0.00352739  1
  Te  Te72  1  0.08478878  0.10588185  0.08314923  1
  Te  Te73  1  0.09243979  0.09759721  0.46275407  1
  Te  Te74  1  0.07878423  0.07649524  0.74626870  1
  Te  Te75  1  0.09450742  0.39187978  0.07346022  1
  Te  Te76  1  0.10203824  0.40844943  0.43788649  1
  Te  Te77  1  0.06739826  0.39875453  0.73556495  1
  Te  Te78  1  0.07875326  0.76862853  0.08629189  1
  Te  Te79  1  0.07464983  0.74012798  0.40493889  1
  Te  Te80  1  0.08246761  0.75007038  0.74353464  1
  Te  Te81  1  0.41390591  0.09309707  0.07370230  1
  Te  Te82  1  0.42910641  0.10683371  0.45800400  1
  Te  Te83  1  0.43362006  0.10718256  0.71404808  1
  Te  Te84  1  0.42500746  0.43205172  0.08400370  1
  Te  Te85  1  0.41112870  0.40325417  0.42003031  1
  Te  Te86  1  0.40954735  0.38989315  0.72989293  1
  Te  Te87  1  0.41187646  0.72327457  0.06622126  1
  Te  Te88  1  0.42036620  0.75900766  0.40472116  1
  Te  Te89  1  0.41977460  0.74824914  0.74338322  1
  Te  Te90  1  0.74925435  0.09150664  0.08358607  1
  Te  Te91  1  0.76314309  0.08078622  0.44849338  1
  Te  Te92  1  0.73807418  0.08779920  0.71227251  1
  Te  Te93  1  0.75602504  0.41999875  0.07175941  1
  Te  Te94  1  0.73845390  0.41361072  0.41960966  1
  Te  Te95  1  0.74980354  0.41976188  0.77810689  1
  Te  Te96  1  0.74856057  0.70646029  0.06063237  1
  Te  Te97  1  0.75733620  0.75629618  0.41985123  1
  Te  Te98  1  0.74338524  0.72463921  0.76343735  1
  Te  Te99  1  0.11771321  0.28593494  0.25920113  1
  Te  Te100  1  0.06219601  0.23403217  0.54485586  1
  Te  Te101  1  0.06315419  0.28085176  0.92491687  1
  Te  Te102  1  0.06807501  0.57718547  0.25807692  1
  Te  Te103  1  0.06881375  0.58917896  0.59289734  1
  Te  Te104  1  0.08669546  0.55974030  0.92588603  1
  Te  Te105  1  0.06094821  0.91223644  0.26033511  1
  Te  Te106  1  0.08540325  0.92328954  0.59279940  1
  Te  Te107  1  0.09254129  0.92463300  0.92071411  1
  Te  Te108  1  0.39416191  0.25667695  0.26789897  1
  Te  Te109  1  0.38118385  0.29350080  0.54735368  1
  Te  Te110  1  0.41866841  0.27695302  0.88207728  1
  Te  Te111  1  0.42225636  0.58955717  0.24152246  1
  Te  Te112  1  0.41943042  0.56767295  0.59604301  1
  Te  Te113  1  0.44082379  0.57211377  0.91871130  1
  Te  Te114  1  0.40272201  0.92075491  0.26453936  1
  Te  Te115  1  0.42987108  0.92520481  0.57362178  1
  Te  Te116  1  0.41671287  0.91102665  0.90022187  1
  Te  Te117  1  0.78097014  0.27917364  0.24914916  1
  Te  Te118  1  0.72659786  0.24344376  0.56967033  1
  Te  Te119  1  0.73922533  0.24077896  0.91600873  1
  Te  Te120  1  0.75689297  0.59118162  0.23898292  1
  Te  Te121  1  0.79090792  0.55210591  0.62405007  1
  Te  Te122  1  0.73635351  0.65399062  0.90439948  1
  Te  Te123  1  0.75627774  0.90626747  0.26163608  1
  Te  Te124  1  0.75443164  0.92649635  0.59159968  1
  Te  Te125  1  0.75824720  0.89063161  0.90139452  1
  Te  Te126  1  0.21583054  0.29183743  0.07959531  1
  Te  Te127  1  0.26654145  0.25228730  0.46089190  1
  Te  Te128  1  0.25246522  0.23882586  0.74933118  1
  Te  Te129  1  0.24795458  0.57046830  0.07107398  1
  Te  Te130  1  0.22703835  0.55124665  0.39488105  1
  Te  Te131  1  0.24068272  0.57202861  0.74385828  1
  Te  Te132  1  0.24050196  0.92511243  0.09094264  1
  Te  Te133  1  0.23239033  0.93943118  0.43172536  1
  Te  Te134  1  0.26314881  0.90045114  0.75153968  1
  Te  Te135  1  0.58808879  0.25281133  0.08826136  1
  Te  Te136  1  0.61280949  0.25793144  0.44575092  1
  Te  Te137  1  0.56260455  0.26312143  0.74775557  1
  Te  Te138  1  0.59195131  0.56576242  0.05116455  1
  Te  Te139  1  0.59776540  0.57399303  0.42428116  1
  Te  Te140  1  0.60573502  0.52290610  0.78576428  1
  Te  Te141  1  0.58505194  0.91043074  0.08742998  1
  Te  Te142  1  0.56990954  0.92174761  0.40824755  1
  Te  Te143  1  0.60892265  0.91577863  0.75492852  1
  Te  Te144  1  0.93193051  0.29667400  0.08580740  1
  Te  Te145  1  0.93880244  0.23430442  0.44317232  1
  Te  Te146  1  0.90165229  0.23918938  0.72437515  1
  Te  Te147  1  0.90557964  0.56348502  0.07570391  1
  Te  Te148  1  0.93110094  0.58961046  0.42658706  1
  Te  Te149  1  0.89581354  0.59079819  0.73602537  1
  Te  Te150  1  0.90522331  0.91269215  0.08234082  1
  Te  Te151  1  0.90129614  0.91295219  0.41735876  1
  Te  Te152  1  0.91767649  0.92140448  0.75016176  1
  Te  Te153  1  0.25319378  0.09671727  0.25791493  1
  Te  Te154  1  0.24676723  0.08675429  0.57482844  1
  Te  Te155  1  0.28110987  0.11111623  0.89168542  1
  Te  Te156  1  0.24063860  0.38442815  0.26091070  1
  Te  Te157  1  0.25192250  0.37487502  0.59235979  1
  Te  Te158  1  0.25238765  0.43453543  0.91478986  1
  Te  Te159  1  0.25279269  0.74687544  0.24136818  1
  Te  Te160  1  0.22537946  0.76296995  0.58086365  1
  Te  Te161  1  0.27883045  0.72666120  0.89988832  1
  Te  Te162  1  0.57282142  0.09038780  0.26182764  1
  Te  Te163  1  0.61320157  0.11896378  0.61441584  1
  Te  Te164  1  0.57517959  0.07230857  0.92131506  1
  Te  Te165  1  0.59517345  0.39751135  0.26493885  1
  Te  Te166  1  0.56452845  0.37493524  0.54463379  1
  Te  Te167  1  0.55111137  0.44029160  0.90944482  1
  Te  Te168  1  0.57666233  0.76705406  0.24662401  1
  Te  Te169  1  0.59260035  0.73395702  0.58123128  1
  Te  Te170  1  0.60328247  0.73818510  0.90884605  1
  Te  Te171  1  0.93202332  0.09527385  0.25794174  1
  Te  Te172  1  0.88806438  0.09294343  0.54585068  1
  Te  Te173  1  0.90882551  0.09137536  0.90771563  1
  Te  Te174  1  0.91431172  0.42524389  0.25493892  1
  Te  Te175  1  0.92115225  0.39384971  0.61407002  1
  Te  Te176  1  0.90051286  0.44282516  0.91910548  1
  Te  Te177  1  0.86383643  0.71744195  0.26253705  1
  Te  Te178  1  0.92629759  0.74366132  0.59372065  1
  Te  Te179  1  0.91937816  0.70264781  0.89019206  1
