# generated using pymatgen
data_In2Te3
_symmetry_space_group_name_H-M   'P 1'
_cell_length_a   19.04343014
_cell_length_b   19.01427172
_cell_length_c   19.03500120
_cell_angle_alpha   89.93098471
_cell_angle_beta   89.72350322
_cell_angle_gamma   90.08115938
_symmetry_Int_Tables_number   1
_chemical_formula_structural   In2Te3
_chemical_formula_sum   'In72 Te108'
_cell_volume   6892.42374995
_cell_formula_units_Z   36
loop_
 _symmetry_equiv_pos_site_id
 _symmetry_equiv_pos_as_xyz
  1  'x, y, z'
loop_
 _atom_site_type_symbol
 _atom_site_label
 _atom_site_symmetry_multiplicity
 _atom_site_fract_x
 _atom_site_fract_y
 _atom_site_fract_z
 _atom_site_occupancy
  In  In0  1  0.34404527  0.17523411  0.83929207  1
  In  In1  1  0.18109680  0.32527297  0.16937954  1
  In  In2  1  0.02239159  -0.03854719  0.64069875  1
  In  In3  1  0.49841047  0.52376726  0.67541322  1
  In  In4  1  0.15238155  0.49850845  0.34952955  1
  In  In5  1  0.03328392  0.32099192  -0.01512657  1
  In  In6  1  0.35152192  0.68298919  -0.00969276  1
  In  In7  1  0.01139417  0.49913085  0.82242725  1
  In  In8  1  0.79064455  0.84315750  -0.00161274  1
  In  In9  1  0.17421521  0.14488697  0.67489403  1
  In  In10  1  0.31586853  0.33197659  0.33064443  1
  In  In11  1  0.64706631  0.51895703  0.13960109  1
  In  In12  1  0.16475498  0.82980837  -0.01220330  1
  In  In13  1  0.65808046  0.66757896  0.32307701  1
  In  In14  1  -0.00445712  0.01144003  0.04052037  1
  In  In15  1  0.33324343  0.36014902  0.00723466  1
  In  In16  1  0.18307891  0.00124163  0.17973470  1
  In  In17  1  0.84601524  0.52605964  0.36784363  1
  In  In18  1  0.81154296  0.01304910  0.18723204  1
  In  In19  1  0.64678690  0.33371902  -0.00919755  1
  In  In20  1  0.84244948  0.17077314  0.64020675  1
  In  In21  1  0.31916772  0.51369493  0.81948631  1
  In  In22  1  0.53207898  0.13164775  -0.02561102  1
  In  In23  1  0.50729611  0.29544330  0.52482458  1
  In  In24  1  0.66536177  -0.01376244  0.33547768  1
  In  In25  1  0.14080434  0.33008647  0.51946731  1
  In  In26  1  0.66905994  0.16359337  0.51529516  1
  In  In27  1  0.82344755  0.52313112  -0.02706621  1
  In  In28  1  0.31837455  0.32245554  0.63504708  1
  In  In29  1  0.34651295  0.12159889  0.46620228  1
  In  In30  1  0.82969580  -0.02223549  0.48755603  1
  In  In31  1  0.19684880  0.52486057  -0.00491941  1
  In  In32  1  0.00108668  0.82250810  0.17148881  1
  In  In33  1  -0.01523175  0.66256084  0.00288077  1
  In  In34  1  0.84139409  0.83164860  0.34318493  1
  In  In35  1  0.68090814  0.34233373  0.32080427  1
  In  In36  1  0.51204043  -0.02392617  0.14404636  1
  In  In37  1  0.50777291  0.83274237  0.30404382  1
  In  In38  1  0.81380969  0.34098687  0.84339948  1
  In  In39  1  0.01571752  0.82989971  0.81752796  1
  In  In40  1  0.50881484  0.14638697  0.70511699  1
  In  In41  1  0.85819711  -0.00119299  0.80656136  1
  In  In42  1  0.64724918  -0.01120723  0.70309049  1
  In  In43  1  0.30749120  -0.02592117  0.64752228  1
  In  In44  1  0.18013236  0.01627224  0.84019637  1
  In  In45  1  -0.02723037  0.67739597  0.65009476  1
  In  In46  1  0.33546351  0.82621172  0.15721148  1
  In  In47  1  0.32057111  0.65197674  0.65919042  1
  In  In48  1  0.66736190  0.36196374  0.68386217  1
  In  In49  1  0.65829377  0.15577366  0.17404296  1
  In  In50  1  0.49767307  0.68060577  0.47816301  1
  In  In51  1  0.83957198  0.34919002  0.17433479  1
  In  In52  1  0.92462401  0.37755348  0.50339389  1
  In  In53  1  0.17259162  0.16041276  0.33403313  1
  In  In54  1  0.82452480  0.67905302  0.16620663  1
  In  In55  1  0.01187083  0.17712486  0.48259686  1
  In  In56  1  0.00480801  0.15133715  0.20583227  1
  In  In57  1  0.34808962  0.84678072  0.84294290  1
  In  In58  1  0.34092582  0.84363969  0.47110002  1
  In  In59  1  0.13724187  0.67486081  0.51336062  1
  In  In60  1  0.50416418  0.69350426  0.83302828  1
  In  In61  1  0.82600837  0.17321105  0.03909832  1
  In  In62  1  0.01984982  0.49288824  0.18880801  1
  In  In63  1  0.46738100  0.35304426  0.17092801  1
  In  In64  1  0.18416337  0.82776347  0.33483262  1
  In  In65  1  0.67287731  0.53538974  0.50593171  1
  In  In66  1  0.81145031  0.69095673  0.84163624  1
  In  In67  1  0.50484546  0.35677744  0.83601055  1
  In  In68  1  0.69765784  0.67337506  0.65937093  1
  In  In69  1  0.67309386  0.82392932  0.50551049  1
  In  In70  1  -0.00398556  0.17800803  0.84114137  1
  In  In71  1  0.32869422  0.48931799  0.44810226  1
  Te  Te72  1  0.09851016  0.10295737  0.09795357  1
  Te  Te73  1  0.07083752  0.07474369  0.39725212  1
  Te  Te74  1  0.06082928  0.06600814  0.75145737  1
  Te  Te75  1  0.09968966  0.42811742  0.07637012  1
  Te  Te76  1  0.05543151  0.41304297  0.42836907  1
  Te  Te77  1  0.06445880  0.39090784  0.74305407  1
  Te  Te78  1  0.08923477  0.73811409  0.08255132  1
  Te  Te79  1  0.07872856  0.78151198  0.43038145  1
  Te  Te80  1  0.08225765  0.75235047  0.71472611  1
  Te  Te81  1  0.44050673  0.08358148  0.07568942  1
  Te  Te82  1  0.46560583  0.09509754  0.39173760  1
  Te  Te83  1  0.38876119  0.06551426  0.74462951  1
  Te  Te84  1  0.42330300  0.45233117  0.07319168  1
  Te  Te85  1  0.43157518  0.37558831  0.42414753  1
  Te  Te86  1  0.40999462  0.40611175  0.72679718  1
  Te  Te87  1  0.44169076  0.73572546  0.09919272  1
  Te  Te88  1  0.41120055  0.73928664  0.37303143  1
  Te  Te89  1  0.40498378  0.75212391  0.73695563  1
  Te  Te90  1  0.72513150  0.06349764  0.07426807  1
  Te  Te91  1  0.75012617  0.08330865  0.41451033  1
  Te  Te92  1  0.75997459  0.09056373  0.73751088  1
  Te  Te93  1  0.74891212  0.41657985  0.07524639  1
  Te  Te94  1  0.74820114  0.42642608  0.42870398  1
  Te  Te95  1  0.76089631  0.44838870  0.75755308  1
  Te  Te96  1  0.72825990  0.72643452  0.06564618  1
  Te  Te97  1  0.75468091  0.72654922  0.42335497  1
  Te  Te98  1  0.72996764  0.77667765  0.75718117  1
  Te  Te99  1  0.08262373  0.26586994  0.26671151  1
  Te  Te100  1  0.06908787  0.23364821  0.61094417  1
  Te  Te101  1  0.11329889  0.22306849  0.91407486  1
  Te  Te102  1  0.08873471  0.59729384  0.26182178  1
  Te  Te103  1  0.04967990  0.56712725  0.57623327  1
  Te  Te104  1  0.08578075  0.59352084  0.91457955  1
  Te  Te105  1  0.08180093  0.91703536  0.25320052  1
  Te  Te106  1  0.15234069  0.93603017  0.57942880  1
  Te  Te107  1  0.06913779  0.93438484  0.93024476  1
  Te  Te108  1  0.40524162  0.24741325  0.25161944  1
  Te  Te109  1  0.40617226  0.20454406  0.59205074  1
  Te  Te110  1  0.44242525  0.25209465  0.92673419  1
  Te  Te111  1  0.37196589  0.51199641  0.30691585  1
  Te  Te112  1  0.41389927  0.57684862  0.56148572  1
  Te  Te113  1  0.42307483  0.58148422  0.90091187  1
  Te  Te114  1  0.40907798  0.92831967  0.24345666  1
  Te  Te115  1  0.41797749  0.92077820  0.56818803  1
  Te  Te116  1  0.44827954  0.89087440  0.94389308  1
  Te  Te117  1  0.76402224  0.23928848  0.24668702  1
  Te  Te118  1  0.74562732  0.27384483  0.58658025  1
  Te  Te119  1  0.74297308  0.23564647  0.92778583  1
  Te  Te120  1  0.75118250  0.56666770  0.24852925  1
  Te  Te121  1  0.76849972  0.55037686  0.61621156  1
  Te  Te122  1  0.71984990  0.61820941  0.93419848  1
  Te  Te123  1  0.74127366  0.89166305  0.24561215  1
  Te  Te124  1  0.73954910  0.92322847  0.59509032  1
  Te  Te125  1  0.75662599  0.92860356  0.88590076  1
  Te  Te126  1  0.26581156  0.25202424  0.07751953  1
  Te  Te127  1  0.24720924  0.24651938  0.44113392  1
  Te  Te128  1  0.24644762  0.25408557  0.74951711  1
  Te  Te129  1  0.27667503  0.60101509  0.08912652  1
  Te  Te130  1  0.23307346  0.60645497  0.41775222  1
  Te  Te131  1  0.22122943  0.57430545  0.73258489  1
  Te  Te132  1  0.25242667  0.91939730  0.07053961  1
  Te  Te133  1  0.27152350  0.93606023  0.38175830  1
  Te  Te134  1  0.23279539  0.90174093  0.75974518  1
  Te  Te135  1  0.57701535  0.25970488  0.10233785  1
  Te  Te136  1  0.59841509  0.25013408  0.41131722  1
  Te  Te137  1  0.59507229  0.25669064  0.76421866  1
  Te  Te138  1  0.53397480  0.61251705  0.13052452  1
  Te  Te139  1  0.56981960  0.57217621  0.40029155  1
  Te  Te140  1  0.59598045  0.60045841  0.75481612  1
  Te  Te141  1  0.57736532  0.90421681  0.03343966  1
  Te  Te142  1  0.57505331  0.90154363  0.42165826  1
  Te  Te143  1  0.54003254  0.92366741  0.78034529  1
  Te  Te144  1  0.93736064  0.25958235  0.09661226  1
  Te  Te145  1  0.89995812  0.25450913  0.43057829  1
  Te  Te146  1  0.90108682  0.25554624  0.75421909  1
  Te  Te147  1  0.91291742  0.56748425  0.09676126  1
  Te  Te148  1  0.92832356  0.59826641  0.46949568  1
  Te  Te149  1  0.91585518  0.60576796  0.77219865  1
  Te  Te150  1  0.89817766  0.90853412  0.09815061  1
  Te  Te151  1  0.93481495  0.88168257  0.44641410  1
  Te  Te152  1  0.91462671  0.88793945  0.72028437  1
  Te  Te153  1  0.26772867  0.10616886  0.23728683  1
  Te  Te154  1  0.22401580  0.07091006  0.55197387  1
  Te  Te155  1  0.28150024  0.07291683  0.92607422  1
  Te  Te156  1  0.25522669  0.44233197  0.23708174  1
  Te  Te157  1  0.24180860  0.43112346  0.56632072  1
  Te  Te158  1  0.24077236  0.41344570  0.90115745  1
  Te  Te159  1  0.24498452  0.73995036  0.23396441  1
  Te  Te160  1  0.25969885  0.75093122  0.56450769  1
  Te  Te161  1  0.24792655  0.74298739  0.89766974  1
  Te  Te162  1  0.56851655  0.08445356  0.27326160  1
  Te  Te163  1  0.57817590  0.07161070  0.59265955  1
  Te  Te164  1  0.56730492  0.05217104  0.85305639  1
  Te  Te165  1  0.58375817  0.42506033  0.24225010  1
  Te  Te166  1  0.57578383  0.42790912  0.58093574  1
  Te  Te167  1  0.59375233  0.44329968  0.91162913  1
  Te  Te168  1  0.59003465  0.74402201  0.21626777  1
  Te  Te169  1  0.57716729  0.74204818  0.58918558  1
  Te  Te170  1  0.56799274  0.79337983  0.92298370  1
  Te  Te171  1  0.91502411  0.06087969  0.27775936  1
  Te  Te172  1  0.92597997  0.06440573  0.57274806  1
  Te  Te173  1  0.90964865  0.09053126  0.93994044  1
  Te  Te174  1  0.91880095  0.42341549  0.27756422  1
  Te  Te175  1  0.96696301  0.43254834  0.63234151  1
  Te  Te176  1  0.92294779  0.41053865  0.93033828  1
  Te  Te177  1  0.92571755  0.72960085  0.26524885  1
  Te  Te178  1  0.87333997  0.71609866  0.54754324  1
  Te  Te179  1  0.91734013  0.77470506  0.92807117  1
