# generated using pymatgen
data_In2Te3
_symmetry_space_group_name_H-M   'P 1'
_cell_length_a   18.79746535
_cell_length_b   18.80708435
_cell_length_c   18.80484258
_cell_angle_alpha   89.92720343
_cell_angle_beta   89.93623274
_cell_angle_gamma   90.02888891
_symmetry_Int_Tables_number   1
_chemical_formula_structural   In2Te3
_chemical_formula_sum   'In72 Te108'
_cell_volume   6647.98134762
_cell_formula_units_Z   36
loop_
 _symmetry_equiv_pos_site_id
 _symmetry_equiv_pos_as_xyz
  1  'x, y, z'
loop_
 _atom_site_type_symbol
 _atom_site_label
 _atom_site_symmetry_multiplicity
 _atom_site_fract_x
 _atom_site_fract_y
 _atom_site_fract_z
 _atom_site_occupancy
  In  In0  1  0.50062363  0.01077976  0.48050211  1
  In  In1  1  0.01932713  0.49110763  0.48004739  1
  In  In2  1  0.30816617  0.84166411  0.49092788  1
  In  In3  1  -0.00042843  0.70901597  0.64374627  1
  In  In4  1  0.30867234  0.67504258  0.34063569  1
  In  In5  1  0.88676108  -0.00159298  0.49052465  1
  In  In6  1  0.17150645  0.01107465  0.18885362  1
  In  In7  1  0.67371138  -0.01669859  0.29952349  1
  In  In8  1  0.33243439  0.31167601  0.33568238  1
  In  In9  1  0.68526199  0.13502294  0.81511999  1
  In  In10  1  0.15620778  0.16907620  0.64436482  1
  In  In11  1  0.48935273  0.71067655  0.82021211  1
  In  In12  1  0.66494148  -0.00342467  0.00638588  1
  In  In13  1  0.13279251  0.67800276  0.81872096  1
  In  In14  1  0.15419549  0.14198937  -0.00347134  1
  In  In15  1  0.67637409  0.18985100  0.48292033  1
  In  In16  1  0.66672677  0.18047035  0.18640613  1
  In  In17  1  0.29433593  0.16939766  0.81972120  1
  In  In18  1  0.48034272  0.49866519  0.64017359  1
  In  In19  1  0.86856909  0.16153554  0.36193900  1
  In  In20  1  0.46228145  -0.03705611  0.85704079  1
  In  In21  1  0.50515623  0.51450880  0.01319831  1
  In  In22  1  0.67835598  0.50399637  0.81628319  1
  In  In23  1  0.69062364  0.70505107  0.02465806  1
  In  In24  1  0.01462128  0.31398028  0.00138284  1
  In  In25  1  0.52219250  0.66054289  0.50307854  1
  In  In26  1  -0.00085595  0.49431325  0.83592876  1
  In  In27  1  0.70163199  0.52769338  0.20968540  1
  In  In28  1  0.15846609  0.84294243  0.33287391  1
  In  In29  1  0.01997906  0.16189122  0.17437615  1
  In  In30  1  0.31501624  0.31401010  0.00372899  1
  In  In31  1  0.18274497  0.65609184  0.51246940  1
  In  In32  1  0.69792125  -0.02866567  0.65141938  1
  In  In33  1  0.14956689  0.32198751  0.19058212  1
  In  In34  1  0.32131057  0.66818521  0.01180880  1
  In  In35  1  0.49390442  0.82192912  0.66837502  1
  In  In36  1  0.00920528  0.69080096  0.31251779  1
  In  In37  1  0.16230577  -0.00282274  0.82754743  1
  In  In38  1  0.69971105  0.36522135  0.02179326  1
  In  In39  1  0.66892318  0.65609969  0.65809511  1
  In  In40  1  0.48879184  0.33373515  0.82540433  1
  In  In41  1  0.48067204  0.30605253  0.19710463  1
  In  In42  1  0.50591192  0.34035496  0.50601055  1
  In  In43  1  0.84985709  0.54352477  0.03334223  1
  In  In44  1  0.50159535  0.83875216  0.31871877  1
  In  In45  1  0.49916566  0.16777374  0.65028959  1
  In  In46  1  0.84442110  0.16015810  -0.01340133  1
  In  In47  1  0.47851316  -0.01390415  0.17731813  1
  In  In48  1  0.84276244  -0.02857530  0.17232127  1
  In  In49  1  0.65936679  0.83087653  0.83753936  1
  In  In50  1  0.83769590  0.50074343  0.33896726  1
  In  In51  1  0.83140925  0.51617281  0.65513931  1
  In  In52  1  0.49016936  0.68638610  0.15741383  1
  In  In53  1  0.16359456  0.84353938  0.01531266  1
  In  In54  1  0.85557214  0.69806147  0.85917516  1
  In  In55  1  0.67180069  0.32829246  0.34572505  1
  In  In56  1  0.30820373  0.50201151  0.84031828  1
  In  In57  1  0.00859668  0.68306880  0.03342013  1
  In  In58  1  0.15435636  0.35765421  0.48801373  1
  In  In59  1  0.17498856  0.48415563  0.66526528  1
  In  In60  1  0.70281425  0.84381123  0.17814707  1
  In  In61  1  0.31821640  0.50766359  0.15034932  1
  In  In62  1  0.18469771  0.49450605  0.02483037  1
  In  In63  1  0.49299421  0.14420377  0.03101563  1
  In  In64  1  -0.00745899  0.32204916  0.65570152  1
  In  In65  1  0.51231959  0.49413495  0.33512205  1
  In  In66  1  0.84973899  0.85278113  0.64762721  1
  In  In67  1  0.68324029  0.30890996  0.62124282  1
  In  In68  1  0.31825050  0.01482836  0.67246007  1
  In  In69  1  0.32723963  0.14945854  0.49905926  1
  In  In70  1  0.85699024  0.31991540  0.83230016  1
  In  In71  1  0.84100564  -0.00342421  0.82315868  1
  Te  Te72  1  0.06214711  0.05417908  0.07797217  1
  Te  Te73  1  0.02412006  0.04872677  0.43811656  1
  Te  Te74  1  0.07554714  0.07661064  0.73223464  1
  Te  Te75  1  0.07382757  0.41707492  0.09659156  1
  Te  Te76  1  0.07086632  0.40302583  0.37097986  1
  Te  Te77  1  0.08372583  0.39913610  0.75369155  1
  Te  Te78  1  0.07824856  0.78128990  0.12281995  1
  Te  Te79  1  0.08897628  0.74679021  0.43212934  1
  Te  Te80  1  0.06556447  0.79147383  0.74755906  1
  Te  Te81  1  0.38749325  0.05307146  0.07783653  1
  Te  Te82  1  0.39381448  0.06573707  0.39587587  1
  Te  Te83  1  0.42308314  0.08996191  0.75730376  1
  Te  Te84  1  0.41396198  0.40274927  0.07975791  1
  Te  Te85  1  0.40953510  0.42153693  0.41772966  1
  Te  Te86  1  0.39574502  0.42040732  0.74285426  1
  Te  Te87  1  0.40252919  0.77858507  0.07776862  1
  Te  Te88  1  0.42018270  0.74909662  0.42069450  1
  Te  Te89  1  0.37712107  0.77244762  0.74630532  1
  Te  Te90  1  0.75062779  0.08419821  0.09749930  1
  Te  Te91  1  0.74354068  0.08053246  0.39963518  1
  Te  Te92  1  0.78293017  0.08470020  0.71016534  1
  Te  Te93  1  0.79582499  0.42473903  0.13064401  1
  Te  Te94  1  0.74805222  0.42223708  0.42894794  1
  Te  Te95  1  0.76155228  0.39967650  0.73939436  1
  Te  Te96  1  0.81121941  0.76348477  0.09577463  1
  Te  Te97  1  0.70522838  0.70240429  0.37338998  1
  Te  Te98  1  0.75425084  0.75148545  0.74889179  1
  Te  Te99  1  0.06421859  0.24747007  0.28841602  1
  Te  Te100  1  0.05699193  0.24277264  0.54024099  1
  Te  Te101  1  0.08628464  0.23400323  0.90216508  1
  Te  Te102  1  0.07780178  0.58731463  0.23230584  1
  Te  Te103  1  0.06605638  0.57792511  0.60392560  1
  Te  Te104  1  0.08367241  0.57703826  0.93310102  1
  Te  Te105  1  0.06682379  0.91486240  0.23817576  1
  Te  Te106  1  0.01986729  0.92220903  0.55402825  1
  Te  Te107  1  0.07523732  0.92140146  0.92284638  1
  Te  Te108  1  0.37795937  0.20324557  0.23738603  1
  Te  Te109  1  0.40027367  0.25868669  0.58292828  1
  Te  Te110  1  0.41538295  0.23591259  0.91808739  1
  Te  Te111  1  0.42093430  0.58061054  0.24405864  1
  Te  Te112  1  0.40558243  0.60859350  0.57843021  1
  Te  Te113  1  0.41374472  0.58790452  0.91302791  1
  Te  Te114  1  0.38308109  0.90181732  0.25680513  1
  Te  Te115  1  0.41782079  0.92909500  0.58157929  1
  Te  Te116  1  0.39892556  0.87543886  0.95240818  1
  Te  Te117  1  0.77470012  0.24729717  0.26757637  1
  Te  Te118  1  0.79784627  0.23493375  0.55958679  1
  Te  Te119  1  0.73931047  0.24532214  0.91292491  1
  Te  Te120  1  0.78895306  0.64237916  0.26165046  1
  Te  Te121  1  0.76576776  0.60624205  0.55648141  1
  Te  Te122  1  0.74679366  0.59647565  0.91905492  1
  Te  Te123  1  0.79566377  0.88347460  0.29986589  1
  Te  Te124  1  0.76378164  0.90641076  0.53292160  1
  Te  Te125  1  0.75771211  0.91004160  0.92261256  1
  Te  Te126  1  0.23046920  0.23016557  0.09655858  1
  Te  Te127  1  0.23055596  0.23747239  0.42004534  1
  Te  Te128  1  0.24619371  0.26154476  0.71754737  1
  Te  Te129  1  0.21774322  0.61681741  0.11458411  1
  Te  Te130  1  0.22878650  0.56901112  0.40301433  1
  Te  Te131  1  0.24115978  0.59820291  0.74343032  1
  Te  Te132  1  0.25566840  0.93822726  0.08736620  1
  Te  Te133  1  0.23574343  0.94304427  0.41226510  1
  Te  Te134  1  0.25598164  0.90745373  0.75260116  1
  Te  Te135  1  0.58691606  0.25502934  0.07812651  1
  Te  Te136  1  0.55546495  0.24097003  0.40290384  1
  Te  Te137  1  0.59109137  0.25435246  0.74123966  1
  Te  Te138  1  0.61022677  0.58800051  0.09481706  1
  Te  Te139  1  0.61201831  0.58080738  0.40906962  1
  Te  Te140  1  0.56323524  0.58670711  0.75275201  1
  Te  Te141  1  0.58549819  0.90706345  0.09820057  1
  Te  Te142  1  0.59475938  0.91163180  0.41364300  1
  Te  Te143  1  0.58291238  0.92996789  0.74972562  1
  Te  Te144  1  0.91550923  0.24328128  0.09235774  1
  Te  Te145  1  0.92357521  0.26209184  0.45397024  1
  Te  Te146  1  0.93618241  0.22503303  0.75439455  1
  Te  Te147  1  0.95817228  0.58118023  0.13878076  1
  Te  Te148  1  0.93317059  0.59543256  0.41106841  1
  Te  Te149  1  0.91419580  0.59625647  0.75941054  1
  Te  Te150  1  0.89823615  0.88810802  0.06450679  1
  Te  Te151  1  0.97367083  0.89734007  0.41170462  1
  Te  Te152  1  0.93917764  0.90824768  0.75137046  1
  Te  Te153  1  0.24839599  0.11554008  0.25892920  1
  Te  Te154  1  0.22018624  0.05559938  0.56369625  1
  Te  Te155  1  0.26396213  0.06437833  0.92224498  1
  Te  Te156  1  0.25326555  0.41556677  0.25313938  1
  Te  Te157  1  0.26165339  0.43040968  0.55964788  1
  Te  Te158  1  0.22540721  0.39609187  0.91243294  1
  Te  Te159  1  0.25900686  0.77356116  0.24445464  1
  Te  Te160  1  0.22215672  0.77536010  0.59041143  1
  Te  Te161  1  0.23341148  0.74415059  0.91381488  1
  Te  Te162  1  0.56901203  0.08650273  0.25392119  1
  Te  Te163  1  0.60344653  0.08027109  0.58213609  1
  Te  Te164  1  0.57586844  0.07864315  0.91342642  1
  Te  Te165  1  0.59021303  0.41241363  0.23095608  1
  Te  Te166  1  0.60340999  0.43469534  0.57634081  1
  Te  Te167  1  0.58294090  0.42022434  0.91179031  1
  Te  Te168  1  0.60074490  0.74366155  0.24805495  1
  Te  Te169  1  0.60330211  0.76781344  0.57624896  1
  Te  Te170  1  0.57188023  0.75837120  0.93878357  1
  Te  Te171  1  0.92481310  0.06968413  0.25415396  1
  Te  Te172  1  0.97357738  0.06351837  0.60033512  1
  Te  Te173  1  0.93244624  0.06716868  0.91661215  1
  Te  Te174  1  0.90526256  0.41674048  0.23946692  1
  Te  Te175  1  0.91275255  0.42075343  0.56950088  1
  Te  Te176  1  0.90217370  0.42639023  0.93354917  1
  Te  Te177  1  0.89815051  0.77055578  0.25015050  1
  Te  Te178  1  0.88173984  0.73590309  0.55839692  1
  Te  Te179  1  0.95317224  0.78331544  0.93260358  1
