# generated using pymatgen
data_In2Te3
_symmetry_space_group_name_H-M   'P 1'
_cell_length_a   18.99099583
_cell_length_b   18.99528737
_cell_length_c   18.99665035
_cell_angle_alpha   90.03198554
_cell_angle_beta   89.96292384
_cell_angle_gamma   90.38179492
_symmetry_Int_Tables_number   1
_chemical_formula_structural   In2Te3
_chemical_formula_sum   'In72 Te108'
_cell_volume   6852.68605991
_cell_formula_units_Z   36
loop_
 _symmetry_equiv_pos_site_id
 _symmetry_equiv_pos_as_xyz
  1  'x, y, z'
loop_
 _atom_site_type_symbol
 _atom_site_label
 _atom_site_symmetry_multiplicity
 _atom_site_fract_x
 _atom_site_fract_y
 _atom_site_fract_z
 _atom_site_occupancy
  In  In0  1  0.14389745  0.02709260  0.19433370  1
  In  In1  1  -0.01229072  0.00550802  0.35517242  1
  In  In2  1  0.80665152  -0.00359070  0.50863985  1
  In  In3  1  0.80982739  0.52175753  -0.01913357  1
  In  In4  1  0.64631422  0.15889067  0.83117984  1
  In  In5  1  0.84703062  -0.00008014  0.82058008  1
  In  In6  1  -0.05383676  0.66740948  -0.06728136  1
  In  In7  1  0.30334300  0.00857262  0.65579570  1
  In  In8  1  0.64238003  0.15849190  0.49454107  1
  In  In9  1  0.66403997  0.32535297  0.33157062  1
  In  In10  1  0.81490141  0.66557662  0.15616296  1
  In  In11  1  0.66550563  0.81248297  0.17860721  1
  In  In12  1  0.14287137  0.69727410  0.81489056  1
  In  In13  1  0.86328712  0.00198445  0.14239270  1
  In  In14  1  0.84672245  0.16438368  -0.01016401  1
  In  In15  1  0.31849802  0.01710486  0.02184352  1
  In  In16  1  0.66597011  0.03102460  0.64837415  1
  In  In17  1  0.16142957  0.66767853  0.51197308  1
  In  In18  1  0.00560013  0.63200430  0.34335650  1
  In  In19  1  0.63757380  0.40089420  0.66670404  1
  In  In20  1  0.45812501  0.00251090  0.83955201  1
  In  In21  1  0.31333723  0.69180492  0.67400925  1
  In  In22  1  0.00972287  0.17799663  0.15767595  1
  In  In23  1  0.86167857  0.19713740  0.65115039  1
  In  In24  1  0.32988920  0.00521633  0.33312412  1
  In  In25  1  -0.01534144  0.34124792  0.33444064  1
  In  In26  1  0.00000584  0.48863290  0.80748280  1
  In  In27  1  0.16970537  0.32489629  0.51174173  1
  In  In28  1  0.48775778  0.17808425  0.32726177  1
  In  In29  1  0.49744727  0.67048971  0.51426312  1
  In  In30  1  0.03730063  0.31941897  0.66858786  1
  In  In31  1  0.53323333  0.49758207  -0.00193847  1
  In  In32  1  0.18904198  0.83215987  0.00300111  1
  In  In33  1  0.02473950  0.16940666  0.49788277  1
  In  In34  1  0.84229247  0.34124684  0.48863140  1
  In  In35  1  0.32594540  0.84260549  0.84673999  1
  In  In36  1  0.03816173  0.31416065  -0.02838663  1
  In  In37  1  0.49426014  0.00984860  0.15080570  1
  In  In38  1  0.82275838  0.77105532  0.65027105  1
  In  In39  1  0.82248811  0.52134646  0.65558510  1
  In  In40  1  0.48014639  0.18540588  0.67739519  1
  In  In41  1  0.00692079  0.49486973  0.14937549  1
  In  In42  1  0.25817280  0.44411854  0.34112417  1
  In  In43  1  0.48539093  0.85597721  0.66579058  1
  In  In44  1  0.02228148  -0.03224484  0.64940010  1
  In  In45  1  0.81861796  0.82614068  0.33881814  1
  In  In46  1  0.34413136  0.82393436  0.17316978  1
  In  In47  1  0.65128466  0.19560791  0.16826200  1
  In  In48  1  0.58288216  0.63301396  0.84422349  1
  In  In49  1  0.49538131  0.33334975  0.14836408  1
  In  In50  1  -0.01045870  0.82711810  0.15905101  1
  In  In51  1  0.16986853  0.00644267  0.82822467  1
  In  In52  1  0.16794122  0.50643605  0.00540324  1
  In  In53  1  0.32561699  0.32299613  0.00526456  1
  In  In54  1  0.17293545  0.67321725  0.16992828  1
  In  In55  1  0.17301662  0.82642727  0.35477431  1
  In  In56  1  0.49471585  0.34760993  0.85508471  1
  In  In57  1  0.47249272  0.51128252  0.33872621  1
  In  In58  1  0.83649569  0.51178253  0.32007410  1
  In  In59  1  0.33678975  0.50997979  0.51693829  1
  In  In60  1  0.66963966  0.50714591  0.16389795  1
  In  In61  1  0.65036724  -0.03319048  0.34305433  1
  In  In62  1  0.64427625  0.00109638  -0.00091976  1
  In  In63  1  0.66789505  0.83775040  0.80558668  1
  In  In64  1  0.49165711  0.67223925  0.18850313  1
  In  In65  1  0.65440201  0.82078497  0.50481813  1
  In  In66  1  0.00748299  0.51078323  0.51662681  1
  In  In67  1  0.17306787  0.17171837  0.35661167  1
  In  In68  1  0.02121997  -0.02412948  0.01136541  1
  In  In69  1  0.85606625  0.32366141  0.83642475  1
  In  In70  1  0.34837679  0.50574219  0.82274321  1
  In  In71  1  0.31095897  0.32268436  0.68103465  1
  Te  Te72  1  0.09758270  0.09452819  0.06788753  1
  Te  Te73  1  0.10678203  0.05379274  0.43533794  1
  Te  Te74  1  0.06425197  0.06827779  0.74759673  1
  Te  Te75  1  0.10284887  0.39425319  0.08824000  1
  Te  Te76  1  0.08076470  0.41536688  0.42411314  1
  Te  Te77  1  0.11175104  0.39999581  0.76870071  1
  Te  Te78  1  0.08263489  0.74635597  0.07250799  1
  Te  Te79  1  0.06481014  0.74621649  0.42478042  1
  Te  Te80  1  0.08116946  0.75217700  0.68682188  1
  Te  Te81  1  0.40669269  0.10958393  0.09300847  1
  Te  Te82  1  0.41784145  0.08790647  0.41764103  1
  Te  Te83  1  0.38096933  0.09770339  0.75247113  1
  Te  Te84  1  0.41682151  0.43310951  0.06872534  1
  Te  Te85  1  0.38740331  0.41003182  0.41363167  1
  Te  Te86  1  0.42663343  0.40988024  0.73688410  1
  Te  Te87  1  0.41603325  0.73887472  0.08074464  1
  Te  Te88  1  0.47959134  0.77097001  0.40718768  1
  Te  Te89  1  0.41883645  0.75944818  0.76242856  1
  Te  Te90  1  0.75057548  0.08281528  0.07800837  1
  Te  Te91  1  0.73601124  0.07888849  0.40528821  1
  Te  Te92  1  0.76839523  0.10517597  0.74077451  1
  Te  Te93  1  0.75341023  0.42723122  0.07568284  1
  Te  Te94  1  0.74804286  0.42738464  0.41059585  1
  Te  Te95  1  0.77186109  0.40597805  0.74386232  1
  Te  Te96  1  0.74882217  0.76163799  0.06963084  1
  Te  Te97  1  0.75229806  0.73906508  0.43550436  1
  Te  Te98  1  0.76854340  0.72641992  0.78327409  1
  Te  Te99  1  0.08608647  0.25521701  0.26317346  1
  Te  Te100  1  0.12544418  0.20318204  0.60971746  1
  Te  Te101  1  0.13597428  0.22757213  0.90587302  1
  Te  Te102  1  0.09907003  0.56161957  0.24911046  1
  Te  Te103  1  0.09395254  0.58085958  0.61183210  1
  Te  Te104  1  0.07486383  0.58932283  0.90929441  1
  Te  Te105  1  0.06776427  0.90739112  0.26212067  1
  Te  Te106  1  0.12589713  0.87523669  0.60528841  1
  Te  Te107  1  0.09275007  0.89596520  0.90617544  1
  Te  Te108  1  0.40294384  0.26806261  0.24534180  1
  Te  Te109  1  0.40085709  0.26237136  0.58122973  1
  Te  Te110  1  0.40206160  0.24742898  0.90517391  1
  Te  Te111  1  0.38993017  0.57526698  0.23725524  1
  Te  Te112  1  0.41520230  0.59099646  0.61492732  1
  Te  Te113  1  0.44733671  0.58318232  0.90372385  1
  Te  Te114  1  0.42821352  0.92052418  0.25327437  1
  Te  Te115  1  0.38312493  0.91099631  0.57747467  1
  Te  Te116  1  0.40668523  0.91502983  0.95207509  1
  Te  Te117  1  0.75889180  0.25560653  0.24568684  1
  Te  Te118  1  0.74911841  0.24774574  0.56399950  1
  Te  Te119  1  0.74837532  0.24383120  0.90874572  1
  Te  Te120  1  0.73080173  0.60396121  0.26522276  1
  Te  Te121  1  0.69138556  0.57276958  0.60657889  1
  Te  Te122  1  0.72499825  0.60929418  0.90196498  1
  Te  Te123  1  0.76446640  0.92666587  0.23894024  1
  Te  Te124  1  0.74803566  0.90661825  0.61576746  1
  Te  Te125  1  0.73927655  0.93267401  0.90327906  1
  Te  Te126  1  0.22589179  0.27363915  0.10132892  1
  Te  Te127  1  0.26937748  0.24614561  0.43898174  1
  Te  Te128  1  0.21074599  0.26415641  0.77433315  1
  Te  Te129  1  0.25834189  0.58321239  0.09133515  1
  Te  Te130  1  0.24106047  0.57159809  0.41762018  1
  Te  Te131  1  0.23833728  0.59198273  0.75985328  1
  Te  Te132  1  0.23208277  0.92070207  0.11844405  1
  Te  Te133  1  0.27270987  0.90543088  0.42778430  1
  Te  Te134  1  0.23512820  0.89879081  0.74037705  1
  Te  Te135  1  0.58901115  0.26544049  0.05838738  1
  Te  Te136  1  0.56309074  0.26798457  0.42819001  1
  Te  Te137  1  0.60408283  0.25843570  0.72562602  1
  Te  Te138  1  0.58876220  0.60688793  0.08691082  1
  Te  Te139  1  0.57433913  0.57812398  0.42335126  1
  Te  Te140  1  0.59744714  0.53512497  0.72941719  1
  Te  Te141  1  0.57721234  0.89974473  0.08811234  1
  Te  Te142  1  0.55788471  0.91590445  0.44589033  1
  Te  Te143  1  0.57284976  0.95744021  0.75130666  1
  Te  Te144  1  0.92504471  0.26509664  0.07010339  1
  Te  Te145  1  0.91477228  0.23184950  0.41282131  1
  Te  Te146  1  0.95412825  0.23433070  0.76589089  1
  Te  Te147  1  0.92497420  0.59807967  0.07537908  1
  Te  Te148  1  0.89895821  0.58367599  0.44046844  1
  Te  Te149  1  0.91037226  0.59076375  0.75217747  1
  Te  Te150  1  0.90188299  0.88712243  0.05151477  1
  Te  Te151  1  0.90552907  0.90717171  0.43647036  1
  Te  Te152  1  0.92246010  0.89681066  0.74189791  1
  Te  Te153  1  0.25782797  0.10769223  0.24620553  1
  Te  Te154  1  0.22174629  0.09044214  0.56683651  1
  Te  Te155  1  0.24493985  0.09646497  0.92057268  1
  Te  Te156  1  0.27075572  0.36367494  0.21973972  1
  Te  Te157  1  0.23750876  0.42843870  0.59805051  1
  Te  Te158  1  0.25732859  0.42633489  0.91397949  1
  Te  Te159  1  0.26425588  0.73956759  0.27267657  1
  Te  Te160  1  0.28178037  0.74890798  0.54244426  1
  Te  Te161  1  0.25536655  0.72766333  0.91728271  1
  Te  Te162  1  0.59116974  0.08028612  0.25146927  1
  Te  Te163  1  0.54284952  0.08323247  0.58089182  1
  Te  Te164  1  0.54947041  0.09298722  0.92603536  1
  Te  Te165  1  0.57581775  0.42318927  0.25212971  1
  Te  Te166  1  0.59379255  0.46749799  0.54314066  1
  Te  Te167  1  0.61315353  0.40583111  0.91705849  1
  Te  Te168  1  0.57404478  0.75805650  0.28341759  1
  Te  Te169  1  0.58165568  0.74992201  0.61683064  1
  Te  Te170  1  0.57631402  0.76927847  0.89574346  1
  Te  Te171  1  0.92169098  0.09105565  0.24995817  1
  Te  Te172  1  0.92003182  0.07981476  0.57412839  1
  Te  Te173  1  0.93866558  0.06928116  0.91989264  1
  Te  Te174  1  0.90546548  0.41406506  0.22858288  1
  Te  Te175  1  0.92850325  0.40346848  0.59704816  1
  Te  Te176  1  0.92793120  0.42178854  0.92823779  1
  Te  Te177  1  0.92074173  0.73292197  0.25640369  1
  Te  Te178  1  0.95145839  0.72176649  0.60804136  1
  Te  Te179  1  0.91206979  0.78184958  0.85075779  1
