# generated using pymatgen
data_In2Te3
_symmetry_space_group_name_H-M   'P 1'
_cell_length_a   19.08574953
_cell_length_b   18.98929151
_cell_length_c   19.05553201
_cell_angle_alpha   89.78782173
_cell_angle_beta   90.24773099
_cell_angle_gamma   90.18285227
_symmetry_Int_Tables_number   1
_chemical_formula_structural   In2Te3
_chemical_formula_sum   'In72 Te108'
_cell_volume   6906.05182151
_cell_formula_units_Z   36
loop_
 _symmetry_equiv_pos_site_id
 _symmetry_equiv_pos_as_xyz
  1  'x, y, z'
loop_
 _atom_site_type_symbol
 _atom_site_label
 _atom_site_symmetry_multiplicity
 _atom_site_fract_x
 _atom_site_fract_y
 _atom_site_fract_z
 _atom_site_occupancy
  In  In0  1  0.02913412  0.51736683  0.50724865  1
  In  In1  1  0.80217159  0.67513212  0.53995905  1
  In  In2  1  -0.00563079  0.30729348  0.65083952  1
  In  In3  1  0.83184262  -0.00940563  0.16845535  1
  In  In4  1  0.31887199  0.40380154  0.32866870  1
  In  In5  1  0.82840324  0.83114990  -0.03149062  1
  In  In6  1  0.51757819  0.48697537  -0.00155221  1
  In  In7  1  0.50243041  0.82763228  0.65830687  1
  In  In8  1  0.69229930  0.34036596  0.35749524  1
  In  In9  1  0.82460434  0.36016376  0.48733161  1
  In  In10  1  -0.00131089  0.34444773  0.00893473  1
  In  In11  1  0.47974923  0.68811181  0.17025056  1
  In  In12  1  0.33046334  0.51834395  0.50317544  1
  In  In13  1  0.02849218  0.83480012  0.17946879  1
  In  In14  1  0.47128829  0.51735175  0.65780703  1
  In  In15  1  0.51849332  0.16467114  -0.03736950  1
  In  In16  1  0.83210940  0.14386837  0.64550912  1
  In  In17  1  0.68861539  0.64786100  -0.02107220  1
  In  In18  1  0.84517089  0.00826597  0.48469132  1
  In  In19  1  0.34926789  0.15119979  0.17561861  1
  In  In20  1  0.46974033  0.82713540  0.33323843  1
  In  In21  1  0.12107195  -0.01956834  0.42159960  1
  In  In22  1  0.67628916  0.49181053  0.17134642  1
  In  In23  1  0.65367198  0.16706360  0.52019643  1
  In  In24  1  0.16867823  0.15284877  0.69624461  1
  In  In25  1  0.64970516  -0.00956898  0.68768070  1
  In  In26  1  0.32741779  -0.00308789  0.35010047  1
  In  In27  1  0.01586491  -0.02778047  -0.01404535  1
  In  In28  1  0.15435383  0.67906733  0.81529011  1
  In  In29  1  0.32678707  0.66552899  0.64787269  1
  In  In30  1  0.01275522  0.65946563  -0.01290739  1
  In  In31  1  -0.00409395  0.33649527  0.34768386  1
  In  In32  1  0.34451285  0.50416854  0.85571380  1
  In  In33  1  0.80916422  0.32801571  0.79995514  1
  In  In34  1  -0.02529873  0.84129627  0.49316902  1
  In  In35  1  -0.00353545  0.66381237  0.33489641  1
  In  In36  1  0.13573868  0.50926102  0.67120280  1
  In  In37  1  0.50470692  0.16659464  0.68832403  1
  In  In38  1  0.85860322  0.67353331  0.13757953  1
  In  In39  1  0.36609729  -0.01138515  0.66649860  1
  In  In40  1  0.34537173  0.30749081  0.00986941  1
  In  In41  1  0.84709185  0.32345071  0.15794197  1
  In  In42  1  0.80665803  0.66084202  0.79744416  1
  In  In43  1  0.19384254  0.35599340  0.84446373  1
  In  In44  1  0.17468804  -0.00285421  0.18966098  1
  In  In45  1  0.29777798  0.59028250  0.19515905  1
  In  In46  1  -0.02483097  0.50536937  0.82887617  1
  In  In47  1  0.81156155  0.52322700  0.35223140  1
  In  In48  1  0.17127492  0.14126823  0.01858353  1
  In  In49  1  0.33265424  0.34455634  0.65923112  1
  In  In50  1  0.17262945  0.66081544  0.50677901  1
  In  In51  1  0.66507694  0.33637305  -0.01869916  1
  In  In52  1  0.30461077  0.17197036  0.50094580  1
  In  In53  1  0.63678166  0.36244378  0.66010484  1
  In  In54  1  0.51672627  0.64468846  0.83368096  1
  In  In55  1  0.17883004  -0.02313198  0.84950227  1
  In  In56  1  0.50987411  -0.02131457  0.16195001  1
  In  In57  1  0.53032937  0.32038774  0.17554458  1
  In  In58  1  0.84435148  -0.03506222  0.79428217  1
  In  In59  1  -0.00462730  0.50825220  0.17161967  1
  In  In60  1  0.29660764  0.78840862  0.15077962  1
  In  In61  1  0.84497399  0.16572071  0.01152118  1
  In  In62  1  0.63385551  0.68946959  0.35728011  1
  In  In63  1  0.01170352  0.15418532  0.86137986  1
  In  In64  1  0.14426417  0.33546646  0.47813857  1
  In  In65  1  0.86249109  0.16759347  0.32212240  1
  In  In66  1  0.68143529  0.84452481  0.84717785  1
  In  In67  1  0.51114136  0.15812220  0.34852802  1
  In  In68  1  0.67787887  -0.00764050  0.32980737  1
  In  In69  1  0.32810139  0.82461011  0.84535836  1
  In  In70  1  0.32795303  -0.01869719  0.00566799  1
  In  In71  1  0.66790351  0.84922341  0.49120815  1
  Te  Te72  1  0.07053889  0.06153737  0.09560701  1
  Te  Te73  1  0.10120302  0.12076778  0.38341610  1
  Te  Te74  1  0.07627171  0.05610949  0.76725865  1
  Te  Te75  1  0.08482213  0.41634921  0.10099917  1
  Te  Te76  1  0.09096954  0.44741357  0.38970390  1
  Te  Te77  1  0.07697748  0.39194056  0.75263152  1
  Te  Te78  1  0.08934160  0.72348273  0.09956124  1
  Te  Te79  1  0.07808036  0.74920437  0.42670794  1
  Te  Te80  1  0.06109638  0.78536382  0.77342394  1
  Te  Te81  1  0.42774992  0.08422980  0.06885825  1
  Te  Te82  1  0.41354099  0.08601509  0.43671342  1
  Te  Te83  1  0.42936310  0.07090770  0.76859746  1
  Te  Te84  1  0.43469126  0.40124918  0.09159639  1
  Te  Te85  1  0.41810463  0.42313361  0.43320162  1
  Te  Te86  1  0.42108305  0.41703067  0.76027924  1
  Te  Te87  1  0.42119085  0.78081857  0.07451902  1
  Te  Te88  1  0.39509391  0.71447503  0.39288927  1
  Te  Te89  1  0.41286658  0.73006723  0.75494601  1
  Te  Te90  1  0.75828210  0.10201250  0.10858882  1
  Te  Te91  1  0.74287118  0.10758408  0.41262361  1
  Te  Te92  1  0.75146898  0.07962181  0.75525108  1
  Te  Te93  1  0.75927977  0.41331258  0.07417738  1
  Te  Te94  1  0.71560632  0.46980066  0.46020357  1
  Te  Te95  1  0.76228996  0.43410247  0.70509813  1
  Te  Te96  1  0.74794846  0.75294899  0.07137253  1
  Te  Te97  1  0.75708802  0.75346598  0.41504352  1
  Te  Te98  1  0.72433867  0.76442646  0.73252041  1
  Te  Te99  1  0.07646640  0.23423480  0.28351306  1
  Te  Te100  1  0.10118148  0.22965826  0.58145721  1
  Te  Te101  1  0.10647455  0.25244141  0.92624374  1
  Te  Te102  1  0.08436985  0.61237177  0.22891518  1
  Te  Te103  1  0.05910147  0.62283239  0.61294496  1
  Te  Te104  1  0.09237437  0.56441942  0.90170279  1
  Te  Te105  1  0.11599932  0.89611818  0.28309501  1
  Te  Te106  1  0.06551920  0.94171346  0.55280803  1
  Te  Te107  1  0.09224003  0.87128144  0.91099462  1
  Te  Te108  1  0.42657318  0.24963210  0.26097167  1
  Te  Te109  1  0.40977573  0.23877995  0.58767673  1
  Te  Te110  1  0.43859656  0.27217476  0.90543041  1
  Te  Te111  1  0.43372698  0.57239559  0.24451882  1
  Te  Te112  1  0.42080958  0.63647151  0.53521662  1
  Te  Te113  1  0.42385757  0.59405272  0.94546203  1
  Te  Te114  1  0.39279414  0.91909795  0.23698262  1
  Te  Te115  1  0.40983160  0.89130092  0.56654707  1
  Te  Te116  1  0.42050074  0.91101910  0.91949222  1
  Te  Te117  1  0.75316787  0.25181709  0.25283733  1
  Te  Te118  1  0.75418438  0.25992585  0.58651233  1
  Te  Te119  1  0.75632467  0.23792941  0.91094389  1
  Te  Te120  1  0.75994063  0.60176727  0.23533636  1
  Te  Te121  1  0.74783895  0.55886909  0.61060948  1
  Te  Te122  1  0.74251166  0.55430551  0.88065378  1
  Te  Te123  1  0.73877261  0.90006972  0.23633957  1
  Te  Te124  1  0.74701306  0.94339640  0.57824567  1
  Te  Te125  1  0.73259901  0.94602500  0.94854166  1
  Te  Te126  1  0.24656648  0.23875650  0.10565462  1
  Te  Te127  1  0.26170197  0.28075114  0.40347649  1
  Te  Te128  1  0.26393602  0.25288265  0.76016078  1
  Te  Te129  1  0.24645566  0.66253639  0.07450577  1
  Te  Te130  1  0.23969457  0.58007218  0.40480861  1
  Te  Te131  1  0.25355213  0.56725501  0.74728992  1
  Te  Te132  1  0.22266816  0.90608113  0.08022376  1
  Te  Te133  1  0.24683411  0.90368948  0.42722004  1
  Te  Te134  1  0.25605148  0.90729530  0.74241358  1
  Te  Te135  1  0.59931510  0.23641796  0.07423784  1
  Te  Te136  1  0.58146592  0.26517189  0.43035001  1
  Te  Te137  1  0.60189137  0.25549851  0.75283631  1
  Te  Te138  1  0.59280640  0.58627947  0.08783299  1
  Te  Te139  1  0.60037799  0.56643832  0.42091440  1
  Te  Te140  1  0.58348107  0.58799974  0.71793529  1
  Te  Te141  1  0.58849862  0.94972240  0.04223540  1
  Te  Te142  1  0.56644183  0.92116453  0.40474834  1
  Te  Te143  1  0.56069329  0.90651740  0.77287930  1
  Te  Te144  1  0.95060592  0.23172894  0.09870649  1
  Te  Te145  1  0.91433541  0.24756986  0.43940865  1
  Te  Te146  1  0.92267746  0.22460691  0.75725456  1
  Te  Te147  1  0.91509374  0.56261235  0.05456051  1
  Te  Te148  1  0.91067347  0.59499339  0.44352928  1
  Te  Te149  1  0.92274893  0.59778701  0.72982710  1
  Te  Te150  1  0.92610559  0.88828270  0.07501157  1
  Te  Te151  1  0.91200997  0.92442832  0.38521039  1
  Te  Te152  1  0.93418953  0.86755237  0.73608126  1
  Te  Te153  1  0.24568897  0.10161116  0.27369853  1
  Te  Te154  1  0.25191786  0.07241344  0.60084430  1
  Te  Te155  1  0.26191939  0.08671599  0.91411149  1
  Te  Te156  1  0.24517366  0.45221639  0.21392995  1
  Te  Te157  1  0.22680811  0.42079025  0.58117050  1
  Te  Te158  1  0.26107206  0.42908867  0.95657078  1
  Te  Te159  1  0.28628013  0.72161867  0.28650697  1
  Te  Te160  1  0.22549637  0.75827543  0.60136949  1
  Te  Te161  1  0.24543748  0.72705283  0.92124795  1
  Te  Te162  1  0.58528774  0.08202210  0.24341954  1
  Te  Te163  1  0.56678294  0.06535926  0.58629672  1
  Te  Te164  1  0.60288383  0.05120829  0.92653797  1
  Te  Te165  1  0.59269523  0.41873298  0.27274066  1
  Te  Te166  1  0.53656939  0.42014955  0.56920242  1
  Te  Te167  1  0.61212444  0.44411016  0.89437310  1
  Te  Te168  1  0.58070297  0.77418374  0.24407015  1
  Te  Te169  1  0.60956390  0.75492910  0.58918822  1
  Te  Te170  1  0.58948777  0.74484306  0.92007786  1
  Te  Te171  1  0.92733016  0.04641786  0.26873175  1
  Te  Te172  1  0.93948928  0.07266355  0.57847657  1
  Te  Te173  1  0.90962219  0.05566874  0.91576110  1
  Te  Te174  1  0.89534093  0.42487807  0.26534500  1
  Te  Te175  1  0.93212415  0.42204415  0.57680826  1
  Te  Te176  1  0.90483067  0.39361917  0.90218238  1
  Te  Te177  1  0.91674948  0.75879932  0.24824400  1
  Te  Te178  1  0.88633393  0.78263901  0.59923609  1
  Te  Te179  1  0.90478692  0.72224561  0.90203911  1
