# generated using pymatgen
data_In2Te3
_symmetry_space_group_name_H-M   'P 1'
_cell_length_a   18.96723019
_cell_length_b   18.97589457
_cell_length_c   18.94739341
_cell_angle_alpha   89.79923240
_cell_angle_beta   89.85581950
_cell_angle_gamma   89.99602227
_symmetry_Int_Tables_number   1
_chemical_formula_structural   In2Te3
_chemical_formula_sum   'In72 Te108'
_cell_volume   6819.48540746
_cell_formula_units_Z   36
loop_
 _symmetry_equiv_pos_site_id
 _symmetry_equiv_pos_as_xyz
  1  'x, y, z'
loop_
 _atom_site_type_symbol
 _atom_site_label
 _atom_site_symmetry_multiplicity
 _atom_site_fract_x
 _atom_site_fract_y
 _atom_site_fract_z
 _atom_site_occupancy
  In  In0  1  0.31485859  0.00381804  0.32013209  1
  In  In1  1  0.81909701  0.35179417  0.86447488  1
  In  In2  1  0.68231940  0.33993873  0.34517881  1
  In  In3  1  0.68058211  0.52587620  0.15484555  1
  In  In4  1  0.69295813  -0.00266471  0.34081016  1
  In  In5  1  0.35237332  0.64829178  0.73210908  1
  In  In6  1  0.33210746  0.16250587  0.52047230  1
  In  In7  1  0.49130141  -0.00223913  0.82188922  1
  In  In8  1  0.36626717  0.52721547  0.54655610  1
  In  In9  1  -0.00415859  0.17460839  0.17540181  1
  In  In10  1  0.66524441  0.47951328  0.50739711  1
  In  In11  1  0.49878697  0.66559815  0.13958979  1
  In  In12  1  0.02398167  0.67971993  0.31956799  1
  In  In13  1  0.65730726  -0.00010855  0.66410758  1
  In  In14  1  -0.01334669  -0.01218243  0.33656056  1
  In  In15  1  0.82969718  0.33621280  0.19421207  1
  In  In16  1  -0.00992628  0.82623202  0.83706278  1
  In  In17  1  0.01881739  0.18311294  0.78391414  1
  In  In18  1  0.34179277  0.81513180  0.15476545  1
  In  In19  1  0.82996067  0.64592868  0.49840697  1
  In  In20  1  0.84491632  0.16390994  0.33595289  1
  In  In21  1  0.18574296  -0.03241775  0.84067429  1
  In  In22  1  0.64481231  0.33051943  0.66912454  1
  In  In23  1  0.82447482  0.15282735  0.01080411  1
  In  In24  1  0.14611056  0.00746395  0.49893344  1
  In  In25  1  0.02643332  0.66303404  -0.00529505  1
  In  In26  1  0.64475185  0.80691588  0.51337383  1
  In  In27  1  0.17301008  0.82100190  0.34296375  1
  In  In28  1  0.37923957  0.78001766  0.54335748  1
  In  In29  1  0.47816370  0.36176551  0.14723751  1
  In  In30  1  -0.01059925  -0.00933636  -0.01364078  1
  In  In31  1  0.63232532  0.16928580  0.14025232  1
  In  In32  1  0.17351681  0.35063410  0.13525475  1
  In  In33  1  0.80961348  0.01034402  0.82120159  1
  In  In34  1  0.63825469  0.36052439  -0.02364560  1
  In  In35  1  0.17661785  0.51611298  0.32736646  1
  In  In36  1  0.21579052  0.35709940  0.50950209  1
  In  In37  1  -0.01057759  0.33477008  0.33548705  1
  In  In38  1  0.34577367  0.33613053  0.34114524  1
  In  In39  1  -0.01199533  0.82116665  0.14823613  1
  In  In40  1  0.67115135  0.82148517  0.16451840  1
  In  In41  1  0.16503228  0.36031721  0.82253283  1
  In  In42  1  0.20251586  0.84147492  0.66964214  1
  In  In43  1  0.49778127  0.16411940  0.66810715  1
  In  In44  1  0.01247842  0.50629224  0.51075288  1
  In  In45  1  0.67353951  0.65561443  0.32308695  1
  In  In46  1  0.36152197  0.34475379  0.72031233  1
  In  In47  1  0.34131446  0.66113247  0.34234727  1
  In  In48  1  0.81543161  0.81552546  0.68385338  1
  In  In49  1  0.35505370  0.35112214  -0.05797811  1
  In  In50  1  0.47189507  -0.01576236  0.15448096  1
  In  In51  1  0.82758113  0.49775219  0.66802673  1
  In  In52  1  0.18289357  -0.00721435  0.14881685  1
  In  In53  1  0.65933503  0.66928610  -0.01847935  1
  In  In54  1  0.65150221  0.14799805  0.81846067  1
  In  In55  1  0.00267781  0.32782627  0.65820354  1
  In  In56  1  0.52133819  0.16643543  0.33560414  1
  In  In57  1  0.30924128  0.53625572  0.13056662  1
  In  In58  1  0.65371182  -0.02672116  -0.00239962  1
  In  In59  1  0.15187778  0.13445870  0.33003822  1
  In  In60  1  0.17513117  0.18908130  0.00054588  1
  In  In61  1  0.81432956  0.67214487  0.83688667  1
  In  In62  1  0.67470735  0.18301667  0.48549494  1
  In  In63  1  0.02030777  0.65331119  0.66853881  1
  In  In64  1  0.65200314  0.84634296  0.82248614  1
  In  In65  1  0.48628248  -0.03300351  0.50056792  1
  In  In66  1  0.02404274  0.36522439  0.01574461  1
  In  In67  1  0.00741698  0.81830707  0.48494283  1
  In  In68  1  0.51290092  0.49441944  0.33666805  1
  In  In69  1  0.33792163  0.01109538  -0.00679420  1
  In  In70  1  0.84563226  0.51284115  0.01722157  1
  In  In71  1  0.14850252  0.15999608  0.67177393  1
  Te  Te72  1  0.07991064  0.08737959  0.07818984  1
  Te  Te73  1  0.04476121  0.09680764  0.42886760  1
  Te  Te74  1  0.08295749  0.04215472  0.76037608  1
  Te  Te75  1  0.09862464  0.46849732  0.08873657  1
  Te  Te76  1  0.10437818  0.41230958  0.41396674  1
  Te  Te77  1  0.06848231  0.43113633  0.73784100  1
  Te  Te78  1  0.10112115  0.75104380  0.08730333  1
  Te  Te79  1  0.11295991  0.72095136  0.43925827  1
  Te  Te80  1  0.08982792  0.76396389  0.74331762  1
  Te  Te81  1  0.41580380  0.09733452  0.08230460  1
  Te  Te82  1  0.41573615  0.08289541  0.41051297  1
  Te  Te83  1  0.40196768  0.08712060  0.74627433  1
  Te  Te84  1  0.40568680  0.45215421  0.05040170  1
  Te  Te85  1  0.41701396  0.42958650  0.43495771  1
  Te  Te86  1  0.44054789  0.46328137  0.77199610  1
  Te  Te87  1  0.39592846  0.72395641  0.04965947  1
  Te  Te88  1  0.43851085  0.74184567  0.41379910  1
  Te  Te89  1  0.45487884  0.73081128  0.80795573  1
  Te  Te90  1  0.73194424  0.06445878  0.09115956  1
  Te  Te91  1  0.77353085  0.07709580  0.44111593  1
  Te  Te92  1  0.75451016  0.10505599  0.71452153  1
  Te  Te93  1  0.74673994  0.39847987  0.08141991  1
  Te  Te94  1  0.76601459  0.44410599  0.40335546  1
  Te  Te95  1  0.73388406  0.41991268  0.75885215  1
  Te  Te96  1  0.74648003  0.71786993  0.09057389  1
  Te  Te97  1  0.74924743  0.74610701  0.41885652  1
  Te  Te98  1  0.70740272  0.72776174  0.74402894  1
  Te  Te99  1  0.10123107  0.25858381  0.24404417  1
  Te  Te100  1  0.11100553  0.26770472  0.56575090  1
  Te  Te101  1  0.06947860  0.25673083  0.91548981  1
  Te  Te102  1  0.09985898  0.59092148  0.22841751  1
  Te  Te103  1  0.11146636  0.55712418  0.60503430  1
  Te  Te104  1  0.09010121  0.59446903  0.87792430  1
  Te  Te105  1  0.10027799  0.92330684  0.25664741  1
  Te  Te106  1  0.08404733  0.90054210  0.58598945  1
  Te  Te107  1  0.08944365  0.89208703  0.93134880  1
  Te  Te108  1  0.43196610  0.25298376  0.24809134  1
  Te  Te109  1  0.41273595  0.26516612  0.59303510  1
  Te  Te110  1  0.41771081  0.24761639  0.85955566  1
  Te  Te111  1  0.42140598  0.57042257  0.24016062  1
  Te  Te112  1  0.46088687  0.61432010  0.62066885  1
  Te  Te113  1  0.41375500  0.59818401  0.87288664  1
  Te  Te114  1  0.40829198  0.89954326  0.26364412  1
  Te  Te115  1  0.38831876  0.91810256  0.59639275  1
  Te  Te116  1  0.40813671  0.91125987  0.90992711  1
  Te  Te117  1  0.72974006  0.22425619  0.24599046  1
  Te  Te118  1  0.74455174  0.26915544  0.57981566  1
  Te  Te119  1  0.72953667  0.23543620  0.92322542  1
  Te  Te120  1  0.76917058  0.55752188  0.26620612  1
  Te  Te121  1  0.72950139  0.58846494  0.59630980  1
  Te  Te122  1  0.74561170  0.56194297  0.91486621  1
  Te  Te123  1  0.75765723  0.90213985  0.25170971  1
  Te  Te124  1  0.74123559  0.90311145  0.58418709  1
  Te  Te125  1  0.75902022  0.90242586  0.91557350  1
  Te  Te126  1  0.28061649  0.27385499  0.06273874  1
  Te  Te127  1  0.25249563  0.23168789  0.40713393  1
  Te  Te128  1  0.24367166  0.25351476  0.75177836  1
  Te  Te129  1  0.25163327  0.63854148  0.04014065  1
  Te  Te130  1  0.26446707  0.57219355  0.43667765  1
  Te  Te131  1  0.22801189  0.58063883  0.79740560  1
  Te  Te132  1  0.25528270  0.89730578  0.06033475  1
  Te  Te133  1  0.24935778  0.91969970  0.42797008  1
  Te  Te134  1  0.28755480  0.87591007  0.78666599  1
  Te  Te135  1  0.54942220  0.26389592  0.05388779  1
  Te  Te136  1  0.57022912  0.27714681  0.42622314  1
  Te  Te137  1  0.55394527  0.25934561  0.78190137  1
  Te  Te138  1  0.57412111  0.56360979  0.05699362  1
  Te  Te139  1  0.58613855  0.58711980  0.42726877  1
  Te  Te140  1  0.55076978  0.57443206  0.81327028  1
  Te  Te141  1  0.56043165  0.88735705  0.07993307  1
  Te  Te142  1  0.58888225  0.90626558  0.41026100  1
  Te  Te143  1  0.55608573  0.90470062  0.72011959  1
  Te  Te144  1  0.91439494  0.25704686  0.07695341  1
  Te  Te145  1  0.90577942  0.25937497  0.42749383  1
  Te  Te146  1  0.89737788  0.27636771  0.76161624  1
  Te  Te147  1  0.91769083  0.61690947  0.08751465  1
  Te  Te148  1  0.93625424  0.58611106  0.40918347  1
  Te  Te149  1  0.91149445  0.58886216  0.75435063  1
  Te  Te150  1  0.90263351  0.91868923  0.07865236  1
  Te  Te151  1  0.90667974  0.90711313  0.42838858  1
  Te  Te152  1  0.90559303  0.91917652  0.74659283  1
  Te  Te153  1  0.25638448  0.10338795  0.22195650  1
  Te  Te154  1  0.24601148  0.06634185  0.59730188  1
  Te  Te155  1  0.24385462  0.09424786  0.90698923  1
  Te  Te156  1  0.26979260  0.42224187  0.24071716  1
  Te  Te157  1  0.27392421  0.43391737  0.62373539  1
  Te  Te158  1  0.24145431  0.44248015  0.91668632  1
  Te  Te159  1  0.25022944  0.73439029  0.24625287  1
  Te  Te160  1  0.26462501  0.71439758  0.61803653  1
  Te  Te161  1  0.20580269  0.69260845  0.89775582  1
  Te  Te162  1  0.57920209  0.06006111  0.24381952  1
  Te  Te163  1  0.57588778  0.08358165  0.56004949  1
  Te  Te164  1  0.57059130  0.07676237  0.92566471  1
  Te  Te165  1  0.59371183  0.41162131  0.23470112  1
  Te  Te166  1  0.56348061  0.43278977  0.60309353  1
  Te  Te167  1  0.55429965  0.43038404  0.87659019  1
  Te  Te168  1  0.57173119  0.74016132  0.24842432  1
  Te  Te169  1  0.52634378  0.75405268  0.58753397  1
  Te  Te170  1  0.56737096  0.76909233  0.91917187  1
  Te  Te171  1  0.90596521  0.06949183  0.23436875  1
  Te  Te172  1  0.99912546  0.12792411  0.64546156  1
  Te  Te173  1  0.91165319  0.09282755  0.90175013  1
  Te  Te174  1  0.93942130  0.42347579  0.23110541  1
  Te  Te175  1  0.90910464  0.41469717  0.57187151  1
  Te  Te176  1  0.93288120  0.43776157  0.91787949  1
  Te  Te177  1  0.92004650  0.76799650  0.26698574  1
  Te  Te178  1  0.91102645  0.73976262  0.59008868  1
  Te  Te179  1  0.90661726  0.74406838  0.93108421  1
