# generated using pymatgen
data_In2Te3
_symmetry_space_group_name_H-M   'P 1'
_cell_length_a   18.94709363
_cell_length_b   18.96667233
_cell_length_c   18.96895421
_cell_angle_alpha   89.97983525
_cell_angle_beta   89.84759097
_cell_angle_gamma   89.98121713
_symmetry_Int_Tables_number   1
_chemical_formula_structural   In2Te3
_chemical_formula_sum   'In72 Te108'
_cell_volume   6816.72139168
_cell_formula_units_Z   36
loop_
 _symmetry_equiv_pos_site_id
 _symmetry_equiv_pos_as_xyz
  1  'x, y, z'
loop_
 _atom_site_type_symbol
 _atom_site_label
 _atom_site_symmetry_multiplicity
 _atom_site_fract_x
 _atom_site_fract_y
 _atom_site_fract_z
 _atom_site_occupancy
  In  In0  1  0.14869751  0.00055243  0.17961382  1
  In  In1  1  0.82817868  0.17691106  -0.00254529  1
  In  In2  1  0.53433051  0.68944985  0.85303185  1
  In  In3  1  0.18893449  0.02199602  0.77736393  1
  In  In4  1  0.81759667  0.64340355  0.49498166  1
  In  In5  1  0.16998621  0.68090873  0.80272376  1
  In  In6  1  0.79410959  0.17426349  0.34451738  1
  In  In7  1  0.18745816  0.34383565  0.15850120  1
  In  In8  1  0.34612293  0.66470076  0.01336260  1
  In  In9  1  0.79539147  0.83249893  -0.01278868  1
  In  In10  1  0.00594649  0.00769559  0.34939280  1
  In  In11  1  0.47823727  0.01256778  0.50096188  1
  In  In12  1  0.00135352  0.34754002  0.33650063  1
  In  In13  1  0.16029567  0.33656016  0.82099383  1
  In  In14  1  0.35517040  0.48378129  0.86208609  1
  In  In15  1  0.33934517  0.83314855  0.15302691  1
  In  In16  1  0.03024816  0.18326143  0.52337354  1
  In  In17  1  0.84550371  0.00313447  0.82429598  1
  In  In18  1  0.64694714  0.19577528  0.16499678  1
  In  In19  1  0.32842987  -0.00202094  0.35960150  1
  In  In20  1  0.17096845  0.47640524  0.35255299  1
  In  In21  1  0.33388315  0.18588413  0.17420604  1
  In  In22  1  -0.01250043  0.17416223  0.14419016  1
  In  In23  1  0.83220558  0.84162727  0.32114317  1
  In  In24  1  0.18572774  0.48874564  0.65482605  1
  In  In25  1  0.80427772  -0.00638617  0.19123144  1
  In  In26  1  0.84571323  0.31195216  0.82120621  1
  In  In27  1  0.67676009  0.15337136  0.49088215  1
  In  In28  1  0.36872971  0.00938835  -0.03417517  1
  In  In29  1  0.84161420  0.82032982  0.67693228  1
  In  In30  1  0.82445454  0.48281389  0.01152891  1
  In  In31  1  0.22550462  0.68308696  0.51853590  1
  In  In32  1  0.34571280  0.32643279  0.34751281  1
  In  In33  1  0.23380009  0.48394615  0.01899357  1
  In  In34  1  0.00258384  -0.01435616  -0.01557068  1
  In  In35  1  0.80374334  0.68910562  0.84400609  1
  In  In36  1  0.82905335  0.49697141  0.33215752  1
  In  In37  1  0.85525907  0.15152634  0.64519511  1
  In  In38  1  0.67243892  0.48788656  0.83474932  1
  In  In39  1  0.50569603  0.00818003  0.16709549  1
  In  In40  1  0.13043399  0.68877646  0.17536069  1
  In  In41  1  0.18535822  0.86822237  -0.02958131  1
  In  In42  1  0.33961764  0.16367250  0.79866686  1
  In  In43  1  0.83486735  0.47646567  0.66053186  1
  In  In44  1  0.66293025  0.34274884  -0.00127391  1
  In  In45  1  -0.05360473  0.65401455  -0.02449205  1
  In  In46  1  0.02356071  0.33502943  -0.01556366  1
  In  In47  1  0.62768323  0.04959910  -0.02442694  1
  In  In48  1  0.51089854  0.31452003  0.80511888  1
  In  In49  1  0.03482927  0.84045084  0.52214979  1
  In  In50  1  0.79691298  0.64663383  0.15199389  1
  In  In51  1  0.33497375  0.50361658  0.49707468  1
  In  In52  1  0.64301474  -0.01485562  0.34753574  1
  In  In53  1  0.64966308  0.85070658  0.51985218  1
  In  In54  1  0.01659724  0.51837172  0.82105213  1
  In  In55  1  0.34504919  0.85497827  0.81658428  1
  In  In56  1  0.50825259  0.83149561  0.67850153  1
  In  In57  1  0.46661098  0.67617148  0.48526764  1
  In  In58  1  0.66792847  -0.01316986  0.69783739  1
  In  In59  1  0.17670569  0.87186502  0.34389525  1
  In  In60  1  -0.04545186  0.79266877  0.13231079  1
  In  In61  1  0.00574770  0.65375592  0.35924639  1
  In  In62  1  0.00555517  0.63648840  0.65397834  1
  In  In63  1  0.52287306  0.65039052  0.14157897  1
  In  In64  1  0.49003833  0.30403864  0.53921301  1
  In  In65  1  0.50003001  0.51465119  0.32495834  1
  In  In66  1  0.64572434  0.34383195  0.32789989  1
  In  In67  1  0.19113201  0.21258703  0.34490773  1
  In  In68  1  0.50141434  0.50248134  0.66294014  1
  In  In69  1  0.83691996  0.32950988  0.48682619  1
  In  In70  1  0.63874552  0.68286071  0.34356162  1
  In  In71  1  0.19460208  0.02983803  0.53426527  1
  Te  Te72  1  0.08382262  0.08289369  0.06982741  1
  Te  Te73  1  0.11290129  0.09323600  0.41431926  1
  Te  Te74  1  0.07569921  0.11349717  0.74230329  1
  Te  Te75  1  0.09793027  0.43216248  0.07232959  1
  Te  Te76  1  0.09491351  0.38720298  0.44081786  1
  Te  Te77  1  0.07068300  0.41517570  0.72526628  1
  Te  Te78  1  0.09016760  0.78562093  0.06396181  1
  Te  Te79  1  0.10482531  0.75215694  0.41810481  1
  Te  Te80  1  0.05639820  0.74852722  0.73839115  1
  Te  Te81  1  0.41772438  0.09513619  0.07979994  1
  Te  Te82  1  0.41160981  0.10643265  0.41023382  1
  Te  Te83  1  0.39492125  0.04322972  0.72343119  1
  Te  Te84  1  0.36597925  0.42309695  0.03336052  1
  Te  Te85  1  0.44258367  0.41502660  0.43433285  1
  Te  Te86  1  0.40980468  0.40833433  0.74195195  1
  Te  Te87  1  0.44286367  0.76620380  0.06725061  1
  Te  Te88  1  0.34626609  0.75800811  0.46406752  1
  Te  Te89  1  0.42036951  0.73610972  0.75898089  1
  Te  Te90  1  0.74312864  0.09384378  0.09418249  1
  Te  Te91  1  0.76338747  0.04662623  0.41644649  1
  Te  Te92  1  0.75511784  0.09909676  0.74963969  1
  Te  Te93  1  0.71790577  0.43407789  0.10575933  1
  Te  Te94  1  0.73397402  0.42138307  0.42403044  1
  Te  Te95  1  0.74002651  0.38844674  0.74252665  1
  Te  Te96  1  0.71664787  0.75077411  0.08395535  1
  Te  Te97  1  0.74640004  0.76341768  0.42811989  1
  Te  Te98  1  0.72557447  0.76968606  0.75095651  1
  Te  Te99  1  0.08388962  0.24844598  0.23841078  1
  Te  Te100  1  0.13086739  0.19851523  0.63314116  1
  Te  Te101  1  0.08007438  0.23533729  0.89408475  1
  Te  Te102  1  0.08447480  0.57104736  0.26094483  1
  Te  Te103  1  0.11127691  0.58230680  0.56197918  1
  Te  Te104  1  0.07944267  0.61146492  0.92067314  1
  Te  Te105  1  0.05827871  0.90153034  0.25018261  1
  Te  Te106  1  0.07884096  0.95913283  0.59800965  1
  Te  Te107  1  0.09448117  0.93824485  0.87391234  1
  Te  Te108  1  0.43358042  0.27284692  0.23973997  1
  Te  Te109  1  0.43815710  0.19650546  0.63133857  1
  Te  Te110  1  0.43894362  0.21789583  0.89844636  1
  Te  Te111  1  0.42359801  0.61440107  0.24757322  1
  Te  Te112  1  0.39931795  0.59468050  0.59908831  1
  Te  Te113  1  0.44373834  0.58815685  0.92714940  1
  Te  Te114  1  0.40931722  0.92519602  0.25210313  1
  Te  Te115  1  0.41572979  0.92725025  0.60972158  1
  Te  Te116  1  0.45309908  0.90497514  0.90537373  1
  Te  Te117  1  0.75450551  0.27307877  0.24097705  1
  Te  Te118  1  0.75290143  0.24611440  0.58195800  1
  Te  Te119  1  0.73389504  0.24681358  0.90310963  1
  Te  Te120  1  0.72090265  0.58140581  0.26460625  1
  Te  Te121  1  0.74496708  0.57675009  0.60172164  1
  Te  Te122  1  0.74014581  0.58125345  0.93284394  1
  Te  Te123  1  0.70888295  0.88999642  0.24682901  1
  Te  Te124  1  0.75997158  0.92137345  0.59405768  1
  Te  Te125  1  0.73876910  0.95373984  0.92072621  1
  Te  Te126  1  0.23728217  0.23456106  0.07548539  1
  Te  Te127  1  0.27139124  0.25982601  0.45822460  1
  Te  Te128  1  0.24901075  0.26008894  0.72668018  1
  Te  Te129  1  0.24415953  0.60695327  0.10803206  1
  Te  Te130  1  0.26154481  0.58832312  0.39723766  1
  Te  Te131  1  0.24967434  0.55709026  0.77349400  1
  Te  Te132  1  0.25736963  0.94212650  0.08207083  1
  Te  Te133  1  0.26159013  0.90917625  0.46553647  1
  Te  Te134  1  0.23603660  0.88935236  0.71998549  1
  Te  Te135  1  0.56388413  0.25167804  0.05961936  1
  Te  Te136  1  0.57865164  0.24612839  0.42361877  1
  Te  Te137  1  0.56010830  0.19407052  0.72949807  1
  Te  Te138  1  0.60990534  0.54490276  0.09168267  1
  Te  Te139  1  0.57708318  0.58176367  0.43808551  1
  Te  Te140  1  0.59110761  0.58621011  0.75377896  1
  Te  Te141  1  0.58951885  0.94170188  0.06627433  1
  Te  Te142  1  0.54516268  0.89651964  0.42093008  1
  Te  Te143  1  0.57613295  0.90989830  0.78542467  1
  Te  Te144  1  0.90778651  0.28109937  0.07262943  1
  Te  Te145  1  0.92202297  0.22719913  0.40651393  1
  Te  Te146  1  0.93862792  0.23121787  0.73931087  1
  Te  Te147  1  0.91801297  0.57179663  0.09730131  1
  Te  Te148  1  0.92475555  0.55262010  0.43727996  1
  Te  Te149  1  0.89705374  0.59078166  0.75892717  1
  Te  Te150  1  0.89978477  0.92747253  0.08859861  1
  Te  Te151  1  0.92933128  0.89863472  0.42204641  1
  Te  Te152  1  0.92909815  0.92075056  0.73727404  1
  Te  Te153  1  0.24601833  0.08817359  0.25708189  1
  Te  Te154  1  0.31757110  0.08992467  0.60168639  1
  Te  Te155  1  0.25555652  0.08421039  0.90158973  1
  Te  Te156  1  0.27365065  0.42296878  0.25358661  1
  Te  Te157  1  0.26246907  0.39539909  0.56868043  1
  Te  Te158  1  0.27492093  0.36411340  0.92328872  1
  Te  Te159  1  0.23936640  0.76996071  0.24885780  1
  Te  Te160  1  0.20443238  0.74943021  0.65279788  1
  Te  Te161  1  0.26509759  0.75196958  0.91299934  1
  Te  Te162  1  0.58307813  0.09604574  0.26402391  1
  Te  Te163  1  0.59992510  0.05785992  0.57873158  1
  Te  Te164  1  0.55132948  0.11066035  0.86369104  1
  Te  Te165  1  0.54583777  0.40445419  0.23601655  1
  Te  Te166  1  0.58356126  0.39621096  0.60254061  1
  Te  Te167  1  0.56300249  0.41426670  0.90871963  1
  Te  Te168  1  0.53517900  0.74361695  0.25974032  1
  Te  Te169  1  0.57410127  0.73627737  0.58022462  1
  Te  Te170  1  0.64426189  0.74246348  0.93708134  1
  Te  Te171  1  0.91892223  0.08141134  0.24494150  1
  Te  Te172  1  0.94252502  0.07014772  0.55719004  1
  Te  Te173  1  0.92582428  0.09712560  0.91464864  1
  Te  Te174  1  0.91527967  0.41850664  0.24380331  1
  Te  Te175  1  0.92780822  0.39775338  0.57936122  1
  Te  Te176  1  0.91789946  0.42598961  0.90207606  1
  Te  Te177  1  0.90496076  0.72132004  0.26181441  1
  Te  Te178  1  0.92323707  0.73771568  0.56710883  1
  Te  Te179  1  0.91356409  0.78209715  0.90683063  1
