# generated using pymatgen
data_In2Te3
_symmetry_space_group_name_H-M   'P 1'
_cell_length_a   19.06766709
_cell_length_b   19.06646823
_cell_length_c   19.04701434
_cell_angle_alpha   90.29560427
_cell_angle_beta   90.02078080
_cell_angle_gamma   90.07133998
_symmetry_Int_Tables_number   1
_chemical_formula_structural   In2Te3
_chemical_formula_sum   'In72 Te108'
_cell_volume   6924.50251855
_cell_formula_units_Z   36
loop_
 _symmetry_equiv_pos_site_id
 _symmetry_equiv_pos_as_xyz
  1  'x, y, z'
loop_
 _atom_site_type_symbol
 _atom_site_label
 _atom_site_symmetry_multiplicity
 _atom_site_fract_x
 _atom_site_fract_y
 _atom_site_fract_z
 _atom_site_occupancy
  In  In0  1  0.84705076  0.15449243  0.66033536  1
  In  In1  1  0.68153339  0.15591863  0.81648277  1
  In  In2  1  0.64139478  0.32859503  0.00295143  1
  In  In3  1  0.32758933  -0.01309648  0.02490764  1
  In  In4  1  0.14752745  0.49959993  0.01804811  1
  In  In5  1  0.49650740  0.32683496  0.48508074  1
  In  In6  1  0.46466483  0.31157843  0.16266361  1
  In  In7  1  0.33553265  0.16616325  0.51471784  1
  In  In8  1  0.32701223  0.49280304  0.17225853  1
  In  In9  1  0.31718911  0.49953874  0.83444874  1
  In  In10  1  -0.00316704  0.13644255  0.83235505  1
  In  In11  1  0.69002460  0.84019863  0.50596512  1
  In  In12  1  0.19024893  0.83672680  0.35452714  1
  In  In13  1  0.81542398  0.00743330  0.15402040  1
  In  In14  1  0.02381014  0.01081272  0.35968871  1
  In  In15  1  0.15178512  0.32445751  0.80815157  1
  In  In16  1  0.66619250  0.83297867  0.80631039  1
  In  In17  1  0.19034611  0.00255364  0.19075008  1
  In  In18  1  0.47400927  0.14375684  -0.00525713  1
  In  In19  1  0.83483335  0.33722895  0.82909456  1
  In  In20  1  0.67448680  0.02005139  0.31952843  1
  In  In21  1  0.17713946  0.33762085  0.49163979  1
  In  In22  1  0.64812117  0.28180810  0.32688429  1
  In  In23  1  0.02291494  0.67054531  0.00618300  1
  In  In24  1  0.48690929  0.50422212  0.65829665  1
  In  In25  1  -0.03405490  0.67168684  0.34429839  1
  In  In26  1  0.17347741  0.68467060  0.82824521  1
  In  In27  1  0.67263373  0.49325894  0.15335694  1
  In  In28  1  0.35661381  -0.01080600  0.65034084  1
  In  In29  1  -0.02213109  -0.00708607  -0.01633405  1
  In  In30  1  0.68305203  0.66885178  -0.02050310  1
  In  In31  1  0.51881645  0.52380270  -0.02366488  1
  In  In32  1  0.68219514  0.35512144  0.68439173  1
  In  In33  1  0.50833942  0.48424193  0.32919391  1
  In  In34  1  0.15931240  0.67700903  0.19309456  1
  In  In35  1  0.49403861  0.15290029  0.32733748  1
  In  In36  1  0.51732393  0.33291882  0.86813906  1
  In  In37  1  0.47673743  0.69358252  0.17233388  1
  In  In38  1  0.33003820  0.83530065  0.85164981  1
  In  In39  1  0.83195526  0.47275219  -0.00277387  1
  In  In40  1  0.65324607  0.00570508  0.00284428  1
  In  In41  1  0.82922261  0.67886534  0.15248890  1
  In  In42  1  0.01657061  0.33748366  0.63896602  1
  In  In43  1  0.82709260  0.82956030  -0.00786664  1
  In  In44  1  0.82834209  0.67196751  0.52223517  1
  In  In45  1  -0.02457367  0.84056056  0.80055308  1
  In  In46  1  0.01795329  0.86160009  0.49348421  1
  In  In47  1  0.70045532  0.49173286  0.48693016  1
  In  In48  1  0.50054294  0.13929987  0.64748403  1
  In  In49  1  0.15668246  -0.00581716  0.82978056  1
  In  In50  1  0.47812988  0.75709305  0.49719005  1
  In  In51  1  0.32498580  -0.01607404  0.34687400  1
  In  In52  1  0.18215751  0.51322530  0.35248237  1
  In  In53  1  0.15702923  0.82290137  0.64849177  1
  In  In54  1  0.84327775  0.32908476  0.51421536  1
  In  In55  1  0.01609906  0.16279090  0.16412164  1
  In  In56  1  0.17709814  0.16005277  0.01203180  1
  In  In57  1  0.28532759  0.30996811  0.66329424  1
  In  In58  1  0.03089178  0.32002115  0.32677059  1
  In  In59  1  0.52047528  -0.02638682  0.51746830  1
  In  In60  1  0.32893597  0.32316192  0.01167649  1
  In  In61  1  0.16514716  0.51921517  0.62327066  1
  In  In62  1  0.82981528  0.15451069  0.34250267  1
  In  In63  1  0.34879648  0.70020902  0.65791251  1
  In  In64  1  0.84568667  0.48311543  0.31321655  1
  In  In65  1  0.70594557  0.56685857  0.78561765  1
  In  In66  1  0.00859686  0.47650219  0.16288877  1
  In  In67  1  0.84477403  -0.01256144  0.51712982  1
  In  In68  1  -0.00233828  0.32996876  0.01371766  1
  In  In69  1  0.47015275  0.68522248  0.84020216  1
  In  In70  1  0.62852837  0.70724404  0.34235448  1
  In  In71  1  0.49315914  0.85084912  0.02620368  1
  Te  Te72  1  0.09087171  0.05289239  0.07584073  1
  Te  Te73  1  0.06185601  0.10792589  0.46226303  1
  Te  Te74  1  0.06749633  0.05774899  0.73067044  1
  Te  Te75  1  0.10922086  0.38132075  0.10296184  1
  Te  Te76  1  0.07774118  0.42700682  0.42271882  1
  Te  Te77  1  0.09253908  0.43676537  0.72859344  1
  Te  Te78  1  0.08098538  0.76086202  0.10303705  1
  Te  Te79  1  0.07807891  0.74628028  0.41165258  1
  Te  Te80  1  0.06872416  0.73547287  0.73502940  1
  Te  Te81  1  0.38353127  0.10042491  0.10287966  1
  Te  Te82  1  0.43015121  0.07019637  0.43588170  1
  Te  Te83  1  0.41765423  0.07892910  0.74833152  1
  Te  Te84  1  0.42965966  0.42888993  0.06306822  1
  Te  Te85  1  0.41782946  0.43601443  0.43228229  1
  Te  Te86  1  0.43290538  0.42374937  0.77574733  1
  Te  Te87  1  0.38707906  0.76712734  0.08377895  1
  Te  Te88  1  0.40115308  0.76973977  0.36997503  1
  Te  Te89  1  0.43058378  0.79316839  0.74450746  1
  Te  Te90  1  0.74532179  0.09989235  0.06757015  1
  Te  Te91  1  0.74833259  0.07670887  0.44236189  1
  Te  Te92  1  0.77834117  0.06206501  0.75235530  1
  Te  Te93  1  0.75554542  0.38448247  0.09089372  1
  Te  Te94  1  0.74840665  0.38668411  0.38853067  1
  Te  Te95  1  0.78917183  0.44860185  0.73425734  1
  Te  Te96  1  0.72571495  0.76720719  0.08614765  1
  Te  Te97  1  0.75658002  0.74802933  0.40487636  1
  Te  Te98  1  0.74507506  0.71430690  0.76377078  1
  Te  Te99  1  0.10976381  0.21112162  0.26702581  1
  Te  Te100  1  0.10088876  0.23769755  0.57033258  1
  Te  Te101  1  0.08326492  0.23615100  0.91945810  1
  Te  Te102  1  0.06414884  0.57327112  0.26367994  1
  Te  Te103  1  0.10210885  0.62191502  0.54046611  1
  Te  Te104  1  0.09028608  0.57962331  0.90511704  1
  Te  Te105  1  0.09415670  0.91406095  0.26672727  1
  Te  Te106  1  0.06649691  0.93410377  0.61341317  1
  Te  Te107  1  0.06903637  0.90025253  0.90683148  1
  Te  Te108  1  0.40439841  0.26149778  0.28502807  1
  Te  Te109  1  0.42159250  0.26810371  0.61058873  1
  Te  Te110  1  0.40093339  0.24421131  0.90510909  1
  Te  Te111  1  0.41847826  0.58036674  0.25426106  1
  Te  Te112  1  0.44604689  0.62150591  0.57301666  1
  Te  Te113  1  0.39115282  0.59211434  0.92916958  1
  Te  Te114  1  0.41898380  0.89019139  0.28362470  1
  Te  Te115  1  0.40436253  0.88682262  0.54896300  1
  Te  Te116  1  0.42344834  0.93159570  0.91983926  1
  Te  Te117  1  0.73994963  0.21084622  0.24054367  1
  Te  Te118  1  0.74631746  0.24880686  0.59616305  1
  Te  Te119  1  0.74399514  0.25446574  0.91378435  1
  Te  Te120  1  0.75378526  0.58184393  0.24499348  1
  Te  Te121  1  0.71045470  0.60267542  0.58204876  1
  Te  Te122  1  0.79110795  0.59006884  0.91167015  1
  Te  Te123  1  0.74805716  0.91862281  0.24567586  1
  Te  Te124  1  0.78480988  0.88873040  0.61433795  1
  Te  Te125  1  0.73831887  0.91673458  0.90893098  1
  Te  Te126  1  0.26982292  0.22723421  0.10619037  1
  Te  Te127  1  0.28023600  0.26113629  0.41878975  1
  Te  Te128  1  0.22474188  0.21234568  0.75121196  1
  Te  Te129  1  0.24042292  0.58767064  0.09405196  1
  Te  Te130  1  0.23021380  0.59553463  0.46825875  1
  Te  Te131  1  0.26259176  0.59530333  0.73165324  1
  Te  Te132  1  0.26933877  0.89684414  0.12491850  1
  Te  Te133  1  0.22806454  0.94272917  0.45152357  1
  Te  Te134  1  0.24885859  0.90808023  0.74285761  1
  Te  Te135  1  0.56297367  0.22936922  0.08478161  1
  Te  Te136  1  0.58432439  0.21307091  0.44259179  1
  Te  Te137  1  0.58729000  0.25935644  0.75388764  1
  Te  Te138  1  0.58718090  0.60042710  0.08954253  1
  Te  Te139  1  0.59883366  0.57627203  0.40787508  1
  Te  Te140  1  0.55915032  0.59589467  0.75673733  1
  Te  Te141  1  0.55662604  0.95841877  0.10503142  1
  Te  Te142  1  0.60340188  0.91611550  0.40787496  1
  Te  Te143  1  0.58845733  0.91052909  0.71270609  1
  Te  Te144  1  0.91827387  0.22908847  0.07964435  1
  Te  Te145  1  0.92196671  0.25312541  0.41171863  1
  Te  Te146  1  0.93218461  0.25637350  0.74463353  1
  Te  Te147  1  0.91709086  0.56680322  0.08452463  1
  Te  Te148  1  0.89630336  0.56715106  0.42649854  1
  Te  Te149  1  0.86466503  0.66927629  0.67234279  1
  Te  Te150  1  0.91232779  0.90800891  0.08839212  1
  Te  Te151  1  0.91017559  0.91456449  0.40281122  1
  Te  Te152  1  0.87726379  0.92574808  0.73373584  1
  Te  Te153  1  0.23970333  0.09285003  0.29554430  1
  Te  Te154  1  0.25238655  0.05903397  0.57083601  1
  Te  Te155  1  0.25244067  0.06913697  0.91849878  1
  Te  Te156  1  0.24120452  0.41587643  0.26003006  1
  Te  Te157  1  0.27536938  0.42886036  0.57731926  1
  Te  Te158  1  0.23477144  0.40490750  0.91973694  1
  Te  Te159  1  0.26563394  0.72972698  0.28256642  1
  Te  Te160  1  0.24787481  0.74545812  0.55953610  1
  Te  Te161  1  0.23915573  0.75831485  0.93469053  1
  Te  Te162  1  0.56630948  0.06947595  0.23015795  1
  Te  Te163  1  0.60610527  0.03637603  0.62468978  1
  Te  Te164  1  0.57728995  0.08373308  0.89703710  1
  Te  Te165  1  0.58207035  0.39791019  0.22951774  1
  Te  Te166  1  0.59245912  0.41869717  0.57892205  1
  Te  Te167  1  0.62253267  0.44222030  0.90406113  1
  Te  Te168  1  0.56141096  0.79223441  0.24361088  1
  Te  Te169  1  0.59692895  0.75478654  0.58145671  1
  Te  Te170  1  0.57371529  0.75825882  0.92521917  1
  Te  Te171  1  0.92716369  0.07493940  0.25481194  1
  Te  Te172  1  0.93898984  0.09882180  0.55586239  1
  Te  Te173  1  0.89088334  0.08826549  0.91822408  1
  Te  Te174  1  0.92112728  0.37849524  0.23565296  1
  Te  Te175  1  0.92423382  0.43244116  0.57645742  1
  Te  Te176  1  0.93986626  0.41777199  0.90645863  1
  Te  Te177  1  0.92351262  0.75487246  0.23288977  1
  Te  Te178  1  0.92851351  0.77145674  0.57873137  1
  Te  Te179  1  0.92970372  0.74997724  0.91623974  1
