# generated using pymatgen
data_In2Te3
_symmetry_space_group_name_H-M   'P 1'
_cell_length_a   18.82990064
_cell_length_b   18.82023517
_cell_length_c   18.83401389
_cell_angle_alpha   89.88758033
_cell_angle_beta   89.84734421
_cell_angle_gamma   89.99402472
_symmetry_Int_Tables_number   1
_chemical_formula_structural   In2Te3
_chemical_formula_sum   'In72 Te108'
_cell_volume   6674.42075283
_cell_formula_units_Z   36
loop_
 _symmetry_equiv_pos_site_id
 _symmetry_equiv_pos_as_xyz
  1  'x, y, z'
loop_
 _atom_site_type_symbol
 _atom_site_label
 _atom_site_symmetry_multiplicity
 _atom_site_fract_x
 _atom_site_fract_y
 _atom_site_fract_z
 _atom_site_occupancy
  In  In0  1  0.16580664  0.82268803  0.30526413  1
  In  In1  1  0.82759265  0.51511161  0.65277154  1
  In  In2  1  0.84072377  0.33851021  0.16685412  1
  In  In3  1  0.49667407  0.50829283  0.00915752  1
  In  In4  1  0.66642594  0.50360889  0.51515371  1
  In  In5  1  0.80133433  -0.02370847  0.51718395  1
  In  In6  1  0.32394106  0.81581664  0.83012321  1
  In  In7  1  0.68881895  0.13637980  0.50876064  1
  In  In8  1  0.50747979  0.66400101  0.82301198  1
  In  In9  1  0.51692151  -0.01669543  0.82655541  1
  In  In10  1  0.33079387  0.63869152  0.66803239  1
  In  In11  1  0.66645123  0.82480107  0.16202938  1
  In  In12  1  0.16038560  0.48494364  0.68678421  1
  In  In13  1  0.15748531  0.82266034  0.69176609  1
  In  In14  1  0.66835908  0.32821501  0.03202121  1
  In  In15  1  0.83576960  -0.00618475  0.15732793  1
  In  In16  1  0.01185426  0.50847308  0.84312875  1
  In  In17  1  0.50019425  0.48710624  0.32929955  1
  In  In18  1  0.17338972  0.66382143  0.48991410  1
  In  In19  1  0.32314186  -0.00377421  -0.01549757  1
  In  In20  1  0.00427296  0.83977452  0.48229393  1
  In  In21  1  0.51343057  0.17728270  0.02699651  1
  In  In22  1  0.82398788  0.83262143  0.67687471  1
  In  In23  1  0.82850429  0.13588420  0.34280826  1
  In  In24  1  -0.01759303  0.51125819  0.48274475  1
  In  In25  1  0.15183452  0.53046790  0.30396681  1
  In  In26  1  0.31957429  0.48922135  0.16426214  1
  In  In27  1  0.15453880  0.82217701  0.02396939  1
  In  In28  1  0.32711753  -0.02643397  0.32006894  1
  In  In29  1  0.49415356  0.66687666  0.51865928  1
  In  In30  1  0.16222185  0.19339521  0.33036369  1
  In  In31  1  0.84240553  0.65535740  0.15993606  1
  In  In32  1  0.65392510  0.33291357  0.33491498  1
  In  In33  1  0.66665460  0.16766192  0.82499120  1
  In  In34  1  0.15645815  0.00400728  0.15501549  1
  In  In35  1  0.51036222  0.34914416  0.49731744  1
  In  In36  1  0.32214221  0.68180143  0.34326276  1
  In  In37  1  0.66243046  0.51301685  0.82626568  1
  In  In38  1  0.01757408  0.18208403  0.52539089  1
  In  In39  1  0.68870193  0.82312769  0.84772161  1
  In  In40  1  0.33208274  0.19784041  0.16131132  1
  In  In41  1  0.46910754  0.34451566  0.83604778  1
  In  In42  1  0.33355735  0.16295548  0.48401822  1
  In  In43  1  0.52219738  0.15824996  0.66930756  1
  In  In44  1  0.86087688  0.50080038  0.31107830  1
  In  In45  1  0.85141390  0.34765512  0.82611280  1
  In  In46  1  0.18296377  0.02682013  0.49503179  1
  In  In47  1  0.33230186  0.34235931  0.67307457  1
  In  In48  1  0.04160913  0.35030608  0.00535564  1
  In  In49  1  0.29607445  0.36646342  -0.01112110  1
  In  In50  1  0.48890865  0.15883629  0.31938824  1
  In  In51  1  -0.01875285  -0.00666086  0.32004061  1
  In  In52  1  0.33017032  0.64511601  0.01692649  1
  In  In53  1  0.50570118  0.68138057  0.16551311  1
  In  In54  1  0.31413121  0.15857622  0.83898544  1
  In  In55  1  0.00453144  0.81791279  0.83963558  1
  In  In56  1  -0.00572288  0.67822733  0.67722489  1
  In  In57  1  0.67802268  0.66249841  -0.01181074  1
  In  In58  1  0.00975234  0.02139175  0.66450037  1
  In  In59  1  -0.00846194  0.33545212  0.31600069  1
  In  In60  1  0.84025280  0.15639045  0.00193574  1
  In  In61  1  0.69478699  0.67658273  0.33541087  1
  In  In62  1  0.17827943  0.01696535  0.82281582  1
  In  In63  1  0.69384487  -0.01706924  0.00437259  1
  In  In64  1  0.83412024  0.33984891  0.51398999  1
  In  In65  1  0.68249987  -0.00867842  0.65307032  1
  In  In66  1  0.50269732  -0.01239664  0.18235646  1
  In  In67  1  0.36115435  0.85350529  0.52247857  1
  In  In68  1  -0.01303493  0.00153677  0.00437815  1
  In  In69  1  0.82359161  0.17784428  0.68243896  1
  In  In70  1  0.18067553  0.18974224  0.67181705  1
  In  In71  1  0.00111031  0.66035681  -0.00408792  1
  Te  Te72  1  0.07142436  0.09665298  0.07976208  1
  Te  Te73  1  0.06999356  0.08435952  0.40843212  1
  Te  Te74  1  0.07860166  0.11546232  0.76057404  1
  Te  Te75  1  0.09626160  0.41548581  0.13160287  1
  Te  Te76  1  0.07772516  0.42866549  0.39992168  1
  Te  Te77  1  0.06718984  0.39516430  0.76259002  1
  Te  Te78  1  0.07464475  0.72840836  0.10830959  1
  Te  Te79  1  0.07587099  0.73487467  0.39639133  1
  Te  Te80  1  0.10107931  0.71357178  0.78004656  1
  Te  Te81  1  0.40599113  0.07743410  0.08736288  1
  Te  Te82  1  0.41641043  0.05784292  0.41016919  1
  Te  Te83  1  0.42367509  0.08349279  0.76007342  1
  Te  Te84  1  0.41330634  0.40237523  0.08041709  1
  Te  Te85  1  0.40799845  0.39574344  0.40221204  1
  Te  Te86  1  0.41355586  0.44385597  0.74333312  1
  Te  Te87  1  0.42024330  0.74992350  0.06796579  1
  Te  Te88  1  0.42465894  0.76568910  0.41609404  1
  Te  Te89  1  0.41759638  0.74786476  0.73157612  1
  Te  Te90  1  0.73447795  0.09745631  0.09388348  1
  Te  Te91  1  0.71699069  0.03553507  0.39227041  1
  Te  Te92  1  0.76054506  0.06454600  0.76293326  1
  Te  Te93  1  0.75759637  0.43036079  0.08694708  1
  Te  Te94  1  0.75743630  0.42100565  0.40997051  1
  Te  Te95  1  0.74800023  0.41697758  0.73928389  1
  Te  Te96  1  0.76618389  0.75507383  0.07138621  1
  Te  Te97  1  0.76094347  0.78289633  0.41152021  1
  Te  Te98  1  0.74274114  0.72997983  0.74440455  1
  Te  Te99  1  0.08331551  0.26076528  0.22488164  1
  Te  Te100  1  0.11663967  0.28066478  0.57181925  1
  Te  Te101  1  0.12003682  0.28882891  0.89567945  1
  Te  Te102  1  0.04884580  0.62428053  0.24385366  1
  Te  Te103  1  0.08028217  0.58771680  0.58559599  1
  Te  Te104  1  0.11201061  0.55580603  0.94812676  1
  Te  Te105  1  0.06331826  0.90515258  0.22724914  1
  Te  Te106  1  0.09021549  0.91772842  0.58406950  1
  Te  Te107  1  0.10039384  0.91671588  0.90959369  1
  Te  Te108  1  0.39852856  0.26758880  0.27307563  1
  Te  Te109  1  0.42147353  0.24136383  0.58770663  1
  Te  Te110  1  0.41012769  0.23862826  0.92988528  1
  Te  Te111  1  0.41037957  0.58741350  0.24589862  1
  Te  Te112  1  0.40585767  0.56031600  0.56840269  1
  Te  Te113  1  0.41243105  0.57693932  0.90458201  1
  Te  Te114  1  0.41878077  0.88525442  0.24712085  1
  Te  Te115  1  0.46058130  0.92749034  0.59927148  1
  Te  Te116  1  0.41945426  0.90245701  0.91293688  1
  Te  Te117  1  0.76020123  0.24802291  0.26262100  1
  Te  Te118  1  0.73119844  0.25870336  0.59240788  1
  Te  Te119  1  0.75066816  0.25844961  0.91409403  1
  Te  Te120  1  0.74235713  0.56735284  0.24133880  1
  Te  Te121  1  0.74706838  0.61162224  0.57445807  1
  Te  Te122  1  0.76398104  0.56692972  0.91706238  1
  Te  Te123  1  0.75791879  0.90457771  0.24635503  1
  Te  Te124  1  0.70112485  0.84913399  0.54088938  1
  Te  Te125  1  0.78415781  0.91564054  0.91154287  1
  Te  Te126  1  0.23275081  0.26395469  0.07482877  1
  Te  Te127  1  0.23603788  0.26408974  0.43618015  1
  Te  Te128  1  0.23599461  0.28225087  0.78877636  1
  Te  Te129  1  0.22073711  0.56711754  0.08283213  1
  Te  Te130  1  0.25756788  0.56349728  0.41392190  1
  Te  Te131  1  0.24832824  0.57061391  0.77376515  1
  Te  Te132  1  0.25979347  0.90939945  0.09330506  1
  Te  Te133  1  0.23498986  0.89999345  0.42417804  1
  Te  Te134  1  0.26365165  0.92277972  0.73790486  1
  Te  Te135  1  0.57554184  0.26338172  0.12930120  1
  Te  Te136  1  0.58828280  0.22802777  0.42834701  1
  Te  Te137  1  0.57964163  0.27021170  0.75451232  1
  Te  Te138  1  0.59748441  0.58375773  0.09265456  1
  Te  Te139  1  0.58193283  0.58722862  0.41062859  1
  Te  Te140  1  0.59634452  0.59872095  0.72454594  1
  Te  Te141  1  0.57831883  0.91122415  0.07155104  1
  Te  Te142  1  0.61507211  0.92988292  0.44099228  1
  Te  Te143  1  0.60177824  0.89352129  0.74159169  1
  Te  Te144  1  0.92826967  0.25973209  0.06987159  1
  Te  Te145  1  0.91361494  0.24498388  0.42069903  1
  Te  Te146  1  0.93225720  0.25743529  0.73979471  1
  Te  Te147  1  0.91439087  0.56196923  0.06863181  1
  Te  Te148  1  0.88371748  0.59975762  0.41941317  1
  Te  Te149  1  0.90728336  0.58756840  0.76187417  1
  Te  Te150  1  0.92216010  0.89769556  0.08550705  1
  Te  Te151  1  0.89056454  0.90496751  0.40443684  1
  Te  Te152  1  0.93202700  0.91450502  0.74403006  1
  Te  Te153  1  0.24945893  0.08707287  0.25443423  1
  Te  Te154  1  0.26810555  0.08390899  0.60429752  1
  Te  Te155  1  0.22004915  0.10057533  0.94495818  1
  Te  Te156  1  0.22028557  0.40976110  0.24452380  1
  Te  Te157  1  0.24419542  0.41992571  0.58287323  1
  Te  Te158  1  0.23026509  0.46640142  0.90082944  1
  Te  Te159  1  0.25336579  0.73593014  0.22538873  1
  Te  Te160  1  0.25107804  0.75347846  0.58554084  1
  Te  Te161  1  0.24002907  0.73792204  0.92896755  1
  Te  Te162  1  0.59224849  0.08630078  0.24276442  1
  Te  Te163  1  0.56549367  0.04897127  0.56520850  1
  Te  Te164  1  0.58358974  0.08391247  0.92455270  1
  Te  Te165  1  0.58239719  0.41124918  0.23134416  1
  Te  Te166  1  0.57629850  0.42650950  0.60232372  1
  Te  Te167  1  0.58068680  0.40969089  0.92437601  1
  Te  Te168  1  0.58199997  0.75968740  0.27137659  1
  Te  Te169  1  0.55299708  0.79376997  0.56902135  1
  Te  Te170  1  0.57474831  0.75428654  0.92451846  1
  Te  Te171  1  0.92437384  0.10078088  0.23003253  1
  Te  Te172  1  0.90319363  0.08294965  0.57007194  1
  Te  Te173  1  0.92144542  0.08595186  0.90196764  1
  Te  Te174  1  0.95974977  0.44474252  0.20349350  1
  Te  Te175  1  0.93423504  0.41860249  0.59477770  1
  Te  Te176  1  0.92231930  0.42338512  0.93664029  1
  Te  Te177  1  0.92696726  0.71332245  0.26728338  1
  Te  Te178  1  0.91370953  0.75834824  0.57689648  1
  Te  Te179  1  0.90567155  0.74166281  0.91577781  1
