# generated using pymatgen
data_In2Te3
_symmetry_space_group_name_H-M   'P 1'
_cell_length_a   18.94567129
_cell_length_b   18.93965557
_cell_length_c   18.91222720
_cell_angle_alpha   89.98488471
_cell_angle_beta   89.85469102
_cell_angle_gamma   89.99916707
_symmetry_Int_Tables_number   1
_chemical_formula_structural   In2Te3
_chemical_formula_sum   'In72 Te108'
_cell_volume   6786.14819625
_cell_formula_units_Z   36
loop_
 _symmetry_equiv_pos_site_id
 _symmetry_equiv_pos_as_xyz
  1  'x, y, z'
loop_
 _atom_site_type_symbol
 _atom_site_label
 _atom_site_symmetry_multiplicity
 _atom_site_fract_x
 _atom_site_fract_y
 _atom_site_fract_z
 _atom_site_occupancy
  In  In0  1  0.66103116  0.33613978  -0.01542273  1
  In  In1  1  0.66382174  0.02084794  -0.01988533  1
  In  In2  1  0.34211758  0.13847345  0.55461571  1
  In  In3  1  0.80261169  0.84161174  -0.00438705  1
  In  In4  1  0.32312413  -0.11547700  0.34310258  1
  In  In5  1  0.34483618  0.16027761  0.14514242  1
  In  In6  1  -0.00051794  0.15091059  0.18636342  1
  In  In7  1  -0.03033981  -0.00545090  -0.01987200  1
  In  In8  1  0.48677721  0.13905550  0.69343107  1
  In  In9  1  0.33279829  0.51670722  0.79625885  1
  In  In10  1  0.84424932  0.80635996  0.36104144  1
  In  In11  1  0.83554634  0.66298492  0.80840237  1
  In  In12  1  0.19378398  0.16099786  0.02551507  1
  In  In13  1  0.67684144  0.00425153  0.30941519  1
  In  In14  1  0.51411976  0.32210868  0.13840335  1
  In  In15  1  0.81262829  0.51988736  -0.01352455  1
  In  In16  1  0.18486094  0.15828996  0.68546220  1
  In  In17  1  0.17083251  0.33142995  0.82246064  1
  In  In18  1  0.33166640  -0.01704737  0.67559317  1
  In  In19  1  0.83360446  0.15590167  -0.01465703  1
  In  In20  1  0.47819946  0.66697126  0.48745438  1
  In  In21  1  0.49705936  0.30975405  0.85160890  1
  In  In22  1  0.68620501  0.33380114  0.33873586  1
  In  In23  1  0.32585858  0.84132670  0.16174940  1
  In  In24  1  0.69561177  0.02395853  0.68655184  1
  In  In25  1  0.01594389  0.67279002  -0.00351810  1
  In  In26  1  0.84830736  0.33488149  0.18914831  1
  In  In27  1  0.47245743  0.48311723  0.31066904  1
  In  In28  1  0.66269332  0.51970487  0.14041485  1
  In  In29  1  0.16861270  -0.00686871  0.17400786  1
  In  In30  1  0.83735256  0.16835414  0.33727848  1
  In  In31  1  -0.01939813  0.16684839  0.86474416  1
  In  In32  1  -0.00229553  0.79739376  0.54703214  1
  In  In33  1  0.02029140  0.49827834  0.18153460  1
  In  In34  1  -0.00929236  0.35155587  -0.01114904  1
  In  In35  1  0.15253364  0.65944333  0.53072753  1
  In  In36  1  0.33886460  0.31994884  0.67378140  1
  In  In37  1  0.48470571  0.13794352  0.30494466  1
  In  In38  1  0.67318468  0.52538129  0.51387325  1
  In  In39  1  0.49940047  0.83939326  -0.02246723  1
  In  In40  1  0.34415160  0.49496575  0.14147522  1
  In  In41  1  0.83511347  0.35014247  0.84465093  1
  In  In42  1  0.67274114  0.66846852  0.67373822  1
  In  In43  1  0.84105653  0.00496024  0.51855899  1
  In  In44  1  0.33450817  0.69011667  0.65054418  1
  In  In45  1  0.31209473  0.67716643  0.33166146  1
  In  In46  1  0.33660339  -0.01218716  0.00384534  1
  In  In47  1  0.68427021  0.34345925  0.69004709  1
  In  In48  1  0.85317458  0.54370561  0.37426618  1
  In  In49  1  0.83083781  0.67784923  0.15783244  1
  In  In50  1  0.00593007  0.79313679  0.79582797  1
  In  In51  1  0.16403110  0.35265918  0.50432767  1
  In  In52  1  0.00416372  0.36451353  0.66474193  1
  In  In53  1  0.65958464  0.83318077  0.15833022  1
  In  In54  1  0.01234060  0.84051617  0.16156554  1
  In  In55  1  0.65124880  0.67917232  0.32201323  1
  In  In56  1  0.52912958  0.85730590  0.68454882  1
  In  In57  1  0.66900573  0.85440907  0.49661442  1
  In  In58  1  0.67044388  0.18554986  0.52624459  1
  In  In59  1  0.49716774  -0.00366283  0.47770388  1
  In  In60  1  0.51144926  0.67201758  0.82885764  1
  In  In61  1  0.13403026  0.52318481  0.37271514  1
  In  In62  1  0.18354981  0.31207947  0.15869213  1
  In  In63  1  -0.00668417  0.16838195  0.50431828  1
  In  In64  1  0.29171035  0.31734518  0.33130993  1
  In  In65  1  -0.00282096  -0.01836662  0.66961580  1
  In  In66  1  0.53567574  0.34325532  0.48822273  1
  In  In67  1  0.14557340  0.16463470  0.34930038  1
  In  In68  1  0.30888639  0.70144623  -0.02759878  1
  In  In69  1  0.15373332  -0.03420122  0.82797148  1
  In  In70  1  0.18879878  0.52057257  -0.01715778  1
  In  In71  1  0.34805225  0.48878575  0.53750309  1
  Te  Te72  1  0.06732413  0.07693304  0.07018849  1
  Te  Te73  1  0.06907311  0.06882912  0.42774737  1
  Te  Te74  1  0.07885260  0.08859811  0.76965043  1
  Te  Te75  1  0.10096540  0.41562007  0.07416059  1
  Te  Te76  1  0.05405619  0.41093010  0.42446889  1
  Te  Te77  1  0.08282425  0.43445024  0.76746876  1
  Te  Te78  1  0.10021204  0.74956392  0.08643047  1
  Te  Te79  1  0.06871138  0.73184996  0.42939297  1
  Te  Te80  1  0.13456491  0.73734643  0.74433341  1
  Te  Te81  1  0.43490399  0.09583961  0.04407769  1
  Te  Te82  1  0.39358043  0.08812872  0.41645491  1
  Te  Te83  1  0.40409058  0.05689352  0.78296949  1
  Te  Te84  1  0.45600493  0.43631112  0.05754898  1
  Te  Te85  1  0.40564923  0.39862243  0.42317888  1
  Te  Te86  1  0.43078959  0.41114689  0.74894155  1
  Te  Te87  1  0.41095632  0.75608074  0.07111612  1
  Te  Te88  1  0.42302078  0.76323862  0.39000043  1
  Te  Te89  1  0.42472243  0.76582389  0.74745966  1
  Te  Te90  1  0.76515301  0.06724762  0.07799909  1
  Te  Te91  1  0.73691764  0.07600868  0.43285183  1
  Te  Te92  1  0.76950986  0.11506824  0.77405830  1
  Te  Te93  1  0.76249419  0.40516861  0.08299185  1
  Te  Te94  1  0.75954229  0.43112554  0.42793540  1
  Te  Te95  1  0.78952547  0.43727597  0.73443238  1
  Te  Te96  1  0.72464495  0.72902860  0.06531113  1
  Te  Te97  1  0.73611782  0.73083260  0.43645310  1
  Te  Te98  1  0.73718512  0.76447720  0.76472953  1
  Te  Te99  1  0.07640922  0.26288060  0.25593869  1
  Te  Te100  1  0.09485860  0.24845005  0.60204191  1
  Te  Te101  1  0.09622592  0.24897502  0.93370963  1
  Te  Te102  1  0.09564384  0.59933104  0.25480422  1
  Te  Te103  1  0.04900241  0.56718834  0.58692745  1
  Te  Te104  1  0.08794696  0.58727438  0.90144788  1
  Te  Te105  1  0.07211621  0.92952161  0.26321472  1
  Te  Te106  1  0.09386732  0.89554575  0.60036023  1
  Te  Te107  1  0.05441452  0.89021072  0.91309888  1
  Te  Te108  1  0.40912218  0.26697238  0.24416427  1
  Te  Te109  1  0.44336031  0.25015777  0.58050672  1
  Te  Te110  1  0.39460236  0.24906575  0.93676131  1
  Te  Te111  1  0.40671100  0.59783699  0.23803010  1
  Te  Te112  1  0.43893434  0.58451101  0.60911284  1
  Te  Te113  1  0.39962409  0.59844945  0.90499605  1
  Te  Te114  1  0.39800925  0.94673545  0.23402377  1
  Te  Te115  1  0.42836055  0.91044307  0.58191844  1
  Te  Te116  1  0.40755624  0.91990647  0.89316050  1
  Te  Te117  1  0.74383825  0.23623963  0.23655526  1
  Te  Te118  1  0.76668382  0.27511834  0.58645533  1
  Te  Te119  1  0.74441736  0.23702873  0.89318853  1
  Te  Te120  1  0.75062017  0.58048565  0.25704231  1
  Te  Te121  1  0.77533176  0.57881621  0.60784158  1
  Te  Te122  1  0.73093909  0.57975426  0.88100065  1
  Te  Te123  1  0.75969947  0.88737023  0.25975045  1
  Te  Te124  1  0.75882647  0.90925795  0.60460107  1
  Te  Te125  1  0.72253359  0.91304656  0.89411446  1
  Te  Te126  1  0.29376574  0.28090764  0.05341107  1
  Te  Te127  1  0.24824836  0.23578164  0.45352387  1
  Te  Te128  1  0.27937891  0.22892937  0.77936466  1
  Te  Te129  1  0.25616165  0.60624959  0.08641828  1
  Te  Te130  1  0.26421622  0.57034741  0.43641468  1
  Te  Te131  1  0.23615099  0.60708817  0.72689341  1
  Te  Te132  1  0.22578745  0.90476368  0.06596028  1
  Te  Te133  1  0.24386094  0.89858154  0.46460458  1
  Te  Te134  1  0.24650624  0.88063351  0.74763713  1
  Te  Te135  1  0.59474655  0.22379904  0.06000621  1
  Te  Te136  1  0.58257477  0.22944102  0.39660791  1
  Te  Te137  1  0.58537497  0.23649871  0.74766856  1
  Te  Te138  1  0.55314226  0.55469183  0.05530065  1
  Te  Te139  1  0.56586540  0.56411331  0.40399447  1
  Te  Te140  1  0.60346244  0.57271356  0.76533040  1
  Te  Te141  1  0.57865049  0.92679359  0.07258666  1
  Te  Te142  1  0.58134457  0.91039426  0.38567995  1
  Te  Te143  1  0.59412330  0.95701091  0.77256869  1
  Te  Te144  1  0.92249042  0.25114770  0.08245897  1
  Te  Te145  1  0.90425674  0.25804317  0.43004098  1
  Te  Te146  1  0.93291201  0.26528372  0.76273254  1
  Te  Te147  1  0.91794433  0.57158590  0.09208709  1
  Te  Te148  1  0.94575668  0.63211803  0.45159848  1
  Te  Te149  1  0.95524207  0.65127015  0.71292276  1
  Te  Te150  1  0.89921824  0.91379342  0.08798928  1
  Te  Te151  1  0.92391340  0.89950265  0.44989853  1
  Te  Te152  1  0.91037856  0.89064191  0.74529023  1
  Te  Te153  1  0.24250231  0.10493007  0.24385965  1
  Te  Te154  1  0.22341187  0.05176835  0.58525375  1
  Te  Te155  1  0.23409516  0.06450993  0.91754754  1
  Te  Te156  1  0.24475574  0.42914695  0.24258229  1
  Te  Te157  1  0.23820083  0.42106291  0.61712201  1
  Te  Te158  1  0.26690456  0.42319219  0.89804389  1
  Te  Te159  1  0.22981808  0.78051120  0.26276415  1
  Te  Te160  1  0.26054920  0.76716363  0.54034697  1
  Te  Te161  1  0.22204594  0.76301879  0.86947663  1
  Te  Te162  1  0.58655523  0.07783531  0.22017028  1
  Te  Te163  1  0.58013574  0.07208705  0.58085177  1
  Te  Te164  1  0.55825215  0.12034905  0.94513614  1
  Te  Te165  1  0.59228855  0.41037533  0.24515325  1
  Te  Te166  1  0.59007865  0.42830109  0.59718171  1
  Te  Te167  1  0.59340850  0.41783348  0.88434251  1
  Te  Te168  1  0.56611539  0.73590822  0.21906987  1
  Te  Te169  1  0.57804655  0.75213646  0.57285648  1
  Te  Te170  1  0.60172868  0.76176402  0.90453817  1
  Te  Te171  1  0.91146184  0.06493301  0.26474054  1
  Te  Te172  1  0.91364600  0.09666631  0.61372925  1
  Te  Te173  1  0.87755554  0.05175665  0.86575229  1
  Te  Te174  1  0.91553124  0.43865818  0.27468012  1
  Te  Te175  1  0.95209800  0.45206497  0.55830588  1
  Te  Te176  1  0.92700278  0.45879896  0.90518490  1
  Te  Te177  1  0.92790229  0.74121508  0.25173428  1
  Te  Te178  1  0.88522318  0.70672400  0.58955711  1
  Te  Te179  1  0.89725616  0.73868250  0.93037324  1
