# generated using pymatgen
data_In2Te3
_symmetry_space_group_name_H-M   'P 1'
_cell_length_a   18.87511423
_cell_length_b   18.86506057
_cell_length_c   18.86681128
_cell_angle_alpha   89.91748850
_cell_angle_beta   89.90668741
_cell_angle_gamma   89.98876964
_symmetry_Int_Tables_number   1
_chemical_formula_structural   In2Te3
_chemical_formula_sum   'In72 Te108'
_cell_volume   6718.08142782
_cell_formula_units_Z   36
loop_
 _symmetry_equiv_pos_site_id
 _symmetry_equiv_pos_as_xyz
  1  'x, y, z'
loop_
 _atom_site_type_symbol
 _atom_site_label
 _atom_site_symmetry_multiplicity
 _atom_site_fract_x
 _atom_site_fract_y
 _atom_site_fract_z
 _atom_site_occupancy
  In  In0  1  0.51385191  0.67752908  0.82849188  1
  In  In1  1  -0.02748996  0.51336380  0.13425638  1
  In  In2  1  0.65824552  0.33076974  0.31222991  1
  In  In3  1  0.31295570  0.48832308  0.81492372  1
  In  In4  1  0.21261353  0.67843175  0.52000443  1
  In  In5  1  0.33594993  0.31480365  0.67160375  1
  In  In6  1  0.14646054  0.32855798  0.48936727  1
  In  In7  1  -0.03196103  0.84225008  0.15247349  1
  In  In8  1  -0.02184314  0.18152463  0.17048511  1
  In  In9  1  0.64590437  0.51653038  0.50241084  1
  In  In10  1  0.48332453  0.83404930  0.36354099  1
  In  In11  1  -0.03062154  0.33550040  0.67076867  1
  In  In12  1  0.35694429  0.82614171  0.81243386  1
  In  In13  1  0.00460596  0.00868243  0.34099813  1
  In  In14  1  0.65983221  0.67271864  0.66326733  1
  In  In15  1  0.82622379  0.66321566  0.83811921  1
  In  In16  1  0.15725087  0.67963748  0.18450983  1
  In  In17  1  0.65940545  0.14794790  0.50462539  1
  In  In18  1  0.68841952  -0.00155959  -0.00009993  1
  In  In19  1  0.53719374  0.14556421  0.31648748  1
  In  In20  1  0.82934349  0.16731518  -0.01735729  1
  In  In21  1  0.82905967  0.85482151  0.33599923  1
  In  In22  1  0.16328091  0.00072185  0.15900279  1
  In  In23  1  0.66641665  0.48823836  0.16116905  1
  In  In24  1  0.69354121  0.49610675  0.83106575  1
  In  In25  1  0.48288840  0.32386718  0.82888934  1
  In  In26  1  0.16319115  0.49767277  0.64847892  1
  In  In27  1  0.84787405  0.15880717  0.66602257  1
  In  In28  1  0.33829124  0.50238140  0.19333849  1
  In  In29  1  0.84613332  0.33814739  0.49690830  1
  In  In30  1  0.00370750  0.66970704  0.32459843  1
  In  In31  1  -0.00474836  0.84885120  0.80249097  1
  In  In32  1  0.85180196  0.83405127  -0.01384494  1
  In  In33  1  0.16392820  0.33966639  0.84150466  1
  In  In34  1  0.30498348  0.14901581  0.52995342  1
  In  In35  1  0.51783620  0.84756235  0.64632479  1
  In  In36  1  0.35183345  0.13895707  0.83584312  1
  In  In37  1  0.35426469  0.83827615  0.19325570  1
  In  In38  1  0.51048038  -0.00670710  0.80812615  1
  In  In39  1  0.82375573  0.66466857  0.50329313  1
  In  In40  1  0.31930601  0.32873621  -0.03891380  1
  In  In41  1  0.49818025  0.00265744  0.49923897  1
  In  In42  1  0.14636412  0.34238823  0.16611446  1
  In  In43  1  0.50488040  0.65451665  0.18529989  1
  In  In44  1  0.52462903  0.81882142  -0.02397401  1
  In  In45  1  0.14753043  0.82840536  -0.01665692  1
  In  In46  1  0.32429176  0.66080137  0.00496078  1
  In  In47  1  0.16346476  -0.00974592  0.81503332  1
  In  In48  1  0.00198655  0.67188456  0.68360903  1
  In  In49  1  0.66026834  0.35052838  0.67329064  1
  In  In50  1  0.79505723  0.86231929  0.62425623  1
  In  In51  1  0.64965063  0.66224882  0.34074229  1
  In  In52  1  0.34739173  0.01024245  0.03123291  1
  In  In53  1  0.50152986  0.49745654  0.00575113  1
  In  In54  1  0.68242494  0.32528598  0.01070340  1
  In  In55  1  -0.02384417  0.49029464  0.86924857  1
  In  In56  1  0.03693307  0.84782223  0.53547451  1
  In  In57  1  0.78142386  0.15730397  0.32622815  1
  In  In58  1  0.00689959  0.33303412  0.32871707  1
  In  In59  1  0.66251308  0.15554534  0.82887278  1
  In  In60  1  0.83713948  0.49524249  0.31911839  1
  In  In61  1  0.14853947  0.17578575  0.00122148  1
  In  In62  1  0.34202100  0.34661416  0.37034989  1
  In  In63  1  0.34152248  -0.01591719  0.35297648  1
  In  In64  1  0.69910346  0.83128405  0.15004423  1
  In  In65  1  0.13570976  0.64717023  0.81994457  1
  In  In66  1  0.51254543  0.34118924  0.17132058  1
  In  In67  1  0.01458567  0.15271543  0.51021163  1
  In  In68  1  0.18254687  0.84662201  0.35053300  1
  In  In69  1  0.33868691  0.16115381  0.18078447  1
  In  In70  1  0.35391472  0.53288801  0.50432696  1
  In  In71  1  0.82902224  0.00801999  0.83419912  1
  Te  Te72  1  0.06130402  0.08112413  0.08386542  1
  Te  Te73  1  0.10597423  0.07101023  0.42603007  1
  Te  Te74  1  0.08319576  0.07446641  0.72186742  1
  Te  Te75  1  0.06401843  0.41283396  0.06446234  1
  Te  Te76  1  0.07271004  0.43205927  0.41502396  1
  Te  Te77  1  0.07568245  0.42981202  0.75415419  1
  Te  Te78  1  0.06543585  0.74565198  0.08199374  1
  Te  Te79  1  0.08655138  0.75061114  0.42362717  1
  Te  Te80  1  0.10731318  0.77112180  0.73445193  1
  Te  Te81  1  0.44446981  0.08506036  0.11030434  1
  Te  Te82  1  0.41948983  0.10252369  0.41047390  1
  Te  Te83  1  0.41473595  0.06634085  0.72372424  1
  Te  Te84  1  0.40146856  0.41065450  0.08095267  1
  Te  Te85  1  0.43989016  0.42752301  0.44478943  1
  Te  Te86  1  0.42298989  0.42558381  0.73262882  1
  Te  Te87  1  0.42257407  0.74715945  0.08277316  1
  Te  Te88  1  0.42275013  0.71079622  0.41534187  1
  Te  Te89  1  0.42190116  0.72658049  0.71458799  1
  Te  Te90  1  0.74435419  0.10399101  0.08477381  1
  Te  Te91  1  0.76489679  0.05837286  0.44403650  1
  Te  Te92  1  0.73769546  0.07079694  0.72882854  1
  Te  Te93  1  0.76789705  0.43382263  0.06543619  1
  Te  Te94  1  0.73953810  0.42335883  0.41519731  1
  Te  Te95  1  0.77494301  0.40769209  0.74624955  1
  Te  Te96  1  0.77893730  0.73114515  0.07191640  1
  Te  Te97  1  0.74156494  0.75727220  0.41718391  1
  Te  Te98  1  0.76463606  0.75709509  0.73309852  1
  Te  Te99  1  0.09463998  0.23057157  0.25527016  1
  Te  Te100  1  0.08060461  0.25353964  0.60451038  1
  Te  Te101  1  0.07052740  0.23760224  0.89301276  1
  Te  Te102  1  0.07399134  0.56452279  0.24106171  1
  Te  Te103  1  0.08311637  0.60365136  0.57579684  1
  Te  Te104  1  0.06695403  0.58698441  0.93417549  1
  Te  Te105  1  0.08369558  0.89857443  0.24460728  1
  Te  Te106  1  0.09085515  0.96868035  0.60530380  1
  Te  Te107  1  0.06239722  0.93173645  0.91442142  1
  Te  Te108  1  0.42293518  0.25867442  0.26482112  1
  Te  Te109  1  0.41614959  0.22722362  0.58571405  1
  Te  Te110  1  0.42914350  0.22725246  0.93435123  1
  Te  Te111  1  0.41157716  0.59487486  0.28410850  1
  Te  Te112  1  0.40781812  0.60236053  0.61959586  1
  Te  Te113  1  0.41187009  0.57746839  0.90787886  1
  Te  Te114  1  0.44730957  0.94010233  0.25206354  1
  Te  Te115  1  0.40456524  0.90476650  0.56684530  1
  Te  Te116  1  0.41284822  0.91497750  0.92581044  1
  Te  Te117  1  0.76733485  0.27247856  0.23432816  1
  Te  Te118  1  0.75108999  0.25426511  0.58139967  1
  Te  Te119  1  0.75015732  0.26232487  0.88985393  1
  Te  Te120  1  0.74432473  0.59027342  0.24547943  1
  Te  Te121  1  0.75346378  0.56849316  0.59657830  1
  Te  Te122  1  0.77486793  0.56274268  0.93844358  1
  Te  Te123  1  0.74365089  0.93622928  0.24503155  1
  Te  Te124  1  0.70334116  0.93551021  0.53374653  1
  Te  Te125  1  0.74492275  0.89919290  0.89978703  1
  Te  Te126  1  0.25298803  0.25078977  0.08558218  1
  Te  Te127  1  0.24587920  0.23758687  0.41946315  1
  Te  Te128  1  0.25300479  0.23501468  0.77016458  1
  Te  Te129  1  0.24156809  0.57981719  0.10256892  1
  Te  Te130  1  0.23562344  0.56944891  0.42539720  1
  Te  Te131  1  0.24902582  0.59608221  0.72975607  1
  Te  Te132  1  0.24869744  0.89325960  0.08868692  1
  Te  Te133  1  0.25791828  0.91641524  0.46153200  1
  Te  Te134  1  0.27919951  0.93141678  0.74237096  1
  Te  Te135  1  0.58303480  0.24644726  0.08470733  1
  Te  Te136  1  0.58375108  0.24996707  0.41737906  1
  Te  Te137  1  0.57327573  0.24164576  0.73949847  1
  Te  Te138  1  0.59299504  0.59512873  0.07531999  1
  Te  Te139  1  0.55006860  0.62407021  0.44993750  1
  Te  Te140  1  0.58799297  0.56956542  0.74918697  1
  Te  Te141  1  0.58927126  0.91057411  0.07837894  1
  Te  Te142  1  0.59363723  0.92116087  0.41581582  1
  Te  Te143  1  0.59870238  0.88555254  0.76274924  1
  Te  Te144  1  0.92137327  0.26295028  0.05819960  1
  Te  Te145  1  0.92179654  0.23778513  0.41272363  1
  Te  Te146  1  0.92149459  0.23606883  0.76904474  1
  Te  Te147  1  0.87423049  0.60457525  0.07287960  1
  Te  Te148  1  0.91669266  0.58188556  0.41542639  1
  Te  Te149  1  0.91273730  0.57034411  0.75222108  1
  Te  Te150  1  0.89523750  0.94285099  0.07548769  1
  Te  Te151  1  0.93762352  0.90417185  0.42940161  1
  Te  Te152  1  0.89706631  0.92841448  0.72064628  1
  Te  Te153  1  0.24828003  0.06932173  0.26286478  1
  Te  Te154  1  0.20334054  0.08130927  0.61455031  1
  Te  Te155  1  0.24629056  0.07198616  0.93379014  1
  Te  Te156  1  0.24478178  0.40549290  0.26467532  1
  Te  Te157  1  0.25495153  0.40193844  0.57542683  1
  Te  Te158  1  0.22664094  0.44521894  0.93288666  1
  Te  Te159  1  0.26456253  0.74408280  0.27222568  1
  Te  Te160  1  0.25858684  0.80621778  0.57398691  1
  Te  Te161  1  0.24874688  0.74576361  0.90281103  1
  Te  Te162  1  0.66094915  0.08952779  0.25988456  1
  Te  Te163  1  0.57472420  0.07699845  0.60260844  1
  Te  Te164  1  0.57619580  0.07119446  0.92018335  1
  Te  Te165  1  0.56647692  0.44535415  0.26820218  1
  Te  Te166  1  0.56832486  0.41290826  0.57452329  1
  Te  Te167  1  0.58167896  0.40895024  0.91126946  1
  Te  Te168  1  0.58630398  0.76738053  0.24734649  1
  Te  Te169  1  0.58926730  0.75025340  0.55859448  1
  Te  Te170  1  0.61961971  0.72322798  0.91908199  1
  Te  Te171  1  0.90316422  0.08160510  0.25751266  1
  Te  Te172  1  0.89998699  0.07053108  0.55899000  1
  Te  Te173  1  0.92797234  0.09150303  0.90165604  1
  Te  Te174  1  0.91439211  0.40205559  0.22935123  1
  Te  Te175  1  0.93506749  0.43229292  0.56581512  1
  Te  Te176  1  0.92347123  0.39582111  0.97212163  1
  Te  Te177  1  0.89779433  0.74766300  0.24952008  1
  Te  Te178  1  0.91500401  0.75813629  0.58437071  1
  Te  Te179  1  0.93945424  0.74464881  0.89923392  1
