# generated using pymatgen
data_In2Te3
_symmetry_space_group_name_H-M   'P 1'
_cell_length_a   18.79324649
_cell_length_b   18.79761284
_cell_length_c   18.79172091
_cell_angle_alpha   90.05206136
_cell_angle_beta   90.03624241
_cell_angle_gamma   90.03849417
_symmetry_Int_Tables_number   1
_chemical_formula_structural   In2Te3
_chemical_formula_sum   'In72 Te108'
_cell_volume   6638.51131365
_cell_formula_units_Z   36
loop_
 _symmetry_equiv_pos_site_id
 _symmetry_equiv_pos_as_xyz
  1  'x, y, z'
loop_
 _atom_site_type_symbol
 _atom_site_label
 _atom_site_symmetry_multiplicity
 _atom_site_fract_x
 _atom_site_fract_y
 _atom_site_fract_z
 _atom_site_occupancy
  In  In0  1  0.01689072  0.81576155  0.82418895  1
  In  In1  1  0.81973948  0.50610617  0.01091596  1
  In  In2  1  0.65531340  0.00270516  -0.01334548  1
  In  In3  1  0.34116977  0.65075124  -0.01177633  1
  In  In4  1  0.51004201  0.16360514  0.00399566  1
  In  In5  1  0.16217148  0.00126179  0.82786132  1
  In  In6  1  0.80250590  0.02327839  0.82513017  1
  In  In7  1  0.32869850  0.66705462  0.64567586  1
  In  In8  1  0.65470403  0.00154771  0.32610513  1
  In  In9  1  -0.00345318  0.84559459  0.17470404  1
  In  In10  1  -0.00037091  0.68729272  0.33292051  1
  In  In11  1  0.33487216  0.18075804  0.17428614  1
  In  In12  1  0.01156921  0.46531775  0.14463798  1
  In  In13  1  0.16747800  0.15833459  0.35261832  1
  In  In14  1  0.34942253  0.33011255  0.00281010  1
  In  In15  1  0.19924155  0.66662265  0.18013630  1
  In  In16  1  0.34254285  0.85523720  0.83345346  1
  In  In17  1  0.15820139  0.49127395  0.33760873  1
  In  In18  1  0.16993806  0.50202635  0.67703672  1
  In  In19  1  0.33951193  0.48107052  0.17624365  1
  In  In20  1  0.32399857  0.32240353  0.33065542  1
  In  In21  1  0.33832716  0.83676535  0.17565848  1
  In  In22  1  0.18488855  0.32193808  0.83840702  1
  In  In23  1  0.16498483  0.01221931  0.17152525  1
  In  In24  1  0.65840718  0.66625720  0.66147737  1
  In  In25  1  0.53767521  0.53487323  0.34880064  1
  In  In26  1  0.48641375  0.65019995  0.85155764  1
  In  In27  1  0.37771891  0.50335550  0.83287749  1
  In  In28  1  0.34499198  0.49654669  0.51802597  1
  In  In29  1  0.66332023  0.34710169  -0.01157743  1
  In  In30  1  0.32662008  0.01630936  0.62703615  1
  In  In31  1  0.82341680  0.82443807  0.35141613  1
  In  In32  1  -0.01176178  0.85479403  0.50239284  1
  In  In33  1  0.33617717  0.17698577  0.83970444  1
  In  In34  1  -0.00865366  0.67194952  0.70883952  1
  In  In35  1  0.80264250  0.67170693  0.50398962  1
  In  In36  1  0.65416586  0.18533531  0.53134939  1
  In  In37  1  0.81735648  0.64658146  0.85706487  1
  In  In38  1  0.79117687  0.52251319  0.31466037  1
  In  In39  1  0.34305993  0.32335825  0.65801168  1
  In  In40  1  0.01237838  0.32360602  0.31290304  1
  In  In41  1  0.81491048  0.33174692  0.49946222  1
  In  In42  1  0.50138838  0.84008177  0.64526600  1
  In  In43  1  0.84849295  0.14806789  0.31974389  1
  In  In44  1  0.34778329  0.67804200  0.32859749  1
  In  In45  1  -0.01161802  0.31228993  0.66163089  1
  In  In46  1  0.84301135  0.19089367  -0.00526836  1
  In  In47  1  -0.01874828  0.49637580  0.85218504  1
  In  In48  1  0.65039688  0.34271950  0.34104732  1
  In  In49  1  0.15812333  0.15215517  -0.00344342  1
  In  In50  1  0.50921453  0.83938422  0.36005257  1
  In  In51  1  0.00587474  0.16488605  0.84104599  1
  In  In52  1  0.65508521  0.15112720  0.18434863  1
  In  In53  1  0.50134593  0.50183561  0.66440084  1
  In  In54  1  0.85198547  0.00143477  0.16737382  1
  In  In55  1  0.80546437  0.35809416  0.81918017  1
  In  In56  1  0.50456112  -0.00171337  0.80897871  1
  In  In57  1  0.83601118  0.00467208  0.50223545  1
  In  In58  1  0.01227369  0.15053576  0.50425648  1
  In  In59  1  -0.00766987  0.48379653  0.48237175  1
  In  In60  1  -0.01218614  0.64692586  0.00101750  1
  In  In61  1  0.82295974  0.85253372  0.65460456  1
  In  In62  1  0.50016216  0.34820545  0.51021480  1
  In  In63  1  0.49701846  -0.00613098  0.17285755  1
  In  In64  1  0.16714189  0.67414533  0.51483985  1
  In  In65  1  0.83361088  0.33980477  0.14815861  1
  In  In66  1  0.49831869  0.81098010  -0.00693053  1
  In  In67  1  0.16656483  0.83536911  0.00537551  1
  In  In68  1  0.67684359  0.77893054  0.16189210  1
  In  In69  1  0.00331929  0.00027052  0.65502094  1
  In  In70  1  0.64726566  0.83492835  0.83688413  1
  In  In71  1  0.12499670  0.66940893  0.82764345  1
  Te  Te72  1  0.06689550  0.06613212  0.07354589  1
  Te  Te73  1  0.07802303  0.05328852  0.41397568  1
  Te  Te74  1  0.09197722  0.09848482  0.73402136  1
  Te  Te75  1  0.08141980  0.40005452  0.03736536  1
  Te  Te76  1  0.09497937  0.38607395  0.42765772  1
  Te  Te77  1  0.07777904  0.41186051  0.75924451  1
  Te  Te78  1  0.08904593  0.73277303  0.08711147  1
  Te  Te79  1  0.09036908  0.76911341  0.42178165  1
  Te  Te80  1  0.11126158  0.76881990  0.71143888  1
  Te  Te81  1  0.41045320  0.08170746  0.08292613  1
  Te  Te82  1  0.39419003  0.06747542  0.46296582  1
  Te  Te83  1  0.40971902  0.09179871  0.73588697  1
  Te  Te84  1  0.43738260  0.40159550  0.09855520  1
  Te  Te85  1  0.41915136  0.43084796  0.40239392  1
  Te  Te86  1  0.44387827  0.39002313  0.75139521  1
  Te  Te87  1  0.41634291  0.73284232  0.09480990  1
  Te  Te88  1  0.40559168  0.75972093  0.43671942  1
  Te  Te89  1  0.42678350  0.75380161  0.75303340  1
  Te  Te90  1  0.74637023  0.08871473  0.07809240  1
  Te  Te91  1  0.74181577  0.09908012  0.41814747  1
  Te  Te92  1  0.72237448  0.07668031  0.71450914  1
  Te  Te93  1  0.72244534  0.43253233  0.10473075  1
  Te  Te94  1  0.73187989  0.43824151  0.42874668  1
  Te  Te95  1  0.70364913  0.39458383  0.71841310  1
  Te  Te96  1  0.75575217  0.70417227  0.06220465  1
  Te  Te97  1  0.71266583  0.73240831  0.39799457  1
  Te  Te98  1  0.75891495  0.75279728  0.75285821  1
  Te  Te99  1  0.10065356  0.23214467  0.24041791  1
  Te  Te100  1  0.09294490  0.24755773  0.58207415  1
  Te  Te101  1  0.07252877  0.27121872  0.93010757  1
  Te  Te102  1  0.07969133  0.58602949  0.24761929  1
  Te  Te103  1  0.07072764  0.57643261  0.58685865  1
  Te  Te104  1  0.09504794  0.56182768  0.93168617  1
  Te  Te105  1  0.09958984  0.90956369  0.25738860  1
  Te  Te106  1  0.09778456  0.93702856  0.56082538  1
  Te  Te107  1  0.07260330  0.92144126  0.92204479  1
  Te  Te108  1  0.43198521  0.26285150  0.24962840  1
  Te  Te109  1  0.42385494  0.23608138  0.57087971  1
  Te  Te110  1  0.44564870  0.26096037  0.90480201  1
  Te  Te111  1  0.43045019  0.58372004  0.24494058  1
  Te  Te112  1  0.44251249  0.60244884  0.56627370  1
  Te  Te113  1  0.45865425  0.54734267  0.96536316  1
  Te  Te114  1  0.41002843  0.92508936  0.27688708  1
  Te  Te115  1  0.42802948  0.93267736  0.55107126  1
  Te  Te116  1  0.43127366  0.93310140  0.92856829  1
  Te  Te117  1  0.75274061  0.25343359  0.25644524  1
  Te  Te118  1  0.75140392  0.26539874  0.61970699  1
  Te  Te119  1  0.73474871  0.24451638  0.90123636  1
  Te  Te120  1  0.71785973  0.62403208  0.23436435  1
  Te  Te121  1  0.75340019  0.57061983  0.59855396  1
  Te  Te122  1  0.71936810  0.54227419  0.90399078  1
  Te  Te123  1  0.74859643  0.91522723  0.24363532  1
  Te  Te124  1  0.73480536  0.90398293  0.54700480  1
  Te  Te125  1  0.75339050  0.90812391  0.91853172  1
  Te  Te126  1  0.24109833  0.25235856  0.07777520  1
  Te  Te127  1  0.26414356  0.23899678  0.43785234  1
  Te  Te128  1  0.24298732  0.23199735  0.73122451  1
  Te  Te129  1  0.25193806  0.56569622  0.07984236  1
  Te  Te130  1  0.25160594  0.58117886  0.41825452  1
  Te  Te131  1  0.26338813  0.58911593  0.76148345  1
  Te  Te132  1  0.26228456  0.92542243  0.07866635  1
  Te  Te133  1  0.27531564  0.98518075  0.44005285  1
  Te  Te134  1  0.25323947  0.92332041  0.73299337  1
  Te  Te135  1  0.59186121  0.25510851  0.09355482  1
  Te  Te136  1  0.56621408  0.24298110  0.41800158  1
  Te  Te137  1  0.61708070  0.19672487  0.68962239  1
  Te  Te138  1  0.62508055  0.63961386  0.10886541  1
  Te  Te139  1  0.61435246  0.61796041  0.44505457  1
  Te  Te140  1  0.58982835  0.57662446  0.76378099  1
  Te  Te141  1  0.58638334  0.90621740  0.08446626  1
  Te  Te142  1  0.59678919  0.93115082  0.44260007  1
  Te  Te143  1  0.60642217  0.92364814  0.72095938  1
  Te  Te144  1  0.93107550  0.23949889  0.10309216  1
  Te  Te145  1  0.91654931  0.25053803  0.41904011  1
  Te  Te146  1  0.90078886  0.24478304  0.76531145  1
  Te  Te147  1  0.91125074  0.57613099  0.11136200  1
  Te  Te148  1  0.90762812  0.59104383  0.41181893  1
  Te  Te149  1  0.89126271  0.56356096  0.74935887  1
  Te  Te150  1  0.90500945  0.90075633  0.07376570  1
  Te  Te151  1  0.91824103  0.93586923  0.39276294  1
  Te  Te152  1  0.91697742  0.91960119  0.75591686  1
  Te  Te153  1  0.26910803  0.07741388  0.26393133  1
  Te  Te154  1  0.24001154  0.09890082  0.53390555  1
  Te  Te155  1  0.26244740  0.07081665  0.92011239  1
  Te  Te156  1  0.22614572  0.39907238  0.23792898  1
  Te  Te157  1  0.23902247  0.40722957  0.57992461  1
  Te  Te158  1  0.27041160  0.42471521  0.91074827  1
  Te  Te159  1  0.24009666  0.77631898  0.27791792  1
  Te  Te160  1  0.27324889  0.77119351  0.55631284  1
  Te  Te161  1  0.25177432  0.75063513  0.90789130  1
  Te  Te162  1  0.54565360  0.09649131  0.27621477  1
  Te  Te163  1  0.57887801  0.07851802  0.60537469  1
  Te  Te164  1  0.58982537  0.09860338  0.88941944  1
  Te  Te165  1  0.58752504  0.43830084  0.24758994  1
  Te  Te166  1  0.60506378  0.41661124  0.59381635  1
  Te  Te167  1  0.57999021  0.44768416  0.92105719  1
  Te  Te168  1  0.56215710  0.74915993  0.25306566  1
  Te  Te169  1  0.58431917  0.74753227  0.56089883  1
  Te  Te170  1  0.60291392  0.72227829  0.92727345  1
  Te  Te171  1  0.95211900  0.08858392  0.23387499  1
  Te  Te172  1  0.90183999  0.10043318  0.59994861  1
  Te  Te173  1  0.91026649  0.07507597  0.92016801  1
  Te  Te174  1  0.90651995  0.42426400  0.26627846  1
  Te  Te175  1  0.90610897  0.41902037  0.59005296  1
  Te  Te176  1  0.89969327  0.39947841  0.93471697  1
  Te  Te177  1  0.89592703  0.74784173  0.24066205  1
  Te  Te178  1  0.92025855  0.74458787  0.58485785  1
  Te  Te179  1  0.91371436  0.74999379  0.91878510  1
