# generated using pymatgen
data_In2Te3
_symmetry_space_group_name_H-M   'P 1'
_cell_length_a   18.79194849
_cell_length_b   18.79414233
_cell_length_c   18.78976170
_cell_angle_alpha   89.95949019
_cell_angle_beta   89.97005891
_cell_angle_gamma   90.10540638
_symmetry_Int_Tables_number   1
_chemical_formula_structural   In2Te3
_chemical_formula_sum   'In72 Te108'
_cell_volume   6636.12707867
_cell_formula_units_Z   36
loop_
 _symmetry_equiv_pos_site_id
 _symmetry_equiv_pos_as_xyz
  1  'x, y, z'
loop_
 _atom_site_type_symbol
 _atom_site_label
 _atom_site_symmetry_multiplicity
 _atom_site_fract_x
 _atom_site_fract_y
 _atom_site_fract_z
 _atom_site_occupancy
  In  In0  1  0.33268487  0.33013954  0.32209029  1
  In  In1  1  0.34174275  0.33382609  0.65463550  1
  In  In2  1  0.82938214  0.82853182  0.01333209  1
  In  In3  1  0.84576359  0.19520595  0.36585198  1
  In  In4  1  0.48342304  0.83645911  0.33208095  1
  In  In5  1  0.48711500  0.01225667  0.84700368  1
  In  In6  1  0.50927728  0.00974414  0.50013563  1
  In  In7  1  0.83954941  0.64490037  0.84767712  1
  In  In8  1  0.00450299  0.67843171  0.02379626  1
  In  In9  1  0.14365452  0.00095309  0.85898345  1
  In  In10  1  0.00865625  0.01044435  0.65204706  1
  In  In11  1  0.15843216  0.84420018  0.65484102  1
  In  In12  1  0.15069289  0.17489215  -0.00402338  1
  In  In13  1  0.66495905  0.34879255  0.31714875  1
  In  In14  1  0.19685963  0.81337052  0.31944314  1
  In  In15  1  0.48182078  0.51304678  0.63954205  1
  In  In16  1  0.14813597  0.35027982  0.48224535  1
  In  In17  1  0.67842385  0.48805278  0.49756660  1
  In  In18  1  0.15260095  0.65170225  0.50233499  1
  In  In19  1  0.01488992  0.82778821  0.17367812  1
  In  In20  1  0.53215043  0.50401155  0.32644648  1
  In  In21  1  0.33565656  0.16462093  0.83241111  1
  In  In22  1  0.67837536  0.50512535  0.16252804  1
  In  In23  1  0.51247971  0.80807097  0.65701491  1
  In  In24  1  0.67495800  0.18432802  0.83277618  1
  In  In25  1  0.32866786  0.82366312  0.49343948  1
  In  In26  1  0.00663712  0.64944839  0.65666344  1
  In  In27  1  0.80818639  -0.00182713  0.17166149  1
  In  In28  1  0.81454896  0.15735678  0.00378489  1
  In  In29  1  0.52625599  0.19302378  0.02525715  1
  In  In30  1  0.82750760  0.82266061  0.64199276  1
  In  In31  1  0.31905506  0.50896232  0.84162042  1
  In  In32  1  0.67708233  0.84363638  0.83990158  1
  In  In33  1  0.84938338  0.00271391  0.85726630  1
  In  In34  1  0.81926567  0.34004112  0.17423939  1
  In  In35  1  0.16720020  0.32261062  0.17398286  1
  In  In36  1  0.50170679  0.32838480  0.51380449  1
  In  In37  1  0.17913427  0.66717764  0.82622328  1
  In  In38  1  0.00228418  -0.00636852  0.34689884  1
  In  In39  1  0.84836250  0.50795156  0.33165248  1
  In  In40  1  0.32366638  0.51696014  0.48684126  1
  In  In41  1  0.17529168  0.50306185  -0.00312270  1
  In  In42  1  0.50094794  0.00548615  0.18139945  1
  In  In43  1  0.00391225  0.52671853  0.17306160  1
  In  In44  1  0.83279267  0.64894021  0.17520517  1
  In  In45  1  0.49378264  0.66212305  0.84166889  1
  In  In46  1  -0.00011016  0.66426043  0.34081738  1
  In  In47  1  0.49310325  0.81650451  0.01365934  1
  In  In48  1  0.84388947  0.18358547  0.66970237  1
  In  In49  1  0.82099383  0.68189352  0.47495115  1
  In  In50  1  0.32600406  0.16311660  0.16258086  1
  In  In51  1  -0.00548181  0.33256522  -0.02112887  1
  In  In52  1  0.82367076  -0.00227680  0.49257739  1
  In  In53  1  0.17281888  0.15757293  0.35422905  1
  In  In54  1  0.01656704  0.87819570  0.84256885  1
  In  In55  1  0.33745581  0.48760509  0.16783685  1
  In  In56  1  0.32619073  0.01539934  0.67342284  1
  In  In57  1  0.17716062  0.17087817  0.65923541  1
  In  In58  1  0.01399688  0.15913814  0.17347075  1
  In  In59  1  -0.00865848  0.48096201  0.82299219  1
  In  In60  1  0.02309537  -0.00448213  -0.01556090  1
  In  In61  1  0.34991296  -0.01389788  0.34070953  1
  In  In62  1  -0.00569551  0.34140534  0.66910378  1
  In  In63  1  0.49414538  0.48752584  -0.00934319  1
  In  In64  1  0.69685332  0.46946589  0.81297007  1
  In  In65  1  0.66762115  0.83472994  0.17950621  1
  In  In66  1  0.51561928  0.31898481  0.82470611  1
  In  In67  1  0.47901978  0.66815221  0.16746000  1
  In  In68  1  0.66829411  0.00322282  0.64694117  1
  In  In69  1  0.34151047  0.82120780  0.84063970  1
  In  In70  1  0.51445237  0.16121029  0.33460880  1
  In  In71  1  0.64794728  0.66447432  0.64990062  1
  Te  Te72  1  0.10821620  0.06396971  0.10026657  1
  Te  Te73  1  0.06959119  0.09044894  0.43611983  1
  Te  Te74  1  0.08033147  0.09506824  0.75504797  1
  Te  Te75  1  0.07542643  0.41326484  0.08803948  1
  Te  Te76  1  0.03200880  0.41017712  0.41296666  1
  Te  Te77  1  0.09683754  0.42783634  0.73545003  1
  Te  Te78  1  0.11373624  0.73259301  0.11264674  1
  Te  Te79  1  0.08958521  0.76245813  0.41573514  1
  Te  Te80  1  0.06935684  0.75709061  0.75115747  1
  Te  Te81  1  0.42427361  0.08541370  0.07687638  1
  Te  Te82  1  0.40807019  0.09810887  0.42483805  1
  Te  Te83  1  0.43547287  0.10219052  0.73510853  1
  Te  Te84  1  0.40842630  0.39949514  0.07345518  1
  Te  Te85  1  0.42694395  0.41655098  0.41078236  1
  Te  Te86  1  0.42447853  0.42514200  0.75443399  1
  Te  Te87  1  0.38044242  0.75312683  0.09102218  1
  Te  Te88  1  0.39719721  0.73509663  0.39807432  1
  Te  Te89  1  0.40696654  0.73024694  0.73637841  1
  Te  Te90  1  0.71996523  0.08651903  0.09291545  1
  Te  Te91  1  0.74612642  0.10603311  0.42875270  1
  Te  Te92  1  0.75636437  0.07074413  0.75308453  1
  Te  Te93  1  0.75400957  0.42009636  0.06913441  1
  Te  Te94  1  0.77205498  0.40220130  0.41204639  1
  Te  Te95  1  0.77304189  0.38031009  0.71839113  1
  Te  Te96  1  0.73902830  0.73280909  0.08645332  1
  Te  Te97  1  0.76889035  0.78578959  0.38527684  1
  Te  Te98  1  0.74941455  0.74284040  0.75015386  1
  Te  Te99  1  0.07865884  0.25093777  0.27528498  1
  Te  Te100  1  0.07799908  0.25008824  0.57512012  1
  Te  Te101  1  0.09254841  0.26278077  0.89318830  1
  Te  Te102  1  0.10247318  0.58694233  0.26593088  1
  Te  Te103  1  0.07681024  0.54669942  0.57706907  1
  Te  Te104  1  0.06867162  0.58974596  0.91451286  1
  Te  Te105  1  0.10118400  0.92112517  0.25553203  1
  Te  Te106  1  0.07086665  0.91389577  0.56005010  1
  Te  Te107  1  0.12196383  0.87011386  0.95908451  1
  Te  Te108  1  0.42871579  0.24614540  0.23995443  1
  Te  Te109  1  0.41181188  0.23023971  0.57785123  1
  Te  Te110  1  0.42169177  0.25121865  0.92322336  1
  Te  Te111  1  0.41108458  0.57699338  0.26950760  1
  Te  Te112  1  0.41645289  0.61265786  0.55342571  1
  Te  Te113  1  0.39824278  0.59591983  0.93938944  1
  Te  Te114  1  0.39647777  0.90216584  0.22306597  1
  Te  Te115  1  0.41811060  0.91340011  0.59062603  1
  Te  Te116  1  0.40667523  0.91984662  0.93698019  1
  Te  Te117  1  0.74443878  0.23423077  0.25241719  1
  Te  Te118  1  0.76249351  0.28290238  0.59283590  1
  Te  Te119  1  0.75900977  0.26711140  0.92180923  1
  Te  Te120  1  0.73345235  0.59100802  0.27631862  1
  Te  Te121  1  0.75978020  0.58663973  0.58290495  1
  Te  Te122  1  0.72804663  0.57526931  0.91251568  1
  Te  Te123  1  0.75674992  0.90504351  0.28020003  1
  Te  Te124  1  0.72219724  0.89328988  0.55853893  1
  Te  Te125  1  0.74344847  0.93440090  0.94344648  1
  Te  Te126  1  0.25628960  0.26031824  0.06792730  1
  Te  Te127  1  0.26011778  0.25581093  0.43301813  1
  Te  Te128  1  0.25020276  0.26428232  0.75612981  1
  Te  Te129  1  0.24267643  0.58210210  0.10166469  1
  Te  Te130  1  0.23049245  0.58587074  0.39309999  1
  Te  Te131  1  0.24785193  0.57778836  0.73228964  1
  Te  Te132  1  0.21456239  0.95283189  0.04394045  1
  Te  Te133  1  0.23893931  0.92342849  0.42389606  1
  Te  Te134  1  0.24296018  0.91936991  0.76244050  1
  Te  Te135  1  0.60025406  0.27599479  0.11955509  1
  Te  Te136  1  0.59823482  0.25569989  0.42041638  1
  Te  Te137  1  0.59057049  0.24028751  0.72492610  1
  Te  Te138  1  0.57318532  0.58369731  0.08225585  1
  Te  Te139  1  0.59163991  0.59030078  0.43048685  1
  Te  Te140  1  0.58314618  0.57277713  0.75562384  1
  Te  Te141  1  0.58319939  0.91770189  0.08390593  1
  Te  Te142  1  0.57874113  0.93892861  0.38843968  1
  Te  Te143  1  0.57311511  0.91700572  0.75409458  1
  Te  Te144  1  0.92001117  0.24521639  0.09146857  1
  Te  Te145  1  0.93979997  0.28876039  0.43095098  1
  Te  Te146  1  0.92260827  0.25688384  0.77050192  1
  Te  Te147  1  0.90303709  0.57056556  0.06552391  1
  Te  Te148  1  0.92874968  0.57422758  0.44286744  1
  Te  Te149  1  0.90092626  0.56809524  0.73225614  1
  Te  Te150  1  0.92391377  0.92710197  0.08713698  1
  Te  Te151  1  0.90873276  0.90048348  0.41780043  1
  Te  Te152  1  0.90254584  0.91976688  0.73447966  1
  Te  Te153  1  0.25077236  0.07124201  0.25552898  1
  Te  Te154  1  0.23617666  0.06840253  0.57055085  1
  Te  Te155  1  0.25932343  0.07571695  0.93021805  1
  Te  Te156  1  0.22844069  0.42457144  0.26772315  1
  Te  Te157  1  0.24570051  0.42358365  0.57861195  1
  Te  Te158  1  0.24611571  0.40365389  0.91566177  1
  Te  Te159  1  0.25701789  0.74372565  0.20430266  1
  Te  Te160  1  0.24578671  0.73862134  0.59048031  1
  Te  Te161  1  0.25543476  0.73935804  0.93039302  1
  Te  Te162  1  0.60605640  0.06068640  0.27197952  1
  Te  Te163  1  0.59337897  0.10698722  0.57540162  1
  Te  Te164  1  0.58967348  0.09182558  0.92359890  1
  Te  Te165  1  0.56535827  0.40107760  0.20918001  1
  Te  Te166  1  0.59175934  0.41445555  0.60150606  1
  Te  Te167  1  0.59995849  0.40473794  0.91801956  1
  Te  Te168  1  0.57886468  0.73984847  0.25903582  1
  Te  Te169  1  0.58347100  0.74520542  0.54323969  1
  Te  Te170  1  0.59370034  0.74487326  0.92287638  1
  Te  Te171  1  0.90775476  0.08556641  0.25493736  1
  Te  Te172  1  0.91620592  0.09710337  0.56725207  1
  Te  Te173  1  0.93607741  0.10725304  0.92135067  1
  Te  Te174  1  0.93253984  0.41205836  0.24824736  1
  Te  Te175  1  0.87310092  0.39576135  0.59613076  1
  Te  Te176  1  0.89135867  0.41264098  0.90948104  1
  Te  Te177  1  0.90851846  0.75358110  0.25534559  1
  Te  Te178  1  0.93294941  0.74805390  0.56485722  1
  Te  Te179  1  0.92278508  0.76437657  0.91134695  1
