# generated using pymatgen
data_In2Te3
_symmetry_space_group_name_H-M   'P 1'
_cell_length_a   18.74322376
_cell_length_b   18.74286088
_cell_length_c   18.74439506
_cell_angle_alpha   89.96719021
_cell_angle_beta   89.95738044
_cell_angle_gamma   89.92875926
_symmetry_Int_Tables_number   1
_chemical_formula_structural   In2Te3
_chemical_formula_sum   'In72 Te108'
_cell_volume   6584.92865068
_cell_formula_units_Z   36
loop_
 _symmetry_equiv_pos_site_id
 _symmetry_equiv_pos_as_xyz
  1  'x, y, z'
loop_
 _atom_site_type_symbol
 _atom_site_label
 _atom_site_symmetry_multiplicity
 _atom_site_fract_x
 _atom_site_fract_y
 _atom_site_fract_z
 _atom_site_occupancy
  In  In0  1  0.00191704  0.49200671  0.49183047  1
  In  In1  1  0.00315854  0.68720226  0.66173902  1
  In  In2  1  0.01412218  -0.01179123  0.34112967  1
  In  In3  1  0.17423366  0.68432872  0.17024883  1
  In  In4  1  0.01181314  0.14256371  0.48619941  1
  In  In5  1  0.36165905  0.16195574  0.83056661  1
  In  In6  1  0.48319783  -0.00664628  0.47850476  1
  In  In7  1  0.30117654  0.83754167  0.49489329  1
  In  In8  1  0.49754467  0.83796361  0.33549859  1
  In  In9  1  0.83671655  0.34313334  0.80443279  1
  In  In10  1  0.66093712  0.83774549  0.17875302  1
  In  In11  1  0.19789061  0.18507137  0.05218582  1
  In  In12  1  0.84026659  0.32461688  0.50168274  1
  In  In13  1  0.62114500  0.30348690  0.35796931  1
  In  In14  1  0.33336382  0.51305067  0.49232566  1
  In  In15  1  0.81109569  0.31338885  0.20010273  1
  In  In16  1  0.01697381  -0.01875760  0.63407175  1
  In  In17  1  0.17479777  0.34294204  0.19376516  1
  In  In18  1  0.65236319  0.66768080  0.65730917  1
  In  In19  1  0.16402401  0.15728165  0.63844747  1
  In  In20  1  0.18106481  0.00830138  0.20500438  1
  In  In21  1  0.68243458  0.00022642  -0.00753090  1
  In  In22  1  0.82551519  0.83362964  0.65243703  1
  In  In23  1  0.85023353  0.51018352  0.35776240  1
  In  In24  1  -0.01655134  -0.02683626  0.02499413  1
  In  In25  1  -0.00461799  0.18193076  0.82312346  1
  In  In26  1  0.33671684  0.32209999  0.33559257  1
  In  In27  1  0.02207434  0.33808504  0.32407799  1
  In  In28  1  0.15861735  0.84269200  0.01253852  1
  In  In29  1  0.01848726  0.52563703  0.83527933  1
  In  In30  1  0.49071378  0.16004605  0.01688315  1
  In  In31  1  0.32358983  0.14658488  0.47975660  1
  In  In32  1  0.00836214  0.16268934  0.18508845  1
  In  In33  1  0.51547098  0.00932152  0.20143079  1
  In  In34  1  0.48805890  0.81384162  0.00628648  1
  In  In35  1  0.49190868  0.51125661  0.65204790  1
  In  In36  1  0.68868930  0.16152989  0.82751644  1
  In  In37  1  0.47722382  0.49162176  0.00666201  1
  In  In38  1  0.67540610  0.32479091  0.65784326  1
  In  In39  1  0.47997105  0.49827661  0.31876850  1
  In  In40  1  0.33903264  0.00169643  0.00913116  1
  In  In41  1  0.33855157  0.80932852  0.79169611  1
  In  In42  1  0.62421454  0.32002518  0.00788141  1
  In  In43  1  0.16239257  0.67901409  0.81375150  1
  In  In44  1  0.50377061  0.13795432  0.65806322  1
  In  In45  1  0.33429010  0.66256068  0.00822379  1
  In  In46  1  -0.00971425  0.31226629  0.65911546  1
  In  In47  1  0.49350034  -0.00422228  0.80846482  1
  In  In48  1  0.85392918  0.65535242  0.50220357  1
  In  In49  1  0.50194857  0.35230946  0.83750448  1
  In  In50  1  0.84399281  0.84913746  0.33220048  1
  In  In51  1  0.82907906  0.11807925  0.35941593  1
  In  In52  1  0.85144614  0.69013386  0.18707735  1
  In  In53  1  0.80636515  0.14271529  0.00963374  1
  In  In54  1  0.51131347  0.64988905  0.51378451  1
  In  In55  1  0.64927060  0.84971768  0.83372790  1
  In  In56  1  0.18539927  0.35187501  0.84229774  1
  In  In57  1  0.18496070  0.51239162  0.66687983  1
  In  In58  1  0.81914762  0.51674761  0.01226917  1
  In  In59  1  0.66645861  0.49153498  0.50326811  1
  In  In60  1  0.66085047  0.67063364  -0.01020811  1
  In  In61  1  0.17498995  0.51623480  -0.01722647  1
  In  In62  1  0.32165897  0.66902641  0.32168958  1
  In  In63  1  0.86624677  0.69538021  0.85529215  1
  In  In64  1  0.18573417  -0.01887345  0.83446342  1
  In  In65  1  0.34444057  0.32271715  0.65507948  1
  In  In66  1  0.83451357  0.00236131  0.81175251  1
  In  In67  1  0.65253743  0.84259081  0.51007860  1
  In  In68  1  0.64612957  0.48823711  0.16955614  1
  In  In69  1  0.01872111  0.53154312  0.17694996  1
  In  In70  1  -0.00128560  0.32953482  -0.00014992  1
  In  In71  1  0.67094441  0.69144728  0.30912463  1
  Te  Te72  1  0.09159476  0.07277827  0.08432272  1
  Te  Te73  1  0.12206119  0.06787716  0.41341118  1
  Te  Te74  1  0.08233470  0.07981834  0.74779783  1
  Te  Te75  1  0.08654078  0.42291242  0.08243595  1
  Te  Te76  1  0.10457475  0.42615397  0.40814587  1
  Te  Te77  1  0.07630053  0.40811907  0.74894478  1
  Te  Te78  1  0.06786705  0.75710534  0.09262092  1
  Te  Te79  1  0.14519088  0.77832156  0.45703248  1
  Te  Te80  1  0.08382881  0.78214502  0.74278089  1
  Te  Te81  1  0.39500191  0.09480634  0.11632358  1
  Te  Te82  1  0.39753434  0.06464701  0.37478583  1
  Te  Te83  1  0.38584903  0.06051446  0.71967440  1
  Te  Te84  1  0.41808409  0.38759796  0.09012035  1
  Te  Te85  1  0.42988371  0.41225787  0.43203769  1
  Te  Te86  1  0.40280331  0.42661362  0.74897604  1
  Te  Te87  1  0.39324785  0.76021455  0.10457664  1
  Te  Te88  1  0.42146239  0.73998191  0.42495890  1
  Te  Te89  1  0.44398623  0.73819950  0.71918160  1
  Te  Te90  1  0.74627461  0.05794625  0.11404962  1
  Te  Te91  1  0.72169390  0.06680205  0.44649318  1
  Te  Te92  1  0.72851147  0.06274364  0.72437858  1
  Te  Te93  1  0.74894030  0.40075911  0.08464561  1
  Te  Te94  1  0.74329009  0.40345227  0.39792103  1
  Te  Te95  1  0.73428003  0.42911825  0.74389570  1
  Te  Te96  1  0.74760185  0.75143926  0.08595725  1
  Te  Te97  1  0.74749638  0.74362498  0.43006904  1
  Te  Te98  1  0.74712511  0.75039122  0.75548098  1
  Te  Te99  1  0.11419518  0.22448615  0.27357308  1
  Te  Te100  1  0.08597549  0.26008773  0.55379001  1
  Te  Te101  1  0.09888782  0.24374122  0.92268464  1
  Te  Te102  1  0.11028673  0.59303683  0.27401760  1
  Te  Te103  1  0.08673299  0.58789262  0.57943769  1
  Te  Te104  1  0.07869255  0.62440028  0.93275336  1
  Te  Te105  1  0.08589570  0.89983760  0.24345108  1
  Te  Te106  1  0.10874914  0.90771839  0.53940735  1
  Te  Te107  1  0.07029136  0.91510839  0.90885141  1
  Te  Te108  1  0.39413784  0.21657239  0.24658520  1
  Te  Te109  1  0.42818352  0.23436384  0.56430063  1
  Te  Te110  1  0.41589095  0.26278060  0.92969773  1
  Te  Te111  1  0.41147064  0.59165631  0.22887502  1
  Te  Te112  1  0.38652745  0.61123210  0.59880002  1
  Te  Te113  1  0.41772183  0.58760587  0.91127176  1
  Te  Te114  1  0.40497914  0.92866254  0.26063787  1
  Te  Te115  1  0.40885287  0.90737111  0.57329084  1
  Te  Te116  1  0.40900236  0.91261651  0.90532094  1
  Te  Te117  1  0.72827367  0.21280896  0.27766801  1
  Te  Te118  1  0.74272556  0.23281850  0.56363822  1
  Te  Te119  1  0.75830700  0.26104588  0.92030387  1
  Te  Te120  1  0.75451791  0.57450808  0.24198252  1
  Te  Te121  1  0.75819720  0.57621379  0.59077398  1
  Te  Te122  1  0.75562881  0.59305116  0.89733114  1
  Te  Te123  1  0.74620128  0.93150965  0.25556275  1
  Te  Te124  1  0.75790391  0.93445667  0.56380087  1
  Te  Te125  1  0.76969703  0.90487033  0.91211923  1
  Te  Te126  1  0.28485766  0.30250272  0.09300554  1
  Te  Te127  1  0.23855109  0.25667436  0.42792770  1
  Te  Te128  1  0.24782468  0.24207584  0.74651645  1
  Te  Te129  1  0.25460969  0.56965219  0.10041912  1
  Te  Te130  1  0.23368103  0.59124213  0.41526706  1
  Te  Te131  1  0.26338700  0.57955349  0.77164909  1
  Te  Te132  1  0.25712574  0.91603963  0.10359415  1
  Te  Te133  1  0.21726288  0.94150379  0.42209910  1
  Te  Te134  1  0.24390206  0.90173101  0.72456233  1
  Te  Te135  1  0.59285088  0.21779776  0.11148631  1
  Te  Te136  1  0.54642073  0.20568368  0.43902858  1
  Te  Te137  1  0.57075697  0.24068111  0.75459195  1
  Te  Te138  1  0.57176368  0.59069836  0.08553463  1
  Te  Te139  1  0.59575293  0.58125312  0.39869079  1
  Te  Te140  1  0.57445731  0.58352032  0.75088525  1
  Te  Te141  1  0.56814352  0.92649392  0.07427610  1
  Te  Te142  1  0.60276136  0.93049634  0.39403405  1
  Te  Te143  1  0.60367617  0.94158659  0.72432488  1
  Te  Te144  1  0.91320909  0.24306854  0.09305651  1
  Te  Te145  1  0.91839720  0.24659232  0.39457491  1
  Te  Te146  1  0.88527965  0.22205909  0.72394737  1
  Te  Te147  1  0.92292996  0.60389889  0.07929522  1
  Te  Te148  1  0.95681707  0.61124908  0.39781616  1
  Te  Te149  1  0.91462779  0.59477946  0.74685240  1
  Te  Te150  1  0.89752265  0.87006490  0.08356267  1
  Te  Te151  1  0.91487300  0.92943199  0.43562644  1
  Te  Te152  1  0.92923124  0.90726679  0.73989822  1
  Te  Te153  1  0.27770375  0.11379211  0.25723833  1
  Te  Te154  1  0.25130783  0.05577544  0.57583088  1
  Te  Te155  1  0.24987019  0.09207559  0.92090459  1
  Te  Te156  1  0.25983371  0.43393515  0.27272361  1
  Te  Te157  1  0.24784657  0.40950101  0.57459155  1
  Te  Te158  1  0.27870358  0.42344017  0.93017152  1
  Te  Te159  1  0.23447092  0.77893803  0.26970313  1
  Te  Te160  1  0.22109091  0.74653963  0.58273850  1
  Te  Te161  1  0.25425744  0.76353965  0.91819744  1
  Te  Te162  1  0.58468870  0.12730784  0.25679257  1
  Te  Te163  1  0.59279493  0.09142980  0.54107129  1
  Te  Te164  1  0.57613819  0.08545312  0.91083912  1
  Te  Te165  1  0.55844839  0.38659339  0.24406208  1
  Te  Te166  1  0.56934861  0.40064645  0.57567501  1
  Te  Te167  1  0.60036454  0.43723697  0.91613067  1
  Te  Te168  1  0.55311146  0.74101358  0.22807815  1
  Te  Te169  1  0.55061255  0.77656137  0.60641349  1
  Te  Te170  1  0.56145732  0.73992214  0.89473607  1
  Te  Te171  1  0.91313680  0.06104471  0.24277958  1
  Te  Te172  1  0.91823329  0.07702798  0.57966804  1
  Te  Te173  1  0.92070228  0.08502537  0.92118935  1
  Te  Te174  1  0.91916848  0.42146868  0.23782430  1
  Te  Te175  1  0.90900660  0.42535811  0.59400060  1
  Te  Te176  1  0.91911908  0.42856361  0.91400996  1
  Te  Te177  1  0.94950587  0.76223241  0.27182145  1
  Te  Te178  1  0.93261978  0.77367255  0.55695887  1
  Te  Te179  1  0.92456921  0.78749870  0.95550376  1
