# generated using pymatgen
data_In2Te3
_symmetry_space_group_name_H-M   'P 1'
_cell_length_a   18.90346077
_cell_length_b   18.91018088
_cell_length_c   18.92080081
_cell_angle_alpha   89.82134398
_cell_angle_beta   89.88792936
_cell_angle_gamma   90.01204567
_symmetry_Int_Tables_number   1
_chemical_formula_structural   In2Te3
_chemical_formula_sum   'In72 Te108'
_cell_volume   6763.53224090
_cell_formula_units_Z   36
loop_
 _symmetry_equiv_pos_site_id
 _symmetry_equiv_pos_as_xyz
  1  'x, y, z'
loop_
 _atom_site_type_symbol
 _atom_site_label
 _atom_site_symmetry_multiplicity
 _atom_site_fract_x
 _atom_site_fract_y
 _atom_site_fract_z
 _atom_site_occupancy
  In  In0  1  0.51632006  0.31724682  0.14885021  1
  In  In1  1  0.33292067  0.64316403  -0.02670452  1
  In  In2  1  0.83412925  0.16746858  0.33514118  1
  In  In3  1  0.34697076  0.86882578  0.16689425  1
  In  In4  1  0.83586437  0.00000415  0.83334113  1
  In  In5  1  0.68824689  0.64468861  0.68022144  1
  In  In6  1  0.34122786  0.81859736  0.84322665  1
  In  In7  1  0.33382827  0.85851999  0.49550631  1
  In  In8  1  0.18245535  0.83178591  -0.00302536  1
  In  In9  1  0.50415059  0.51328975  0.33111180  1
  In  In10  1  0.15187426  0.33214877  0.52974352  1
  In  In11  1  0.35725466  0.46111796  0.13317904  1
  In  In12  1  0.83793046  -0.01627795  0.48907163  1
  In  In13  1  0.85442628  0.20957444  0.67872264  1
  In  In14  1  0.00585333  0.62828392  -0.00034631  1
  In  In15  1  0.16162911  0.18366383  0.65722291  1
  In  In16  1  0.15627981  0.35176350  0.82840790  1
  In  In17  1  0.52396098  0.00728976  0.19087092  1
  In  In18  1  0.82508138  0.81830170  -0.00935748  1
  In  In19  1  0.32516626  0.68239915  0.32941225  1
  In  In20  1  0.36510101  0.00958122  0.66416761  1
  In  In21  1  0.34906440  0.33310991  0.65648686  1
  In  In22  1  0.67393003  0.17698983  0.50889160  1
  In  In23  1  -0.00913912  0.81200743  0.84471017  1
  In  In24  1  0.82009491  0.82979808  0.66191646  1
  In  In25  1  0.03141916  0.88165452  0.18512677  1
  In  In26  1  0.33745802  0.65304734  0.70211480  1
  In  In27  1  0.66197589  0.50485650  0.14614644  1
  In  In28  1  0.82078703  0.67628095  0.15596939  1
  In  In29  1  0.81432240  0.50347045  0.34997334  1
  In  In30  1  0.49687068  0.17440584  0.67570719  1
  In  In31  1  0.80102830  0.02788195  0.13143681  1
  In  In32  1  -0.02465433  0.64329160  0.68261095  1
  In  In33  1  0.77941427  0.43651214  -0.08318297  1
  In  In34  1  0.15590260  0.67652647  0.15400023  1
  In  In35  1  -0.00006325  0.31888417  0.33526678  1
  In  In36  1  0.64551031  0.01232819  0.69991213  1
  In  In37  1  0.64677962  0.84201914  0.47523334  1
  In  In38  1  -0.00104193  0.82104334  0.50191632  1
  In  In39  1  -0.02375347  0.67068861  0.34780113  1
  In  In40  1  0.01479309  0.17930036  0.49003131  1
  In  In41  1  0.33557159  0.34445213  0.34696744  1
  In  In42  1  0.34374109  0.48843108  0.83156181  1
  In  In43  1  0.34609284  0.13327404  0.46410317  1
  In  In44  1  0.66447683  0.20207839  0.84829183  1
  In  In45  1  0.51945409  0.15302254  0.35001815  1
  In  In46  1  0.15270521  0.48989269  -0.01471707  1
  In  In47  1  0.21664061  0.02384978  0.86109626  1
  In  In48  1  0.65190746  0.82835723  0.16175629  1
  In  In49  1  0.50643497  0.66784390  0.51978410  1
  In  In50  1  0.01216972  0.02703728  0.66113822  1
  In  In51  1  0.65096520  0.81907292  0.83118654  1
  In  In52  1  0.32439310  0.18666275  0.16181205  1
  In  In53  1  0.49498052  0.67384222  0.16244062  1
  In  In54  1  0.50385469  0.83803529  0.01323313  1
  In  In55  1  -0.01677802  0.18753171  0.82068095  1
  In  In56  1  0.14438354  0.66324785  0.51252091  1
  In  In57  1  -0.02971357  0.35481300  -0.00878857  1
  In  In58  1  0.33815658  0.03186742  -0.00072402  1
  In  In59  1  0.01990447  -0.00419272  0.01648982  1
  In  In60  1  0.00783314  0.49784415  0.15567312  1
  In  In61  1  0.17595921  0.01478057  0.46109286  1
  In  In62  1  0.51141464  0.18170145  -0.02339001  1
  In  In63  1  0.01211482  0.15567440  0.17855179  1
  In  In64  1  0.18319249  0.14296959  0.32856486  1
  In  In65  1  0.81120489  0.82320404  0.31753182  1
  In  In66  1  0.16015859  0.46654242  0.33650720  1
  In  In67  1  0.81867383  0.31864121  0.17617748  1
  In  In68  1  0.17935986  0.83042960  0.65340167  1
  In  In69  1  0.63276110  0.47441352  0.53818955  1
  In  In70  1  0.80810982  0.41360100  0.56263680  1
  In  In71  1  0.34504132  0.51655843  0.51347289  1
  Te  Te72  1  0.10506553  0.09477136  0.08205093  1
  Te  Te73  1  0.05156340  0.07217733  0.39180260  1
  Te  Te74  1  0.10165169  0.08821408  0.76751551  1
  Te  Te75  1  0.08905378  0.39357799  0.08502449  1
  Te  Te76  1  0.06114969  0.41575471  0.43956547  1
  Te  Te77  1  0.05798675  0.39261636  0.72782485  1
  Te  Te78  1  0.06516727  0.75973422  0.06534818  1
  Te  Te79  1  0.09275984  0.75334064  0.40214034  1
  Te  Te80  1  0.07699344  0.75211094  0.73247702  1
  Te  Te81  1  0.43847727  0.09404496  0.09575702  1
  Te  Te82  1  0.45128347  0.03677229  0.42050629  1
  Te  Te83  1  0.41514507  0.09710146  0.77770194  1
  Te  Te84  1  0.45633711  0.40252865  0.04303442  1
  Te  Te85  1  0.43278304  0.42238088  0.43302445  1
  Te  Te86  1  0.44053877  0.40672338  0.74797354  1
  Te  Te87  1  0.38487853  0.75199726  0.07481561  1
  Te  Te88  1  0.42191196  0.74998924  0.42276742  1
  Te  Te89  1  0.43691093  0.74236990  0.76197901  1
  Te  Te90  1  0.74237141  0.13218314  0.04416411  1
  Te  Te91  1  0.74206582  0.07458957  0.41527781  1
  Te  Te92  1  0.76256895  0.09956193  0.74463818  1
  Te  Te93  1  0.75371033  0.40831138  0.07426979  1
  Te  Te94  1  0.72629247  0.41058360  0.42830353  1
  Te  Te95  1  0.71098476  0.44216214  0.77309475  1
  Te  Te96  1  0.71913375  0.73411858  0.06038179  1
  Te  Te97  1  0.75176710  0.75043748  0.42920067  1
  Te  Te98  1  0.76719124  0.73957308  0.77040409  1
  Te  Te99  1  0.10682375  0.25106522  0.25243700  1
  Te  Te100  1  0.03808785  0.26598152  0.61693660  1
  Te  Te101  1  0.07016016  0.26278501  0.91941552  1
  Te  Te102  1  0.08782765  0.58222078  0.25570947  1
  Te  Te103  1  0.07908848  0.57112620  0.60408855  1
  Te  Te104  1  0.08878581  0.57985279  0.88766894  1
  Te  Te105  1  0.10903183  0.95637637  0.28147777  1
  Te  Te106  1  0.09032428  0.92568990  0.56992906  1
  Te  Te107  1  0.09183179  0.91316315  0.90142697  1
  Te  Te108  1  0.42586829  0.25518153  0.26419775  1
  Te  Te109  1  0.40993174  0.22933470  0.56049106  1
  Te  Te110  1  0.41068167  0.21748256  0.87464768  1
  Te  Te111  1  0.39362913  0.57450645  0.24374904  1
  Te  Te112  1  0.43824441  0.57357614  0.61695301  1
  Te  Te113  1  0.44079827  0.57632362  0.90158713  1
  Te  Te114  1  0.45927145  0.89168694  0.26212704  1
  Te  Te115  1  0.43454266  0.90367244  0.59152921  1
  Te  Te116  1  0.41500737  0.92398849  0.92333813  1
  Te  Te117  1  0.72716472  0.24188756  0.26312764  1
  Te  Te118  1  0.74658632  0.27855672  0.60005219  1
  Te  Te119  1  0.78722120  0.22838222  0.92813563  1
  Te  Te120  1  0.73883007  0.59128226  0.25151918  1
  Te  Te121  1  0.75652464  0.55871357  0.57643113  1
  Te  Te122  1  0.69437450  0.56076296  0.89919052  1
  Te  Te123  1  0.73956311  0.92742380  0.23651339  1
  Te  Te124  1  0.73449193  0.93076071  0.58897281  1
  Te  Te125  1  0.73970604  0.91875805  0.91503351  1
  Te  Te126  1  0.29941474  0.26180830  0.03901322  1
  Te  Te127  1  0.23876179  0.25265674  0.43080239  1
  Te  Te128  1  0.25229549  0.25990769  0.74954329  1
  Te  Te129  1  0.24285708  0.57411766  0.08336034  1
  Te  Te130  1  0.24550586  0.57156957  0.40947535  1
  Te  Te131  1  0.23799028  0.56166204  0.75770223  1
  Te  Te132  1  0.24263752  0.94048487  0.08194539  1
  Te  Te133  1  0.25004661  0.91276250  0.38580692  1
  Te  Te134  1  0.26036234  0.91778615  0.74708595  1
  Te  Te135  1  0.61560405  0.23656012  0.07071582  1
  Te  Te136  1  0.57487710  0.25754816  0.43621042  1
  Te  Te137  1  0.59597444  0.27108419  0.73256836  1
  Te  Te138  1  0.54965376  0.56996884  0.07446513  1
  Te  Te139  1  0.59397072  0.58236112  0.43076402  1
  Te  Te140  1  0.60386817  0.55460810  0.76371665  1
  Te  Te141  1  0.59622899  0.94114990  0.07353328  1
  Te  Te142  1  0.56505866  0.92884625  0.39082442  1
  Te  Te143  1  0.56064697  0.90561094  0.75171572  1
  Te  Te144  1  0.92435224  0.24777259  0.09435535  1
  Te  Te145  1  0.89923352  0.26283701  0.43461436  1
  Te  Te146  1  0.87249156  0.28819960  0.80384406  1
  Te  Te147  1  0.89313114  0.56496877  0.08243433  1
  Te  Te148  1  0.91598518  0.56977969  0.43366083  1
  Te  Te149  1  0.89166212  0.54644818  0.75963171  1
  Te  Te150  1  0.90301782  0.91540977  0.07826033  1
  Te  Te151  1  0.92063070  0.89902365  0.39703019  1
  Te  Te152  1  0.92878097  0.91622788  0.73614069  1
  Te  Te153  1  0.29034198  0.07707077  0.25356994  1
  Te  Te154  1  0.24852900  0.08109418  0.58439976  1
  Te  Te155  1  0.25616081  0.14935508  0.94373298  1
  Te  Te156  1  0.25432475  0.40381239  0.23270647  1
  Te  Te157  1  0.24841398  0.42978787  0.59470588  1
  Te  Te158  1  0.26344905  0.40067452  0.92941183  1
  Te  Te159  1  0.24457692  0.76893275  0.23367452  1
  Te  Te160  1  0.26595290  0.73229670  0.57623985  1
  Te  Te161  1  0.23084024  0.72846746  0.89759665  1
  Te  Te162  1  0.61597371  0.11094188  0.24472458  1
  Te  Te163  1  0.57750719  0.08304465  0.58450513  1
  Te  Te164  1  0.58686357  0.08546184  0.89261347  1
  Te  Te165  1  0.58398379  0.41744894  0.24586740  1
  Te  Te166  1  0.55362100  0.39005594  0.63277119  1
  Te  Te167  1  0.62877733  0.41495370  0.90102687  1
  Te  Te168  1  0.58588391  0.73719503  0.25732623  1
  Te  Te169  1  0.61118662  0.74607431  0.59502476  1
  Te  Te170  1  0.55992548  0.74121949  0.91858372  1
  Te  Te171  1  0.90094868  0.07102044  0.23835049  1
  Te  Te172  1  0.90362062  0.09187830  0.57684222  1
  Te  Te173  1  0.93472972  0.07727167  0.91699426  1
  Te  Te174  1  0.91702986  0.42110136  0.25636932  1
  Te  Te175  1  0.92556954  0.43718197  0.65512737  1
  Te  Te176  1  0.93000846  0.46655986  0.89896588  1
  Te  Te177  1  0.92805587  0.75392452  0.22976442  1
  Te  Te178  1  0.90204049  0.73429096  0.57795182  1
  Te  Te179  1  0.90330075  0.71177439  0.91588074  1
