# generated using pymatgen
data_In2Te3
_symmetry_space_group_name_H-M   'P 1'
_cell_length_a   18.75684097
_cell_length_b   18.75191964
_cell_length_c   18.74271057
_cell_angle_alpha   89.99380210
_cell_angle_beta   89.95889995
_cell_angle_gamma   89.97181244
_symmetry_Int_Tables_number   1
_chemical_formula_structural   In2Te3
_chemical_formula_sum   'In72 Te108'
_cell_volume   6592.31060645
_cell_formula_units_Z   36
loop_
 _symmetry_equiv_pos_site_id
 _symmetry_equiv_pos_as_xyz
  1  'x, y, z'
loop_
 _atom_site_type_symbol
 _atom_site_label
 _atom_site_symmetry_multiplicity
 _atom_site_fract_x
 _atom_site_fract_y
 _atom_site_fract_z
 _atom_site_occupancy
  In  In0  1  0.50742191  0.48859008  0.32736699  1
  In  In1  1  0.51093918  0.65627133  0.47622147  1
  In  In2  1  0.16597675  0.84101168  0.34496937  1
  In  In3  1  -0.00165198  0.66300059  0.67482578  1
  In  In4  1  0.35184148  0.17776704  0.82735395  1
  In  In5  1  0.83183815  0.15137532  0.68437871  1
  In  In6  1  0.64832065  0.32951638  0.66232856  1
  In  In7  1  0.16863099  0.50589130  -0.01895373  1
  In  In8  1  0.63417719  0.01940820  -0.01754988  1
  In  In9  1  0.65547746  -0.01844891  0.68620101  1
  In  In10  1  0.17369889  0.34811678  0.81944389  1
  In  In11  1  0.29520064  0.18063733  0.46277862  1
  In  In12  1  0.17097749  0.67017248  0.84830135  1
  In  In13  1  0.33844096  0.03179312  0.67230290  1
  In  In14  1  0.01467019  0.34407600  0.65215008  1
  In  In15  1  0.33215368  0.84776521  0.15888193  1
  In  In16  1  0.51140348  0.67081702  0.16330852  1
  In  In17  1  0.18216806  0.18532966  0.01321609  1
  In  In18  1  0.49028662  0.00499948  0.48857491  1
  In  In19  1  0.66657299  0.66304567  -0.00254748  1
  In  In20  1  0.80108815  0.36158233  0.46670636  1
  In  In21  1  0.34724896  0.45368762  0.15976026  1
  In  In22  1  0.18171054  0.31735208  0.17334789  1
  In  In23  1  0.84006952  0.80315307  -0.00722351  1
  In  In24  1  0.66065068  0.83959579  0.50023742  1
  In  In25  1  0.82190652  -0.00268798  0.16573726  1
  In  In26  1  0.84089670  0.81881582  0.31736449  1
  In  In27  1  0.65531974  0.17813657  0.49727944  1
  In  In28  1  0.50381047  0.33765526  0.85444941  1
  In  In29  1  0.81700602  0.34019385  0.85973444  1
  In  In30  1  0.35598372  -0.01594976  -0.00546823  1
  In  In31  1  0.66004888  0.83002843  0.16178655  1
  In  In32  1  0.01807095  0.00807184  0.00410750  1
  In  In33  1  0.70507290  0.68895834  0.68680461  1
  In  In34  1  0.32523358  0.48206863  0.48878193  1
  In  In35  1  0.48715155  0.00426710  0.17156168  1
  In  In36  1  0.83921737  0.50384950  0.67077881  1
  In  In37  1  0.50007940  0.34549550  0.50229325  1
  In  In38  1  0.49262988  0.19387229  0.30322920  1
  In  In39  1  0.83913565  0.17609967  0.34765189  1
  In  In40  1  0.67672029  0.50799638  0.18787828  1
  In  In41  1  0.01426947  0.16783349  0.48477403  1
  In  In42  1  0.14482629  0.65926251  0.16255465  1
  In  In43  1  0.33874582  0.66736254  0.35434921  1
  In  In44  1  -0.00257617  0.15034699  0.82904322  1
  In  In45  1  0.50351969  0.67045233  0.84493823  1
  In  In46  1  0.50568504  0.82902341  0.69442923  1
  In  In47  1  0.81581722  -0.00622201  0.50153184  1
  In  In48  1  0.16255689  0.85469392  0.65705446  1
  In  In49  1  -0.01490646  0.33663254  0.01106425  1
  In  In50  1  0.48185033  0.16996169  0.69622889  1
  In  In51  1  0.65582306  0.33508663  0.00171027  1
  In  In52  1  0.32402971  0.84205597  0.48958632  1
  In  In53  1  0.51626080  0.49993302  0.66839779  1
  In  In54  1  0.85160430  0.63004847  0.46987990  1
  In  In55  1  0.00261362  0.80912649  0.17467610  1
  In  In56  1  0.17558172  0.48864783  0.63178411  1
  In  In57  1  0.02104182  -0.00820496  0.33005754  1
  In  In58  1  0.00358041  -0.02910670  0.67223331  1
  In  In59  1  0.01915711  0.19427869  0.17693639  1
  In  In60  1  -0.02021289  0.50338614  0.16752193  1
  In  In61  1  0.31237948  0.34648559  0.64623662  1
  In  In62  1  0.15571277  0.66963176  0.48579095  1
  In  In63  1  0.01442735  0.81810069  0.52197034  1
  In  In64  1  0.32984500  0.67238478  -0.00737177  1
  In  In65  1  0.85924124  0.33627388  0.18603451  1
  In  In66  1  0.83915824  -0.01770435  0.83986353  1
  In  In67  1  0.65722584  0.18347587  0.16617327  1
  In  In68  1  0.83456756  0.52134177  -0.00240153  1
  In  In69  1  0.36492456  0.68123914  0.68613757  1
  In  In70  1  0.14975654  -0.00666195  0.83918979  1
  In  In71  1  0.31916614  0.50074461  0.85207509  1
  Te  Te72  1  0.10254878  0.08867834  0.10261081  1
  Te  Te73  1  0.11271227  0.09857657  0.38728558  1
  Te  Te74  1  0.09025969  0.08355897  0.72937930  1
  Te  Te75  1  0.08987743  0.41596295  0.08908670  1
  Te  Te76  1  0.09005666  0.44780135  0.47065102  1
  Te  Te77  1  0.08049437  0.44484788  0.74827106  1
  Te  Te78  1  0.08435293  0.75067440  0.06375361  1
  Te  Te79  1  0.05772601  0.74327644  0.39553100  1
  Te  Te80  1  0.08873132  0.75991915  0.75124806  1
  Te  Te81  1  0.40718395  0.09274531  0.08226352  1
  Te  Te82  1  0.41325729  0.10351316  0.39995802  1
  Te  Te83  1  0.44645816  0.04923599  0.79176148  1
  Te  Te84  1  0.44341430  0.37572382  0.07937032  1
  Te  Te85  1  0.40436135  0.39359120  0.39434230  1
  Te  Te86  1  0.41061949  0.41567222  0.74331016  1
  Te  Te87  1  0.42605870  0.75962723  0.07322219  1
  Te  Te88  1  0.43556471  0.77222346  0.40849591  1
  Te  Te89  1  0.39413134  0.77932217  0.80106028  1
  Te  Te90  1  0.73756923  0.08807489  0.07792676  1
  Te  Te91  1  0.73385443  0.08134683  0.40776453  1
  Te  Te92  1  0.73590469  0.07945712  0.77505128  1
  Te  Te93  1  0.76756066  0.41388361  0.08773187  1
  Te  Te94  1  0.73934760  0.45762190  0.36945489  1
  Te  Te95  1  0.73996250  0.41589631  0.75036800  1
  Te  Te96  1  0.75821851  0.73026061  0.10059274  1
  Te  Te97  1  0.75651919  0.74654160  0.42315638  1
  Te  Te98  1  0.78175713  0.76964925  0.78590809  1
  Te  Te99  1  0.08703540  0.27374782  0.28485855  1
  Te  Te100  1  0.09499984  0.23617178  0.58924616  1
  Te  Te101  1  0.07779151  0.25405892  0.91232857  1
  Te  Te102  1  0.07554592  0.57292917  0.26223868  1
  Te  Te103  1  0.06019991  0.57144922  0.56613363  1
  Te  Te104  1  0.06777808  0.59850157  0.92785934  1
  Te  Te105  1  0.10236153  0.91665785  0.22496238  1
  Te  Te106  1  0.09922674  0.94148930  0.54947519  1
  Te  Te107  1  0.05710723  0.90207640  0.90868618  1
  Te  Te108  1  0.40101779  0.26905631  0.21265788  1
  Te  Te109  1  0.41386342  0.24466653  0.57765835  1
  Te  Te110  1  0.40674805  0.26041816  0.93827515  1
  Te  Te111  1  0.40775538  0.58265925  0.24614231  1
  Te  Te112  1  0.41146551  0.57770328  0.57239762  1
  Te  Te113  1  0.42791663  0.56761341  0.93261964  1
  Te  Te114  1  0.41161738  0.91482411  0.26421608  1
  Te  Te115  1  0.42001681  0.91056345  0.59599550  1
  Te  Te116  1  0.42891526  0.89770468  0.90048170  1
  Te  Te117  1  0.74762433  0.26369537  0.26183936  1
  Te  Te118  1  0.76340613  0.24887976  0.58206614  1
  Te  Te119  1  0.74281679  0.23619874  0.93090923  1
  Te  Te120  1  0.77124233  0.57694422  0.27788669  1
  Te  Te121  1  0.74844933  0.58751680  0.58022453  1
  Te  Te122  1  0.74678150  0.58610877  0.89744876  1
  Te  Te123  1  0.73749948  0.91856803  0.26325817  1
  Te  Te124  1  0.75662756  0.89938798  0.60506019  1
  Te  Te125  1  0.74898344  0.91632745  0.94436926  1
  Te  Te126  1  0.28009575  0.20864829  0.12945528  1
  Te  Te127  1  0.23106543  0.26862227  0.36192922  1
  Te  Te128  1  0.24453981  0.24197699  0.73610126  1
  Te  Te129  1  0.25917529  0.57197609  0.08895932  1
  Te  Te130  1  0.23192131  0.56744334  0.40049128  1
  Te  Te131  1  0.25194844  0.58058231  0.73931549  1
  Te  Te132  1  0.24249460  0.92597830  0.07087241  1
  Te  Te133  1  0.26635712  0.94540868  0.39425157  1
  Te  Te134  1  0.25723402  0.92690919  0.75115779  1
  Te  Te135  1  0.55407798  0.25689581  0.08403248  1
  Te  Te136  1  0.58779390  0.27134927  0.39989512  1
  Te  Te137  1  0.59445738  0.24009843  0.77343141  1
  Te  Te138  1  0.58172204  0.56473034  0.08003554  1
  Te  Te139  1  0.60799406  0.57624601  0.39783627  1
  Te  Te140  1  0.59911335  0.59410258  0.75228479  1
  Te  Te141  1  0.56812009  0.91588332  0.07549360  1
  Te  Te142  1  0.58064970  0.92146217  0.40727721  1
  Te  Te143  1  0.59715922  0.89389262  0.79289258  1
  Te  Te144  1  0.90467329  0.22960262  0.08046029  1
  Te  Te145  1  0.92697504  0.27544277  0.42119528  1
  Te  Te146  1  0.91699824  0.25966331  0.75295698  1
  Te  Te147  1  0.91953471  0.60974314  0.08315691  1
  Te  Te148  1  0.94917699  0.54796557  0.38948599  1
  Te  Te149  1  0.90727831  0.59181281  0.77122445  1
  Te  Te150  1  0.91777734  0.90963421  0.08484539  1
  Te  Te151  1  0.91806645  0.91385370  0.41926835  1
  Te  Te152  1  0.90797560  0.88554653  0.74709167  1
  Te  Te153  1  0.21576081  0.04874918  0.28678039  1
  Te  Te154  1  0.25010028  0.08393788  0.56666974  1
  Te  Te155  1  0.24657560  0.09176051  0.90978443  1
  Te  Te156  1  0.24644194  0.41810344  0.26457428  1
  Te  Te157  1  0.21189897  0.37456155  0.52644874  1
  Te  Te158  1  0.26046276  0.38894080  0.93947108  1
  Te  Te159  1  0.24858249  0.74341340  0.25433186  1
  Te  Te160  1  0.25177981  0.74086139  0.58426943  1
  Te  Te161  1  0.23499792  0.77121406  0.93592439  1
  Te  Te162  1  0.58799319  0.08275467  0.25723236  1
  Te  Te163  1  0.58078105  0.08574978  0.59416626  1
  Te  Te164  1  0.54349272  0.10352490  0.90261726  1
  Te  Te165  1  0.58053182  0.40425654  0.22998031  1
  Te  Te166  1  0.60628475  0.43753583  0.56071852  1
  Te  Te167  1  0.59929987  0.43613539  0.90831855  1
  Te  Te168  1  0.59192351  0.74353400  0.26216475  1
  Te  Te169  1  0.57868129  0.73577614  0.59383999  1
  Te  Te170  1  0.58955390  0.76542394  0.91978358  1
  Te  Te171  1  0.91869598  0.08468940  0.25069928  1
  Te  Te172  1  0.91773844  0.08060152  0.57890521  1
  Te  Te173  1  0.90701344  0.08585159  0.93214886  1
  Te  Te174  1  0.92344121  0.42787774  0.28841127  1
  Te  Te175  1  0.90826722  0.41491318  0.56740058  1
  Te  Te176  1  0.92847017  0.43250443  0.90853862  1
  Te  Te177  1  0.90703612  0.71231442  0.23681247  1
  Te  Te178  1  0.90299767  0.73558533  0.57977827  1
  Te  Te179  1  0.89359021  0.72040172  0.87984522  1
