# generated using pymatgen
data_In2Te3
_symmetry_space_group_name_H-M   'P 1'
_cell_length_a   18.98647617
_cell_length_b   19.00408637
_cell_length_c   18.99303876
_cell_angle_alpha   90.31198167
_cell_angle_beta   89.97394701
_cell_angle_gamma   90.02081332
_symmetry_Int_Tables_number   1
_chemical_formula_structural   In2Te3
_chemical_formula_sum   'In72 Te108'
_cell_volume   6852.97751810
_cell_formula_units_Z   36
loop_
 _symmetry_equiv_pos_site_id
 _symmetry_equiv_pos_as_xyz
  1  'x, y, z'
loop_
 _atom_site_type_symbol
 _atom_site_label
 _atom_site_symmetry_multiplicity
 _atom_site_fract_x
 _atom_site_fract_y
 _atom_site_fract_z
 _atom_site_occupancy
  In  In0  1  0.31444405  0.02216401  0.36236322  1
  In  In1  1  0.50113969  0.14779516  0.01164205  1
  In  In2  1  0.31468961  0.14851675  0.19965218  1
  In  In3  1  0.16010323  0.80869166  0.00699335  1
  In  In4  1  0.84601657  0.51754513  0.64721715  1
  In  In5  1  0.65508476  0.14711489  0.15313368  1
  In  In6  1  -0.00488880  0.49240942  0.16500484  1
  In  In7  1  0.67634491  0.00935753  0.38793291  1
  In  In8  1  0.53450486  0.49932001  -0.00276436  1
  In  In9  1  0.65299788  0.53027063  0.49043796  1
  In  In10  1  0.33473285  0.34506911  0.64737223  1
  In  In11  1  0.17243630  0.18692470  0.65258474  1
  In  In12  1  0.30157317  -0.02225843  -0.01311843  1
  In  In13  1  0.17038932  0.33899481  0.83174426  1
  In  In14  1  0.83807459  0.83060437  0.01480268  1
  In  In15  1  0.49309023  0.50463700  0.66652775  1
  In  In16  1  0.47312720  0.81624680  0.01068592  1
  In  In17  1  0.67087950  0.49613985  0.83501126  1
  In  In18  1  0.34115927  0.49601452  0.82326819  1
  In  In19  1  0.31068256  0.81925210  0.85510609  1
  In  In20  1  0.81840027  0.17259146  0.66032425  1
  In  In21  1  0.14985942  -0.00781074  0.48166748  1
  In  In22  1  0.65489433  0.83528178  0.84873309  1
  In  In23  1  0.00873016  0.66598250  0.33409964  1
  In  In24  1  0.82479122  0.85072007  0.33684433  1
  In  In25  1  0.52304016  0.75847526  0.34455196  1
  In  In26  1  0.82861200  0.33005936  0.52332749  1
  In  In27  1  0.68368729  0.50741215  0.18705880  1
  In  In28  1  0.16920044  0.33839392  0.49340287  1
  In  In29  1  -0.00382985  0.32124684  0.36261336  1
  In  In30  1  0.80902428  0.18690257  -0.04435520  1
  In  In31  1  -0.01006509  0.15327828  0.16331226  1
  In  In32  1  0.61621939  0.83339068  0.51406402  1
  In  In33  1  0.20421939  0.67142494  0.50035355  1
  In  In34  1  0.33884639  0.18032123  0.51441582  1
  In  In35  1  0.85258340  0.68371613  0.48856013  1
  In  In36  1  0.03744715  0.66816985  0.65038602  1
  In  In37  1  0.83867935  0.66899933  0.16997509  1
  In  In38  1  0.48846254  0.18005174  0.34540065  1
  In  In39  1  0.66932310  0.33411713  0.32600831  1
  In  In40  1  0.67370889  -0.01989656  0.00411825  1
  In  In41  1  0.14575848  0.19020558  0.01223226  1
  In  In42  1  0.35170861  0.12571581  0.81899472  1
  In  In43  1  -0.02017485  0.85871625  0.51035032  1
  In  In44  1  0.36554250  0.33647146  -0.01150616  1
  In  In45  1  0.84844165  0.49304218  0.32084524  1
  In  In46  1  0.17187384  0.33881808  0.17020397  1
  In  In47  1  0.36866664  0.67592192  0.65797232  1
  In  In48  1  0.47937099  -0.02775721  0.16985001  1
  In  In49  1  0.00678271  0.64890616  0.00436657  1
  In  In50  1  0.80183106  0.32490476  0.13542826  1
  In  In51  1  0.51274345  0.00747637  0.81128184  1
  In  In52  1  0.66404161  0.33812995  0.69875417  1
  In  In53  1  0.18009112  0.82601048  0.35846510  1
  In  In54  1  0.52377662  0.35435368  0.17398690  1
  In  In55  1  -0.00412574  0.33167548  0.67937399  1
  In  In56  1  0.81681018  0.86360700  0.68113329  1
  In  In57  1  0.16517308  0.15483166  0.35729879  1
  In  In58  1  -0.01074732  0.03058867  0.64745698  1
  In  In59  1  0.16439902  0.65630813  0.84951913  1
  In  In60  1  -0.00087236  0.82991819  0.81570464  1
  In  In61  1  0.50276678  0.64928337  0.83329135  1
  In  In62  1  0.32221930  0.55036949  0.16494987  1
  In  In63  1  0.84404159  -0.00802283  0.17818787  1
  In  In64  1  0.15757423  -0.00518303  0.80942186  1
  In  In65  1  0.35719525  0.38371541  0.35778682  1
  In  In66  1  0.32079742  0.79519595  0.20348945  1
  In  In67  1  -0.03007571  0.35842686  -0.02575653  1
  In  In68  1  0.82254447  0.65157343  0.81831606  1
  In  In69  1  0.38549989  -0.03952463  0.64391023  1
  In  In70  1  0.65468179  0.01119519  0.62571291  1
  In  In71  1  -0.02220396  0.01954253  -0.00948604  1
  Te  Te72  1  0.08901569  0.06973572  0.08251913  1
  Te  Te73  1  0.06273670  0.10467139  0.44804248  1
  Te  Te74  1  0.08092098  0.10604496  0.74409604  1
  Te  Te75  1  0.08102633  0.40757671  0.07275648  1
  Te  Te76  1  0.10035944  0.41845917  0.39032852  1
  Te  Te77  1  0.10383722  0.41703008  0.72973018  1
  Te  Te78  1  0.06613227  0.74432651  0.09806392  1
  Te  Te79  1  0.07040781  0.75373558  0.44542549  1
  Te  Te80  1  0.11356341  0.75772792  0.74881097  1
  Te  Te81  1  0.38957289  0.07041708  0.08381146  1
  Te  Te82  1  0.42959548  0.07444773  0.44399747  1
  Te  Te83  1  0.44310108  0.08826537  0.70260125  1
  Te  Te84  1  0.42312354  0.43346080  0.09177922  1
  Te  Te85  1  0.43477522  0.45100267  0.45824838  1
  Te  Te86  1  0.43260891  0.39801714  0.75539771  1
  Te  Te87  1  0.42825487  0.72632368  0.12237197  1
  Te  Te88  1  0.38457400  0.71939108  0.38487397  1
  Te  Te89  1  0.42462961  0.76371901  0.77287542  1
  Te  Te90  1  0.76712506  0.08175173  0.07090776  1
  Te  Te91  1  0.77342964  0.10328358  0.44624104  1
  Te  Te92  1  0.72550019  0.08211410  0.73559016  1
  Te  Te93  1  0.73036540  0.43175747  0.06968234  1
  Te  Te94  1  0.75457095  0.42822576  0.42225974  1
  Te  Te95  1  0.78691502  0.42116737  0.74964566  1
  Te  Te96  1  0.74621253  0.75648495  0.09823353  1
  Te  Te97  1  0.74417352  0.76465381  0.42777229  1
  Te  Te98  1  0.73559105  0.75408866  0.74655301  1
  Te  Te99  1  0.08918998  0.24055631  0.24952215  1
  Te  Te100  1  0.06934175  0.25015711  0.56426734  1
  Te  Te101  1  0.06698912  0.25744015  0.90552398  1
  Te  Te102  1  0.08217131  0.56037547  0.26123309  1
  Te  Te103  1  0.11335957  0.57654589  0.56623819  1
  Te  Te104  1  0.07433380  0.56040194  0.90991924  1
  Te  Te105  1  0.08735773  0.93426391  0.32301427  1
  Te  Te106  1  0.08377764  0.92161334  0.60103081  1
  Te  Te107  1  0.08643142  0.91363854  0.91582817  1
  Te  Te108  1  0.42341441  0.25311926  0.23011571  1
  Te  Te109  1  0.43717381  0.27160018  0.57254036  1
  Te  Te110  1  0.42975561  0.22679707  0.90373092  1
  Te  Te111  1  0.39631652  0.59633017  0.28603670  1
  Te  Te112  1  0.39504751  0.55754723  0.56513884  1
  Te  Te113  1  0.41866430  0.57231677  0.93037214  1
  Te  Te114  1  0.38258557  0.91837771  0.26894126  1
  Te  Te115  1  0.47404461  0.86610356  0.57109012  1
  Te  Te116  1  0.42884463  0.92962286  0.91840064  1
  Te  Te117  1  0.74503345  0.23243651  0.24101886  1
  Te  Te118  1  0.71365821  0.25257286  0.58265295  1
  Te  Te119  1  0.70998543  0.27578176  0.89240221  1
  Te  Te120  1  0.75535948  0.60437844  0.27986318  1
  Te  Te121  1  0.75100601  0.61008046  0.57588982  1
  Te  Te122  1  0.73950824  0.59233910  0.92169664  1
  Te  Te123  1  0.72982573  0.93677601  0.25758276  1
  Te  Te124  1  0.74674507  0.90854880  0.55825047  1
  Te  Te125  1  0.77010924  0.91489272  0.90778813  1
  Te  Te126  1  0.26717174  0.25305583  0.07922835  1
  Te  Te127  1  0.27329117  0.25470302  0.39752340  1
  Te  Te128  1  0.27077108  0.24177798  0.75557855  1
  Te  Te129  1  0.22930454  0.62111300  0.07992832  1
  Te  Te130  1  0.27166087  0.61056695  0.38117159  1
  Te  Te131  1  0.26645738  0.60235568  0.75028368  1
  Te  Te132  1  0.25385386  0.88940921  0.09687023  1
  Te  Te133  1  0.27238276  0.90708547  0.45052713  1
  Te  Te134  1  0.27701435  0.92447236  0.74997725  1
  Te  Te135  1  0.58746081  0.25650067  0.07436528  1
  Te  Te136  1  0.58459583  0.26128340  0.41956355  1
  Te  Te137  1  0.63222689  0.21662629  0.77729521  1
  Te  Te138  1  0.58422157  0.58764333  0.10707475  1
  Te  Te139  1  0.56416103  0.63671476  0.43413424  1
  Te  Te140  1  0.59941930  0.58731422  0.73647206  1
  Te  Te141  1  0.58177045  0.89691119  0.08807814  1
  Te  Te142  1  0.56897209  0.89534989  0.38345143  1
  Te  Te143  1  0.59649740  0.91188134  0.73255184  1
  Te  Te144  1  0.91406529  0.24079760  0.06574181  1
  Te  Te145  1  0.88173363  0.24594344  0.41276789  1
  Te  Te146  1  0.90513595  0.24543274  0.75532671  1
  Te  Te147  1  0.89945247  0.56671952  0.07590102  1
  Te  Te148  1  0.93008829  0.57102492  0.42366056  1
  Te  Te149  1  0.93976809  0.59249316  0.74004052  1
  Te  Te150  1  0.94002841  0.91268451  0.09173994  1
  Te  Te151  1  0.93826869  0.93425677  0.38965716  1
  Te  Te152  1  0.92126971  0.94415658  0.75517545  1
  Te  Te153  1  0.21087809  0.05068967  0.25380834  1
  Te  Te154  1  0.24829609  0.08022997  0.58038033  1
  Te  Te155  1  0.23339289  0.09350650  0.91456406  1
  Te  Te156  1  0.26521627  0.42964775  0.24430745  1
  Te  Te157  1  0.24939794  0.43492546  0.57016721  1
  Te  Te158  1  0.25646043  0.42147536  0.92621157  1
  Te  Te159  1  0.20307491  0.72198588  0.25463847  1
  Te  Te160  1  0.27513987  0.76386655  0.58879894  1
  Te  Te161  1  0.27138206  0.71328688  0.96158080  1
  Te  Te162  1  0.55428335  0.08198283  0.24380754  1
  Te  Te163  1  0.59524445  0.06820235  0.50293677  1
  Te  Te164  1  0.59748532  0.07698988  0.91786743  1
  Te  Te165  1  0.57762406  0.44642339  0.28086984  1
  Te  Te166  1  0.60208987  0.43030442  0.59107665  1
  Te  Te167  1  0.58442994  0.39646840  0.90265595  1
  Te  Te168  1  0.55751891  0.71686299  0.20689845  1
  Te  Te169  1  0.53739107  0.71646023  0.56419905  1
  Te  Te170  1  0.57804307  0.73714147  0.93338285  1
  Te  Te171  1  0.91631520  0.08316522  0.26678916  1
  Te  Te172  1  0.87712264  0.07543325  0.55903319  1
  Te  Te173  1  0.91015360  0.10140235  0.89112064  1
  Te  Te174  1  0.91123520  0.38340887  0.23594074  1
  Te  Te175  1  0.93735038  0.42350127  0.57169426  1
  Te  Te176  1  0.87884391  0.40833048  0.87473389  1
  Te  Te177  1  0.92155311  0.76170069  0.25715844  1
  Te  Te178  1  0.91421080  0.76140160  0.61113403  1
  Te  Te179  1  0.91745900  0.74505069  0.90879060  1
