# generated using pymatgen
data_In2Te3
_symmetry_space_group_name_H-M   'P 1'
_cell_length_a   18.75084005
_cell_length_b   18.75220708
_cell_length_c   18.74443236
_cell_angle_alpha   89.95195881
_cell_angle_beta   89.98287483
_cell_angle_gamma   89.94474078
_symmetry_Int_Tables_number   1
_chemical_formula_structural   In2Te3
_chemical_formula_sum   'In72 Te108'
_cell_volume   6590.90480084
_cell_formula_units_Z   36
loop_
 _symmetry_equiv_pos_site_id
 _symmetry_equiv_pos_as_xyz
  1  'x, y, z'
loop_
 _atom_site_type_symbol
 _atom_site_label
 _atom_site_symmetry_multiplicity
 _atom_site_fract_x
 _atom_site_fract_y
 _atom_site_fract_z
 _atom_site_occupancy
  In  In0  1  0.83868097  -0.01762740  0.51547583  1
  In  In1  1  0.32302608  0.16970366  0.16394387  1
  In  In2  1  0.82121131  0.80044391  0.68828975  1
  In  In3  1  0.18209307  0.33440494  0.84960836  1
  In  In4  1  0.48783935  -0.02375807  0.18286636  1
  In  In5  1  0.50205282  0.52409732  0.00523589  1
  In  In6  1  0.17105907  0.65845091  0.85000749  1
  In  In7  1  0.01334498  0.17137879  0.82122593  1
  In  In8  1  -0.00195793  0.64864584  0.29577360  1
  In  In9  1  0.48535274  0.01144507  0.49262501  1
  In  In10  1  0.17301855  -0.01118660  0.15887159  1
  In  In11  1  0.83818026  0.78263513  0.34204196  1
  In  In12  1  0.03248627  0.00013828  -0.01066936  1
  In  In13  1  0.16731752  0.50522688  0.67037307  1
  In  In14  1  -0.00819526  0.37886110  0.02707489  1
  In  In15  1  0.66811490  0.00465002  0.00264918  1
  In  In16  1  0.33515918  0.66579428  0.00690748  1
  In  In17  1  0.50602689  0.16766105  0.67482328  1
  In  In18  1  0.64825624  0.35650368  0.31631101  1
  In  In19  1  0.49646416  0.33630148  0.16307880  1
  In  In20  1  0.49137689  0.34979589  0.48288356  1
  In  In21  1  0.68276923  0.19243536  0.84960411  1
  In  In22  1  0.51198364  0.78498790  -0.00727494  1
  In  In23  1  0.81427951  0.63522276  0.84692232  1
  In  In24  1  0.65207384  0.50418763  0.84205198  1
  In  In25  1  0.17077513  0.18780479  0.31835178  1
  In  In26  1  0.02779815  0.18364148  0.49268486  1
  In  In27  1  0.82194128  0.34830447  0.48259678  1
  In  In28  1  0.18844276  0.84049465  0.34254433  1
  In  In29  1  0.01526383  0.83505563  0.85287397  1
  In  In30  1  0.81412924  0.66796233  0.46636351  1
  In  In31  1  0.34818963  0.64457792  0.32039048  1
  In  In32  1  -0.04431144  0.64410843  0.69034886  1
  In  In33  1  0.65807268  0.19275546  0.16842272  1
  In  In34  1  0.00653973  0.64449542  0.01611479  1
  In  In35  1  0.80585505  0.18100682  0.32185644  1
  In  In36  1  0.81066297  0.64418873  0.17383652  1
  In  In37  1  0.00295297  0.36204587  0.30266679  1
  In  In38  1  0.34233830  0.67105963  0.67015280  1
  In  In39  1  0.49310445  0.20256632  0.00811446  1
  In  In40  1  0.01702864  0.00711360  0.32211683  1
  In  In41  1  0.17625269  0.16475557  0.00296439  1
  In  In42  1  0.82614745  0.83060264  0.01397574  1
  In  In43  1  0.18194110  0.82947328  0.67813920  1
  In  In44  1  0.65199124  0.65736312  0.66034095  1
  In  In45  1  0.33127670  0.34683066  -0.00519265  1
  In  In46  1  0.01462697  0.84091875  0.50427649  1
  In  In47  1  0.16209216  0.65691860  0.15709688  1
  In  In48  1  0.31553222  0.36579408  0.30387354  1
  In  In49  1  0.48857202  0.48544961  0.66980675  1
  In  In50  1  0.33091979  0.34450992  0.68059538  1
  In  In51  1  0.33391373  -0.00542799  0.66802059  1
  In  In52  1  0.64752093  0.18265451  0.51561032  1
  In  In53  1  0.68644996  0.81685531  0.50702657  1
  In  In54  1  0.03070760  -0.00892488  0.66950352  1
  In  In55  1  0.18066177  0.65877647  0.48902099  1
  In  In56  1  -0.00258172  0.31660834  0.66767309  1
  In  In57  1  0.82537902  0.00360740  0.83255275  1
  In  In58  1  0.00663288  0.49759407  0.47890281  1
  In  In59  1  0.84050249  0.52841954  0.68830165  1
  In  In60  1  0.84470204  0.20843345  0.00010839  1
  In  In61  1  0.65677083  0.79461281  0.17783644  1
  In  In62  1  0.65219174  0.33517071  0.66642021  1
  In  In63  1  0.32166341  -0.00985965  -0.00168244  1
  In  In64  1  0.32552236  0.15103054  0.48641775  1
  In  In65  1  0.49520640  0.82874637  0.67561370  1
  In  In66  1  0.49319004  -0.00960570  0.82664299  1
  In  In67  1  0.66597643  -0.00111547  0.32015082  1
  In  In68  1  0.85578185  0.16424267  0.69743413  1
  In  In69  1  0.32960937  0.50254344  0.48566124  1
  In  In70  1  0.85248951  -0.00152097  0.16743137  1
  In  In71  1  0.49491834  0.81420889  0.32500682  1
  Te  Te72  1  0.07960411  0.09411138  0.09929362  1
  Te  Te73  1  0.11078429  0.08132247  0.41582939  1
  Te  Te74  1  0.10863462  0.07608970  0.76086879  1
  Te  Te75  1  0.10178668  0.44121733  0.10989369  1
  Te  Te76  1  0.09334843  0.39758885  0.41460673  1
  Te  Te77  1  0.08483454  0.41053363  0.75434568  1
  Te  Te78  1  0.09223664  0.75333596  0.06766724  1
  Te  Te79  1  0.07335404  0.73573242  0.40543455  1
  Te  Te80  1  0.07409590  0.74006686  0.74269926  1
  Te  Te81  1  0.42488109  0.08552443  0.08362465  1
  Te  Te82  1  0.41403269  0.08585390  0.38783676  1
  Te  Te83  1  0.40450937  0.09632256  0.76217186  1
  Te  Te84  1  0.40439549  0.43553119  0.09446012  1
  Te  Te85  1  0.42770323  0.44375035  0.38260466  1
  Te  Te86  1  0.41567546  0.41568047  0.77771168  1
  Te  Te87  1  0.41726373  0.75042421  0.10286098  1
  Te  Te88  1  0.41789322  0.73052887  0.41940969  1
  Te  Te89  1  0.41532482  0.74892961  0.77239986  1
  Te  Te90  1  0.75576786  0.09430751  0.09062440  1
  Te  Te91  1  0.75094787  0.07975065  0.42711025  1
  Te  Te92  1  0.73196906  0.08884674  0.74628212  1
  Te  Te93  1  0.80168803  0.44107455  0.11150370  1
  Te  Te94  1  0.73185535  0.44190301  0.40843740  1
  Te  Te95  1  0.74478137  0.42044651  0.74896469  1
  Te  Te96  1  0.73154753  0.72181545  0.06286824  1
  Te  Te97  1  0.69085213  0.72646248  0.37566576  1
  Te  Te98  1  0.71376482  0.73957275  0.78046616  1
  Te  Te99  1  0.07617655  0.25657441  0.22666932  1
  Te  Te100  1  0.10863723  0.24529194  0.59927518  1
  Te  Te101  1  0.07190432  0.25808058  0.93408694  1
  Te  Te102  1  0.08208708  0.54162094  0.23063918  1
  Te  Te103  1  0.07449569  0.59514481  0.58475749  1
  Te  Te104  1  0.09577259  0.55813117  0.93184807  1
  Te  Te105  1  0.08350757  0.89543676  0.24416456  1
  Te  Te106  1  0.12480270  0.93138726  0.56128331  1
  Te  Te107  1  0.12409387  0.92168490  0.90298435  1
  Te  Te108  1  0.41106883  0.25301470  0.25774330  1
  Te  Te109  1  0.42087589  0.25324045  0.57881019  1
  Te  Te110  1  0.39716535  0.24743606  0.90610524  1
  Te  Te111  1  0.43958043  0.57726508  0.22332722  1
  Te  Te112  1  0.42362070  0.58488774  0.57162466  1
  Te  Te113  1  0.42424416  0.60194744  0.90503926  1
  Te  Te114  1  0.39241178  0.90621783  0.26964535  1
  Te  Te115  1  0.40984573  0.90496030  0.57011329  1
  Te  Te116  1  0.42669412  0.90062462  0.92933430  1
  Te  Te117  1  0.75999206  0.29096620  0.22740131  1
  Te  Te118  1  0.76634346  0.24746138  0.58871158  1
  Te  Te119  1  0.75058648  0.29770672  0.92932978  1
  Te  Te120  1  0.72105904  0.57667091  0.27582018  1
  Te  Te121  1  0.74906468  0.57806032  0.57530986  1
  Te  Te122  1  0.74657352  0.55196969  0.94839299  1
  Te  Te123  1  0.75729888  0.90334695  0.24251579  1
  Te  Te124  1  0.74443689  0.91249011  0.61303459  1
  Te  Te125  1  0.73899214  0.90514036  0.91094674  1
  Te  Te126  1  0.23739211  0.27181556  0.09285833  1
  Te  Te127  1  0.25853115  0.27099884  0.41141043  1
  Te  Te128  1  0.23668697  0.24784626  0.74233533  1
  Te  Te129  1  0.25630112  0.56323678  0.08659231  1
  Te  Te130  1  0.22872877  0.56030532  0.38659706  1
  Te  Te131  1  0.26690752  0.57401740  0.76180581  1
  Te  Te132  1  0.25595263  0.89138430  0.08560750  1
  Te  Te133  1  0.23603684  0.92835459  0.44798739  1
  Te  Te134  1  0.26516569  0.90816275  0.76967120  1
  Te  Te135  1  0.60624000  0.29047492  0.06256383  1
  Te  Te136  1  0.57518534  0.24749115  0.40124796  1
  Te  Te137  1  0.56921135  0.26577250  0.77320916  1
  Te  Te138  1  0.58753360  0.57754038  0.11704969  1
  Te  Te139  1  0.62592164  0.58808950  0.39300353  1
  Te  Te140  1  0.55632214  0.59126911  0.75821239  1
  Te  Te141  1  0.58795212  0.90597849  0.08836033  1
  Te  Te142  1  0.58947068  0.91275123  0.42057330  1
  Te  Te143  1  0.59221314  0.91516891  0.74825166  1
  Te  Te144  1  0.93464048  0.26263122  0.10384280  1
  Te  Te145  1  0.91731371  0.25277317  0.40948825  1
  Te  Te146  1  0.90409144  0.27684298  0.78552818  1
  Te  Te147  1  0.90536969  0.55205778  0.09332006  1
  Te  Te148  1  0.90635487  0.56892379  0.38902717  1
  Te  Te149  1  0.93955782  0.54131861  0.81140287  1
  Te  Te150  1  0.93978831  0.91151300  0.07695794  1
  Te  Te151  1  0.91321376  0.91673128  0.39906472  1
  Te  Te152  1  0.91971978  0.91368339  0.74520856  1
  Te  Te153  1  0.25455878  0.07162602  0.25824406  1
  Te  Te154  1  0.24889147  0.09735638  0.59992676  1
  Te  Te155  1  0.25986215  0.08942205  0.90802253  1
  Te  Te156  1  0.22485442  0.44072522  0.21028347  1
  Te  Te157  1  0.24278765  0.41420444  0.57384055  1
  Te  Te158  1  0.23883775  0.44650250  0.92992573  1
  Te  Te159  1  0.25486383  0.74127026  0.24734604  1
  Te  Te160  1  0.26338497  0.75665179  0.56880400  1
  Te  Te161  1  0.24257987  0.75785967  0.93170015  1
  Te  Te162  1  0.57241179  0.09333975  0.24539508  1
  Te  Te163  1  0.58696588  0.06623094  0.59357996  1
  Te  Te164  1  0.57773185  0.09545011  0.92022878  1
  Te  Te165  1  0.58747509  0.44943469  0.21341577  1
  Te  Te166  1  0.59048280  0.43152828  0.56560554  1
  Te  Te167  1  0.56844111  0.41423640  0.92764986  1
  Te  Te168  1  0.53537582  0.69818772  0.21086722  1
  Te  Te169  1  0.56762860  0.74232267  0.56686592  1
  Te  Te170  1  0.61903155  0.73210266  0.90846904  1
  Te  Te171  1  0.92176662  0.10476920  0.25196531  1
  Te  Te172  1  0.93082823  0.08601379  0.58146350  1
  Te  Te173  1  0.91467233  0.08520085  0.92513501  1
  Te  Te174  1  0.89391009  0.44076307  0.23018003  1
  Te  Te175  1  0.91664515  0.42223333  0.58514585  1
  Te  Te176  1  0.90760788  0.42675941  0.91591726  1
  Te  Te177  1  0.91764928  0.74960088  0.21518357  1
  Te  Te178  1  0.90792143  0.74780975  0.57139376  1
  Te  Te179  1  0.91214115  0.74053401  0.91471082  1
