# generated using pymatgen
data_In2Te3
_symmetry_space_group_name_H-M   'P 1'
_cell_length_a   18.79012992
_cell_length_b   18.78954786
_cell_length_c   18.79951091
_cell_angle_alpha   89.97593190
_cell_angle_beta   89.94059623
_cell_angle_gamma   89.98582066
_symmetry_Int_Tables_number   1
_chemical_formula_structural   In2Te3
_chemical_formula_sum   'In72 Te108'
_cell_volume   6637.31421999
_cell_formula_units_Z   36
loop_
 _symmetry_equiv_pos_site_id
 _symmetry_equiv_pos_as_xyz
  1  'x, y, z'
loop_
 _atom_site_type_symbol
 _atom_site_label
 _atom_site_symmetry_multiplicity
 _atom_site_fract_x
 _atom_site_fract_y
 _atom_site_fract_z
 _atom_site_occupancy
  In  In0  1  0.30796168  0.32991120  0.67691144  1
  In  In1  1  0.18297713  0.82854489  0.36993821  1
  In  In2  1  0.84422755  0.32593846  0.51509442  1
  In  In3  1  0.14814318  0.01464098  0.81631722  1
  In  In4  1  0.50959548  0.31849492  0.47520992  1
  In  In5  1  0.68572999  0.84671998  0.52121895  1
  In  In6  1  0.33036115  -0.00274365  0.67182885  1
  In  In7  1  -0.00354522  0.49742976  0.83073582  1
  In  In8  1  0.68479879  0.84993691  0.84625522  1
  In  In9  1  0.33757584  0.51247547  0.84189003  1
  In  In10  1  0.14332590  0.17643040  0.34442534  1
  In  In11  1  -0.03328191  0.19605036  0.15030336  1
  In  In12  1  0.67421894  0.33080104  -0.00662754  1
  In  In13  1  0.00371215  0.17002498  0.82352558  1
  In  In14  1  0.00750706  0.02238942  0.37564055  1
  In  In15  1  0.17408111  0.85140989  -0.01624806  1
  In  In16  1  0.13735304  0.46053298  0.34490088  1
  In  In17  1  0.14906584  0.68804727  0.82368862  1
  In  In18  1  0.49075475  0.15274254  0.67478261  1
  In  In19  1  0.51047647  0.67587519  0.13220922  1
  In  In20  1  0.66871218  0.49702804  0.17033053  1
  In  In21  1  0.51467633  0.67780378  0.84375369  1
  In  In22  1  -0.01843872  0.67143680  -0.02190996  1
  In  In23  1  0.34029075  0.33941230  0.01346933  1
  In  In24  1  0.67741513  0.18300896  0.49427527  1
  In  In25  1  0.35928380  0.83299799  0.16585711  1
  In  In26  1  0.49672186  0.83898235  0.33016258  1
  In  In27  1  0.12870500  0.86135439  0.67986685  1
  In  In28  1  0.52872327  0.32955686  0.83674088  1
  In  In29  1  0.70693211  0.48949706  0.49435243  1
  In  In30  1  0.35951068  0.20234074  0.18230742  1
  In  In31  1  -0.02040673  0.45060248  0.18230986  1
  In  In32  1  0.80259542  0.66601381  0.16516807  1
  In  In33  1  0.67912836  0.01732537  0.32119615  1
  In  In34  1  -0.01517358  -0.00027196  -0.00150499  1
  In  In35  1  0.14898780  0.00890046  0.17649284  1
  In  In36  1  0.67819792  0.64436610  0.31551129  1
  In  In37  1  -0.00568304  0.65568462  0.34648973  1
  In  In38  1  0.67335247  0.17156741  0.15956687  1
  In  In39  1  0.32023697  0.49573416  0.15536147  1
  In  In40  1  0.15315307  0.32713257  0.16519312  1
  In  In41  1  0.16613594  0.65249213  0.14614124  1
  In  In42  1  0.84388045  0.85182531  0.33834059  1
  In  In43  1  0.48376129  0.01787367  0.50092808  1
  In  In44  1  0.33283606  -0.01322042  0.32800932  1
  In  In45  1  0.34444916  -0.00098167  -0.02559983  1
  In  In46  1  0.82759033  0.00571975  0.14930533  1
  In  In47  1  0.52274508  0.81891636  0.68386731  1
  In  In48  1  0.84019643  0.66753365  0.51555470  1
  In  In49  1  0.51397673  0.50985399  0.67283681  1
  In  In50  1  0.14310846  0.48119198  0.65422560  1
  In  In51  1  0.29831479  0.85288231  0.50619762  1
  In  In52  1  -0.00652747  0.86281109  0.16067973  1
  In  In53  1  0.31469213  0.16617017  0.48967706  1
  In  In54  1  0.83223593  0.16509860  0.32964095  1
  In  In55  1  0.68222305  0.47416998  0.83608605  1
  In  In56  1  0.64141579  0.84512644  0.10934001  1
  In  In57  1  0.50670192  0.70325730  0.47903850  1
  In  In58  1  0.51592865  0.14541520  -0.01977743  1
  In  In59  1  0.51866420  0.48443351  0.32549555  1
  In  In60  1  0.16433925  0.31263584  0.84229007  1
  In  In61  1  0.33559662  0.47650585  0.51491630  1
  In  In62  1  0.69420869  0.32133293  0.66038559  1
  In  In63  1  0.84736361  0.32105282  0.82677852  1
  In  In64  1  0.30999881  0.16638821  0.82135095  1
  In  In65  1  0.82728271  0.66942270  0.82143236  1
  In  In66  1  0.31257593  0.63700091  0.31451685  1
  In  In67  1  0.70539348  0.01627903  0.71428580  1
  In  In68  1  0.35363361  0.67377067  0.68551276  1
  In  In69  1  0.84882666  0.49819105  -0.01037695  1
  In  In70  1  0.14683443  0.65262421  0.52274346  1
  In  In71  1  0.87294843  0.86508442  0.68699766  1
  Te  Te72  1  0.06743677  0.09651447  0.08331083  1
  Te  Te73  1  0.07114915  0.12413128  0.46846565  1
  Te  Te74  1  0.05612238  0.07596270  0.71051811  1
  Te  Te75  1  0.08596563  0.43063752  0.08376438  1
  Te  Te76  1  0.04485260  0.40547184  0.44818316  1
  Te  Te77  1  0.06861105  0.38872363  0.74845820  1
  Te  Te78  1  0.07657519  0.76261651  0.07635961  1
  Te  Te79  1  0.06789160  0.75335025  0.43877141  1
  Te  Te80  1  0.05480406  0.73783824  0.72112174  1
  Te  Te81  1  0.40518611  0.09795075  0.07423907  1
  Te  Te82  1  0.41660438  0.09963264  0.39358365  1
  Te  Te83  1  0.41843940  0.06543821  0.77739524  1
  Te  Te84  1  0.43022304  0.41200363  0.10452455  1
  Te  Te85  1  0.40802798  0.40634259  0.40099890  1
  Te  Te86  1  0.41967119  0.40722057  0.74837547  1
  Te  Te87  1  0.41233941  0.75571816  0.05096027  1
  Te  Te88  1  0.38401706  0.76235393  0.40664370  1
  Te  Te89  1  0.41160011  0.77615598  0.77997895  1
  Te  Te90  1  0.74797699  0.08882842  0.05640241  1
  Te  Te91  1  0.76609983  0.07111832  0.43115261  1
  Te  Te92  1  0.78572676  0.10677375  0.79684911  1
  Te  Te93  1  0.77547020  0.40201809  0.08579781  1
  Te  Te94  1  0.75199728  0.37894294  0.40922607  1
  Te  Te95  1  0.78051989  0.42499723  0.73146659  1
  Te  Te96  1  0.74490525  0.75114129  0.05823192  1
  Te  Te97  1  0.74390170  0.75214188  0.41083517  1
  Te  Te98  1  0.75409664  0.77197899  0.73496474  1
  Te  Te99  1  0.04952256  0.26369447  0.25926431  1
  Te  Te100  1  0.03076799  0.27701685  0.53866565  1
  Te  Te101  1  0.07882126  0.23444280  0.93389929  1
  Te  Te102  1  0.08551591  0.57382174  0.25167583  1
  Te  Te103  1  0.04149844  0.56427330  0.58184337  1
  Te  Te104  1  0.09037757  0.58232144  0.91745763  1
  Te  Te105  1  0.08324735  0.91327067  0.27679652  1
  Te  Te106  1  0.05847738  0.92666835  0.56596813  1
  Te  Te107  1  0.06101323  0.90714665  0.89401946  1
  Te  Te108  1  0.45194178  0.24960072  0.28536781  1
  Te  Te109  1  0.41482638  0.25169729  0.58625318  1
  Te  Te110  1  0.41237995  0.25006693  0.90286805  1
  Te  Te111  1  0.43889101  0.59204000  0.24462862  1
  Te  Te112  1  0.42218503  0.59027675  0.57136983  1
  Te  Te113  1  0.43762693  0.57901983  0.92551452  1
  Te  Te114  1  0.44379677  0.94247133  0.23063699  1
  Te  Te115  1  0.42704274  0.90037443  0.58630601  1
  Te  Te116  1  0.44958498  0.89688606  0.95690385  1
  Te  Te117  1  0.77554205  0.25646932  0.22894824  1
  Te  Te118  1  0.78174007  0.21039773  0.60349907  1
  Te  Te119  1  0.74077563  0.23940731  0.89486344  1
  Te  Te120  1  0.78787237  0.54597085  0.26510286  1
  Te  Te121  1  0.75116477  0.58173600  0.59870491  1
  Te  Te122  1  0.74615025  0.58508640  0.92178964  1
  Te  Te123  1  0.74003005  0.90371339  0.23540285  1
  Te  Te124  1  0.77339452  0.94538966  0.59735426  1
  Te  Te125  1  0.73182225  0.95782200  0.94062367  1
  Te  Te126  1  0.24704082  0.23993395  0.08211479  1
  Te  Te127  1  0.24217246  0.26632555  0.40918423  1
  Te  Te128  1  0.20872489  0.22426111  0.72170652  1
  Te  Te129  1  0.26998760  0.59574998  0.05954247  1
  Te  Te130  1  0.23432540  0.56667033  0.42795261  1
  Te  Te131  1  0.24809165  0.57013593  0.73151975  1
  Te  Te132  1  0.24997165  0.92907995  0.09367755  1
  Te  Te133  1  0.22441579  0.96403444  0.43355536  1
  Te  Te134  1  0.24702176  0.90853384  0.76427890  1
  Te  Te135  1  0.57108361  0.25229944  0.07376784  1
  Te  Te136  1  0.58550117  0.22815990  0.38251660  1
  Te  Te137  1  0.60108398  0.23164229  0.74699940  1
  Te  Te138  1  0.60991288  0.58600502  0.06943910  1
  Te  Te139  1  0.58704601  0.57603387  0.42840180  1
  Te  Te140  1  0.60765028  0.58860608  0.75847180  1
  Te  Te141  1  0.56010117  0.95469540  0.04837510  1
  Te  Te142  1  0.58501336  0.91967264  0.42590871  1
  Te  Te143  1  0.58278609  0.93636401  0.75682918  1
  Te  Te144  1  0.87824375  0.28116591  0.07133956  1
  Te  Te145  1  0.92713216  0.22494899  0.43221155  1
  Te  Te146  1  0.92768824  0.25033946  0.72328108  1
  Te  Te147  1  0.92321416  0.58631151  0.09366366  1
  Te  Te148  1  0.89713708  0.56857638  0.41672900  1
  Te  Te149  1  0.91582043  0.58152430  0.74125566  1
  Te  Te150  1  0.88824665  0.89617625  0.05813052  1
  Te  Te151  1  0.92582023  0.91652754  0.44445392  1
  Te  Te152  1  0.92701531  0.92846776  0.80985080  1
  Te  Te153  1  0.24941530  0.09705267  0.25021819  1
  Te  Te154  1  0.24315256  0.08535491  0.59224425  1
  Te  Te155  1  0.22919726  0.08694780  0.92328198  1
  Te  Te156  1  0.24969152  0.40554479  0.25538636  1
  Te  Te157  1  0.22300015  0.38605947  0.56288528  1
  Te  Te158  1  0.24680814  0.41663071  0.91971207  1
  Te  Te159  1  0.24247007  0.75977493  0.23824236  1
  Te  Te160  1  0.24350154  0.74640411  0.60119790  1
  Te  Te161  1  0.24966445  0.74541689  0.91410047  1
  Te  Te162  1  0.58134567  0.07845135  0.23168161  1
  Te  Te163  1  0.59406650  0.08255304  0.58416059  1
  Te  Te164  1  0.61754879  0.05349359  0.91774914  1
  Te  Te165  1  0.59630225  0.39112986  0.24264836  1
  Te  Te166  1  0.58341756  0.40516985  0.58440290  1
  Te  Te167  1  0.57225199  0.43368908  0.93616470  1
  Te  Te168  1  0.58903432  0.75239120  0.24428712  1
  Te  Te169  1  0.60704203  0.73362807  0.59045752  1
  Te  Te170  1  0.59945101  0.76253566  0.93313711  1
  Te  Te171  1  0.92770138  0.06660621  0.24745514  1
  Te  Te172  1  0.95770200  0.03438924  0.59970227  1
  Te  Te173  1  0.90341359  0.08148738  0.90161315  1
  Te  Te174  1  0.89288697  0.42756936  0.29753469  1
  Te  Te175  1  0.94138871  0.42596904  0.56840201  1
  Te  Te176  1  0.93959417  0.39237990  0.92773905  1
  Te  Te177  1  0.91545376  0.75009950  0.24364739  1
  Te  Te178  1  0.92781282  0.75483705  0.59931662  1
  Te  Te179  1  0.91159158  0.77145453  0.89335536  1
