# generated using pymatgen
data_In2Te3
_symmetry_space_group_name_H-M   'P 1'
_cell_length_a   18.94730940
_cell_length_b   18.97886590
_cell_length_c   18.94203779
_cell_angle_alpha   89.93573381
_cell_angle_beta   89.98088145
_cell_angle_gamma   90.10056575
_symmetry_Int_Tables_number   1
_chemical_formula_structural   In2Te3
_chemical_formula_sum   'In72 Te108'
_cell_volume   6811.51216137
_cell_formula_units_Z   36
loop_
 _symmetry_equiv_pos_site_id
 _symmetry_equiv_pos_as_xyz
  1  'x, y, z'
loop_
 _atom_site_type_symbol
 _atom_site_label
 _atom_site_symmetry_multiplicity
 _atom_site_fract_x
 _atom_site_fract_y
 _atom_site_fract_z
 _atom_site_occupancy
  In  In0  1  0.16602732  0.00027196  0.17000891  1
  In  In1  1  -0.01668895  0.66716435  0.67038358  1
  In  In2  1  0.32904828  0.01460623  0.66157111  1
  In  In3  1  -0.00395426  0.67642622  0.35284462  1
  In  In4  1  0.86228711  0.16378631  0.31575584  1
  In  In5  1  0.83823544  0.63696812  0.85264082  1
  In  In6  1  0.16735831  0.48876192  0.32083277  1
  In  In7  1  0.16825688  0.02897220  0.47850879  1
  In  In8  1  0.83556091  0.48892091  0.31982070  1
  In  In9  1  0.83784153  -0.02348532  0.48768918  1
  In  In10  1  0.47836966  0.51280558  0.32541134  1
  In  In11  1  0.32377970  0.64958764  0.02331185  1
  In  In12  1  0.82723910  0.81931473  0.32734859  1
  In  In13  1  0.47174639  0.50603642  0.66335158  1
  In  In14  1  0.90572626  0.42916453  0.12623004  1
  In  In15  1  0.66934625  0.65529905  0.67204639  1
  In  In16  1  0.67014945  0.01626529  0.02597758  1
  In  In17  1  0.52251798  0.83666420  0.67317284  1
  In  In18  1  0.83358945  -0.01875161  0.82774630  1
  In  In19  1  0.11651195  0.22275675  0.66762922  1
  In  In20  1  0.48930479  0.65892166  0.85521463  1
  In  In21  1  0.52224813  -0.00212354  0.48676399  1
  In  In22  1  0.05320307  0.34881221  -0.00902505  1
  In  In23  1  0.17555315  0.03936895  0.88425574  1
  In  In24  1  0.32460690  0.81774253  0.82159670  1
  In  In25  1  0.32481732  -0.00808201  0.31851180  1
  In  In26  1  0.69626872  -0.01030024  0.67212435  1
  In  In27  1  0.49622296  0.65247316  0.16401420  1
  In  In28  1  0.68636762  0.49655643  0.85553921  1
  In  In29  1  0.65173989  -0.02269458  0.33092611  1
  In  In30  1  0.01604862  0.18918900  0.85734816  1
  In  In31  1  0.16501899  0.32826626  0.17909131  1
  In  In32  1  0.36155723  0.81009537  0.47314790  1
  In  In33  1  0.29285299  0.36746674  -0.01283800  1
  In  In34  1  0.84500064  0.32397533  0.83268656  1
  In  In35  1  0.01870517  -0.00237904  0.01789104  1
  In  In36  1  0.68732809  0.81174516  0.15775536  1
  In  In37  1  0.17255772  0.84043714  0.02831349  1
  In  In38  1  -0.00308768  0.81205366  0.82258925  1
  In  In39  1  0.01252407  0.03862936  0.63803876  1
  In  In40  1  0.84795875  0.18582672  -0.00417554  1
  In  In41  1  0.29565269  0.18149527  0.86419674  1
  In  In42  1  0.83335462  0.81692580  0.65176632  1
  In  In43  1  0.47425906  0.34323728  0.80611463  1
  In  In44  1  0.17965292  0.85106367  0.64714188  1
  In  In45  1  0.49249837  0.15062588  0.64034670  1
  In  In46  1  0.64159015  0.32887690  0.31853273  1
  In  In47  1  0.48293075  0.32306150  0.16550258  1
  In  In48  1  0.12646537  0.16878119  0.32286479  1
  In  In49  1  0.67259708  0.15020134  0.85629474  1
  In  In50  1  0.69026908  0.63758009  0.31256972  1
  In  In51  1  0.31607582  0.19159732  0.49653226  1
  In  In52  1  0.47803380  0.15231606  0.31343695  1
  In  In53  1  0.67126197  0.32600691  0.69286662  1
  In  In54  1  0.16033800  0.62966446  0.83615382  1
  In  In55  1  0.01459476  0.49089478  0.47693773  1
  In  In56  1  0.16607406  0.69612084  0.49005286  1
  In  In57  1  0.45491711  0.00442673  0.15442747  1
  In  In58  1  0.16651313  0.66424911  0.18613467  1
  In  In59  1  0.48168018  0.02402962  0.87121224  1
  In  In60  1  0.62618231  0.81229970  0.80021168  1
  In  In61  1  0.30978251  0.50650792  0.51604300  1
  In  In62  1  0.14643449  0.48779748  0.67633167  1
  In  In63  1  0.85518280  0.34813488  0.48838963  1
  In  In64  1  0.01452990  0.81817135  0.18042193  1
  In  In65  1  0.68177287  0.18730735  0.16711190  1
  In  In66  1  0.48569882  0.34538791  0.50606615  1
  In  In67  1  0.83774072  0.84459857  -0.00488030  1
  In  In68  1  0.49097114  0.49400829  -0.00320851  1
  In  In69  1  0.69928326  0.19363029  0.48541562  1
  In  In70  1  0.51396378  0.81616117  -0.00632499  1
  In  In71  1  0.67678411  0.52067110  0.51310799  1
  Te  Te72  1  0.06520437  0.10050966  0.11610952  1
  Te  Te73  1  0.05179810  0.06458955  0.39683107  1
  Te  Te74  1  0.08567954  0.08352773  0.76312130  1
  Te  Te75  1  0.10462953  0.44745094  0.09787370  1
  Te  Te76  1  0.11969948  0.39456617  0.42983568  1
  Te  Te77  1  0.11166579  0.38350459  0.77962112  1
  Te  Te78  1  0.08009306  0.73191475  0.07458326  1
  Te  Te79  1  0.09620763  0.77987014  0.38932039  1
  Te  Te80  1  0.10626740  0.74924813  0.73762411  1
  Te  Te81  1  0.40331467  0.11210010  0.07643070  1
  Te  Te82  1  0.40539466  0.08281203  0.43533320  1
  Te  Te83  1  0.39421693  0.10187996  0.76845938  1
  Te  Te84  1  0.39488038  0.42251451  0.08830899  1
  Te  Te85  1  0.39570837  0.42066704  0.41445688  1
  Te  Te86  1  0.37559796  0.43219011  0.74578486  1
  Te  Te87  1  0.41106148  0.75533336  0.08686998  1
  Te  Te88  1  0.39169552  0.71768093  0.36260825  1
  Te  Te89  1  0.42449473  0.73771987  0.74288318  1
  Te  Te90  1  0.77940246  0.09330677  0.09605439  1
  Te  Te91  1  0.74659173  0.08449843  0.39186075  1
  Te  Te92  1  0.76966662  0.09752176  0.75259868  1
  Te  Te93  1  0.76190540  0.44081852  0.09807797  1
  Te  Te94  1  0.73084185  0.41421833  0.41657830  1
  Te  Te95  1  0.76848906  0.42776334  0.74810745  1
  Te  Te96  1  0.77576800  0.73490459  0.07152961  1
  Te  Te97  1  0.75262174  0.72523882  0.41117989  1
  Te  Te98  1  0.76578292  0.75310830  0.77149382  1
  Te  Te99  1  0.04744471  0.27903608  0.25797448  1
  Te  Te100  1  0.02834702  0.24921111  0.55510834  1
  Te  Te101  1  0.11850340  0.21534212  0.96133631  1
  Te  Te102  1  0.06203639  0.57930497  0.25744115  1
  Te  Te103  1  0.08343349  0.59579485  0.57253194  1
  Te  Te104  1  0.04557478  0.56322695  0.89980258  1
  Te  Te105  1  0.10952277  0.89664612  0.26151248  1
  Te  Te106  1  0.08239933  0.92759460  0.56247277  1
  Te  Te107  1  0.08282653  0.90654466  0.91321662  1
  Te  Te108  1  0.39410778  0.26062071  0.26581945  1
  Te  Te109  1  0.39857295  0.26488774  0.60144640  1
  Te  Te110  1  0.40057776  0.27639048  0.92015361  1
  Te  Te111  1  0.38038791  0.59566406  0.24387634  1
  Te  Te112  1  0.42604558  0.58939587  0.55388049  1
  Te  Te113  1  0.38495791  0.56646248  0.91170628  1
  Te  Te114  1  0.43548283  0.91245983  0.26518376  1
  Te  Te115  1  0.42556629  0.92438064  0.58867757  1
  Te  Te116  1  0.41014140  0.89957601  0.91942401  1
  Te  Te117  1  0.76801269  0.27309231  0.25678259  1
  Te  Te118  1  0.77133695  0.26787742  0.59456421  1
  Te  Te119  1  0.73876907  0.26606352  0.92699608  1
  Te  Te120  1  0.75774016  0.55154898  0.20650107  1
  Te  Te121  1  0.77473745  0.58240586  0.60205518  1
  Te  Te122  1  0.78072536  0.54685804  0.95794728  1
  Te  Te123  1  0.75560930  0.92106300  0.23703885  1
  Te  Te124  1  0.73455690  0.89219332  0.56391924  1
  Te  Te125  1  0.72758442  0.92272068  0.92021823  1
  Te  Te126  1  0.23937726  0.25580997  0.07153603  1
  Te  Te127  1  0.21302952  0.25470263  0.41333194  1
  Te  Te128  1  0.22195314  0.26760509  0.76089410  1
  Te  Te129  1  0.21387612  0.56785889  0.07978029  1
  Te  Te130  1  0.23884431  0.59047484  0.41107298  1
  Te  Te131  1  0.24843714  0.57995879  0.73149618  1
  Te  Te132  1  0.26941554  0.91535045  0.10601619  1
  Te  Te133  1  0.26089374  0.91382624  0.43056285  1
  Te  Te134  1  0.24509328  0.93411052  0.76204442  1
  Te  Te135  1  0.59640361  0.27389930  0.08617369  1
  Te  Te136  1  0.56483111  0.24073742  0.42564255  1
  Te  Te137  1  0.57728722  0.22267793  0.75441705  1
  Te  Te138  1  0.58066972  0.58919730  0.06223510  1
  Te  Te139  1  0.58361118  0.58305499  0.41155313  1
  Te  Te140  1  0.58079248  0.57063632  0.76242362  1
  Te  Te141  1  0.57914774  0.91268608  0.09233750  1
  Te  Te142  1  0.56805955  0.88381159  0.40785122  1
  Te  Te143  1  0.57496145  0.96054784  0.76384268  1
  Te  Te144  1  0.92926064  0.28576369  0.06911087  1
  Te  Te145  1  0.93405038  0.23463667  0.43004719  1
  Te  Te146  1  0.93924627  0.24781249  0.74795216  1
  Te  Te147  1  0.97991948  0.52900093  0.03871151  1
  Te  Te148  1  0.90180288  0.57757777  0.42259885  1
  Te  Te149  1  0.93917894  0.56502953  0.76821396  1
  Te  Te150  1  0.92465726  0.91255567  0.09961471  1
  Te  Te151  1  0.92046132  0.92026861  0.38246115  1
  Te  Te152  1  0.92995672  0.91483698  0.73117045  1
  Te  Te153  1  0.24757675  0.10030831  0.25214296  1
  Te  Te154  1  0.22883826  0.10833129  0.59735312  1
  Te  Te155  1  0.28832690  0.07687202  0.97677007  1
  Te  Te156  1  0.26764137  0.40536403  0.25220774  1
  Te  Te157  1  0.21440483  0.40596533  0.57110204  1
  Te  Te158  1  0.17679935  0.42924504  0.91072227  1
  Te  Te159  1  0.27971579  0.72943553  0.25600627  1
  Te  Te160  1  0.27444387  0.75131994  0.58402913  1
  Te  Te161  1  0.23976792  0.74034809  0.92103420  1
  Te  Te162  1  0.58709656  0.08514259  0.23581348  1
  Te  Te163  1  0.62061852  0.08575614  0.57319870  1
  Te  Te164  1  0.56869033  0.10979345  0.96126768  1
  Te  Te165  1  0.57155761  0.43228913  0.23626319  1
  Te  Te166  1  0.58891323  0.41267151  0.59586175  1
  Te  Te167  1  0.57352196  0.40654720  0.90344325  1
  Te  Te168  1  0.59299762  0.73557431  0.24767171  1
  Te  Te169  1  0.58904963  0.74094167  0.58479258  1
  Te  Te170  1  0.60944863  0.72218063  0.92444332  1
  Te  Te171  1  0.95091995  0.09665819  0.22116276  1
  Te  Te172  1  0.88567978  0.07953363  0.58020385  1
  Te  Te173  1  0.91843270  0.06853518  0.91963480  1
  Te  Te174  1  0.94348300  0.40039193  0.26938434  1
  Te  Te175  1  0.95313654  0.40664373  0.58362319  1
  Te  Te176  1  0.93076713  0.40724760  0.92166264  1
  Te  Te177  1  0.90860672  0.72602217  0.23794360  1
  Te  Te178  1  0.93748658  0.76022682  0.56718898  1
  Te  Te179  1  0.92634845  0.73639196  0.93036642  1
