# generated using pymatgen
data_In2Te3
_symmetry_space_group_name_H-M   'P 1'
_cell_length_a   18.95746056
_cell_length_b   18.95788630
_cell_length_c   18.94416724
_cell_angle_alpha   90.03465238
_cell_angle_beta   90.30198733
_cell_angle_gamma   90.05278807
_symmetry_Int_Tables_number   1
_chemical_formula_structural   In2Te3
_chemical_formula_sum   'In72 Te108'
_cell_volume   6808.30960967
_cell_formula_units_Z   36
loop_
 _symmetry_equiv_pos_site_id
 _symmetry_equiv_pos_as_xyz
  1  'x, y, z'
loop_
 _atom_site_type_symbol
 _atom_site_label
 _atom_site_symmetry_multiplicity
 _atom_site_fract_x
 _atom_site_fract_y
 _atom_site_fract_z
 _atom_site_occupancy
  In  In0  1  0.17504717  0.68205178  0.84485519  1
  In  In1  1  0.01132671  0.00391408  0.32168056  1
  In  In2  1  -0.01557116  0.00376267  0.65062840  1
  In  In3  1  0.65690483  0.50125352  0.14871581  1
  In  In4  1  0.32541784  0.66301380  0.64177974  1
  In  In5  1  0.34847689  0.16823271  0.85981155  1
  In  In6  1  0.67138575  -0.02099028  0.31585348  1
  In  In7  1  0.15246365  0.65259925  0.17934458  1
  In  In8  1  0.85753265  0.17701135  0.34574322  1
  In  In9  1  0.17789085  0.00224141  0.82410275  1
  In  In10  1  0.18875523  0.35832911  0.17407784  1
  In  In11  1  0.65122182  0.67871535  0.01056911  1
  In  In12  1  0.34753145  0.33180227  0.67655512  1
  In  In13  1  0.85085531  0.34951719  0.17623776  1
  In  In14  1  -0.02599324  0.65351913  0.65216184  1
  In  In15  1  0.02076089  0.36392417  0.68135181  1
  In  In16  1  0.83184000  0.15887294  0.67756598  1
  In  In17  1  -0.03272669  0.80637907  0.17621658  1
  In  In18  1  0.78588348  0.01520132  0.12035940  1
  In  In19  1  0.67161141  0.83042368  0.84411265  1
  In  In20  1  0.15010329  0.16691984  0.67796142  1
  In  In21  1  0.51722371  0.50517609  0.69616138  1
  In  In22  1  0.66817793  0.15970048  0.50785542  1
  In  In23  1  0.48135773  0.83200430  0.66977669  1
  In  In24  1  0.84391477  0.35788101  0.82469818  1
  In  In25  1  0.38229564  0.81075613  0.13775471  1
  In  In26  1  0.48339051  0.13560492  0.34610488  1
  In  In27  1  0.82128412  0.80590661  0.01504121  1
  In  In28  1  0.18129889  -0.00769962  0.48359814  1
  In  In29  1  0.65537920  0.17302712  0.82148385  1
  In  In30  1  -0.00786788  0.17524681  0.16621607  1
  In  In31  1  0.16814133  0.16552918  -0.00083339  1
  In  In32  1  0.14043330  0.50244702  0.67887630  1
  In  In33  1  0.35708524  0.52011753  0.18756562  1
  In  In34  1  0.64377966  0.66771824  0.32366935  1
  In  In35  1  0.79347826  0.81357253  0.65693636  1
  In  In36  1  0.80793197  0.65206105  0.47710506  1
  In  In37  1  -0.01352147  0.49113983  0.45811709  1
  In  In38  1  -0.01236234  0.84508400  0.84547418  1
  In  In39  1  0.50784081  0.33813204  0.17556264  1
  In  In40  1  0.47871005  0.34234849  0.85092564  1
  In  In41  1  0.51667511  -0.00087658  0.84369874  1
  In  In42  1  0.21457727  0.84248952  0.32691004  1
  In  In43  1  0.63709405  0.51777158  0.48977411  1
  In  In44  1  0.49400703  0.34325553  0.49145140  1
  In  In45  1  0.15461334  0.34439133  0.48493250  1
  In  In46  1  0.82722357  0.30822012  0.49197955  1
  In  In47  1  0.19338786  0.65932834  0.48427446  1
  In  In48  1  0.34247487  0.17733392  0.15839885  1
  In  In49  1  0.01140765  0.83938803  0.48090641  1
  In  In50  1  0.52631517  -0.00306506  0.14211564  1
  In  In51  1  0.32662800  0.50044824  0.48966693  1
  In  In52  1  0.34810373  0.83636557  0.85218181  1
  In  In53  1  0.68621202  0.34266806  0.32383364  1
  In  In54  1  0.82279952  -0.00393198  0.85161510  1
  In  In55  1  0.66077062  0.31623574  -0.01172504  1
  In  In56  1  0.17129360  0.17603311  0.33568185  1
  In  In57  1  0.33089128  0.49970973  0.98095852  1
  In  In58  1  0.48272681  0.81717099  0.31716759  1
  In  In59  1  -0.01763368  0.64537269  0.03490852  1
  In  In60  1  0.00387106  0.00568582  -0.00475764  1
  In  In61  1  0.64354720  0.81999795  0.50111164  1
  In  In62  1  0.02352565  0.32740522  0.00924941  1
  In  In63  1  0.85691447  0.48879870  0.32062210  1
  In  In64  1  0.65943915  0.53234111  0.85778063  1
  In  In65  1  0.85351243  -0.01227798  0.49857069  1
  In  In66  1  0.49730253  0.15646286  0.65524936  1
  In  In67  1  0.80139032  0.49208911  0.65528041  1
  In  In68  1  0.20468007  -0.02638828  0.15699254  1
  In  In69  1  0.00799544  0.50486203  0.82946369  1
  In  In70  1  0.32677865  -0.01875767  0.64996725  1
  In  In71  1  0.17251094  0.78016324  0.64571861  1
  Te  Te72  1  0.09259858  0.07661766  0.10480858  1
  Te  Te73  1  0.07960058  0.08961962  0.42433979  1
  Te  Te74  1  0.06010866  0.07683669  0.76103146  1
  Te  Te75  1  0.11301434  0.42775961  0.06784711  1
  Te  Te76  1  0.11366312  0.45353512  0.38814962  1
  Te  Te77  1  0.12299065  0.40010366  0.79646073  1
  Te  Te78  1  0.07661851  0.75232084  0.08824919  1
  Te  Te79  1  0.10844183  0.75743116  0.40100915  1
  Te  Te80  1  0.05887818  0.74369900  0.74526966  1
  Te  Te81  1  0.42326615  0.08308328  0.08025684  1
  Te  Te82  1  0.39746924  0.06264580  0.43718891  1
  Te  Te83  1  0.40677824  0.06803667  0.75354661  1
  Te  Te84  1  0.41494923  0.41889946  0.08827825  1
  Te  Te85  1  0.40183261  0.41238755  0.39714339  1
  Te  Te86  1  0.39839500  0.44172854  0.76871189  1
  Te  Te87  1  0.42393131  0.68293700  0.06063664  1
  Te  Te88  1  0.39439984  0.74485156  0.41180154  1
  Te  Te89  1  0.40301871  0.73377400  0.75629869  1
  Te  Te90  1  0.69117800  0.10442597  0.05619170  1
  Te  Te91  1  0.75541166  0.07854288  0.41048245  1
  Te  Te92  1  0.73571099  0.06651096  0.74760064  1
  Te  Te93  1  0.75057622  0.40783760  0.07746837  1
  Te  Te94  1  0.75650987  0.43193172  0.43347045  1
  Te  Te95  1  0.72280904  0.42364285  0.76273155  1
  Te  Te96  1  0.73337411  0.74602432  0.11707278  1
  Te  Te97  1  0.74200549  0.76201225  0.40028614  1
  Te  Te98  1  0.76006421  0.73610578  0.77447008  1
  Te  Te99  1  0.08728407  0.26286107  0.24320936  1
  Te  Te100  1  0.07529835  0.26011557  0.58358899  1
  Te  Te101  1  0.07445067  0.23214893  0.90963154  1
  Te  Te102  1  0.09505441  0.55491365  0.27147797  1
  Te  Te103  1  0.07830069  0.58723940  0.56287795  1
  Te  Te104  1  0.08180104  0.59573551  0.92588857  1
  Te  Te105  1  0.09488714  0.90519695  0.24446895  1
  Te  Te106  1  0.09013261  0.91211868  0.59045514  1
  Te  Te107  1  0.09893433  0.91254223  0.92259498  1
  Te  Te108  1  0.42166074  0.24800738  0.26690633  1
  Te  Te109  1  0.40796870  0.24414788  0.56839262  1
  Te  Te110  1  0.44031826  0.23954722  0.94822740  1
  Te  Te111  1  0.42326928  0.61557918  0.28293044  1
  Te  Te112  1  0.42494950  0.56549364  0.58451432  1
  Te  Te113  1  0.43851297  0.59344468  0.94301914  1
  Te  Te114  1  0.42122596  0.92594421  0.22892779  1
  Te  Te115  1  0.43710751  0.93168674  0.56779603  1
  Te  Te116  1  0.42979130  0.92616680  0.94261722  1
  Te  Te117  1  0.76416133  0.24192300  0.24450686  1
  Te  Te118  1  0.73959971  0.25596662  0.60276046  1
  Te  Te119  1  0.76232698  0.24998640  0.89697418  1
  Te  Te120  1  0.73957655  0.56686300  0.25950643  1
  Te  Te121  1  0.72171277  0.60327220  0.58941210  1
  Te  Te122  1  0.75386019  0.58946901  0.95412312  1
  Te  Te123  1  0.74049748  0.90639697  0.20746605  1
  Te  Te124  1  0.73860481  0.92507591  0.57198829  1
  Te  Te125  1  0.73871209  0.91895694  0.94945337  1
  Te  Te126  1  0.25565911  0.26534851  0.07048089  1
  Te  Te127  1  0.25412160  0.25740749  0.42481048  1
  Te  Te128  1  0.25908325  0.23892345  0.75841916  1
  Te  Te129  1  0.24389096  0.56548549  0.09343424  1
  Te  Te130  1  0.30486395  0.61918804  0.38482903  1
  Te  Te131  1  0.24407326  0.58861787  0.74937546  1
  Te  Te132  1  0.26920045  0.87953774  0.06463476  1
  Te  Te133  1  0.29493986  0.95186197  0.39650227  1
  Te  Te134  1  0.23997379  0.88842308  0.74361178  1
  Te  Te135  1  0.60449036  0.24775822  0.10780986  1
  Te  Te136  1  0.59528566  0.25555080  0.41311279  1
  Te  Te137  1  0.55835063  0.26159855  0.74582690  1
  Te  Te138  1  0.55166525  0.58774866  0.08294522  1
  Te  Te139  1  0.54219196  0.59439275  0.40518416  1
  Te  Te140  1  0.57611121  0.61633440  0.76963468  1
  Te  Te141  1  0.53910714  0.88041597  0.04684762  1
  Te  Te142  1  0.57077017  0.91168982  0.40369710  1
  Te  Te143  1  0.58932407  0.91251503  0.74533519  1
  Te  Te144  1  0.90279931  0.24972212  0.07262104  1
  Te  Te145  1  0.93687613  0.28892434  0.39786212  1
  Te  Te146  1  0.92542202  0.25958709  0.74346599  1
  Te  Te147  1  0.90214010  0.58599583  0.14331061  1
  Te  Te148  1  0.93136867  0.61824976  0.39730588  1
  Te  Te149  1  0.89521187  0.57174581  0.75067938  1
  Te  Te150  1  0.91662277  0.91444437  0.08139148  1
  Te  Te151  1  0.91211863  0.90458355  0.38592013  1
  Te  Te152  1  0.89966937  0.91067847  0.73734391  1
  Te  Te153  1  0.25448693  0.08710300  0.24438118  1
  Te  Te154  1  0.24218537  0.09017837  0.58472912  1
  Te  Te155  1  0.26185429  0.06605426  0.93297661  1
  Te  Te156  1  0.28859286  0.41440770  0.26939276  1
  Te  Te157  1  0.24398842  0.41867221  0.59644551  1
  Te  Te158  1  0.24775171  0.42150262  0.89083224  1
  Te  Te159  1  0.26442599  0.75033196  0.21959505  1
  Te  Te160  1  0.28271058  0.77550595  0.54311771  1
  Te  Te161  1  0.26097014  0.75398957  0.94051730  1
  Te  Te162  1  0.58977866  0.08869332  0.25105064  1
  Te  Te163  1  0.57962436  0.06592303  0.57596428  1
  Te  Te164  1  0.59332828  0.09315199  0.93278094  1
  Te  Te165  1  0.58328109  0.43580118  0.26653604  1
  Te  Te166  1  0.58422621  0.41610707  0.58905902  1
  Te  Te167  1  0.57509260  0.42687057  0.93128275  1
  Te  Te168  1  0.58216682  0.75795580  0.22466823  1
  Te  Te169  1  0.56633163  0.73848531  0.59342993  1
  Te  Te170  1  0.56328833  0.77500861  0.93230891  1
  Te  Te171  1  0.90327010  0.07235304  0.23725800  1
  Te  Te172  1  0.91905571  0.10903482  0.56286714  1
  Te  Te173  1  0.91013612  0.08988547  0.92162826  1
  Te  Te174  1  0.95736677  0.45099951  0.21404849  1
  Te  Te175  1  0.92145848  0.43066650  0.58387722  1
  Te  Te176  1  0.92767856  0.42593502  0.92998440  1
  Te  Te177  1  0.91638664  0.69391317  0.25361441  1
  Te  Te178  1  0.90878483  0.76025793  0.56422830  1
  Te  Te179  1  0.91912790  0.73590913  0.92342881  1
