# generated using pymatgen
data_In2Te3
_symmetry_space_group_name_H-M   'P 1'
_cell_length_a   18.93593563
_cell_length_b   18.93833914
_cell_length_c   18.95959416
_cell_angle_alpha   90.14795035
_cell_angle_beta   90.08177926
_cell_angle_gamma   90.13934423
_symmetry_Int_Tables_number   1
_chemical_formula_structural   In2Te3
_chemical_formula_sum   'In72 Te108'
_cell_volume   6799.14833775
_cell_formula_units_Z   36
loop_
 _symmetry_equiv_pos_site_id
 _symmetry_equiv_pos_as_xyz
  1  'x, y, z'
loop_
 _atom_site_type_symbol
 _atom_site_label
 _atom_site_symmetry_multiplicity
 _atom_site_fract_x
 _atom_site_fract_y
 _atom_site_fract_z
 _atom_site_occupancy
  In  In0  1  0.66714206  0.19671197  0.17198256  1
  In  In1  1  0.84554494  0.62967347  0.83247378  1
  In  In2  1  0.66590341  0.83097311  0.51279989  1
  In  In3  1  0.32409303  0.49994887  0.17215801  1
  In  In4  1  0.18146496  0.50280493  -0.00014381  1
  In  In5  1  0.15821411  -0.00852563  0.16723568  1
  In  In6  1  0.84531563  0.35282157  0.18749138  1
  In  In7  1  -0.00587187  0.17176162  0.51300055  1
  In  In8  1  0.32500087  0.16338719  0.47136551  1
  In  In9  1  0.35651575  0.50176325  0.48148653  1
  In  In10  1  0.17389700  0.16555256  0.02008417  1
  In  In11  1  0.70011683  0.50050552  0.19470198  1
  In  In12  1  0.81053932  0.82790135  0.00042421  1
  In  In13  1  0.01462549  0.52209761  0.18695725  1
  In  In14  1  0.18545993  0.18077188  0.65503699  1
  In  In15  1  0.15007375  0.19669054  0.35108719  1
  In  In16  1  0.67016853  0.49229773  0.51326375  1
  In  In17  1  0.87719584  0.67828094  0.49633030  1
  In  In18  1  0.46702328  0.13690054  0.02857776  1
  In  In19  1  0.33279802  0.50001561  0.84320173  1
  In  In20  1  0.01292431  0.17326333  0.16296624  1
  In  In21  1  0.84239988  0.47123690  -0.00295867  1
  In  In22  1  0.32201356  0.00086684  0.32106745  1
  In  In23  1  0.69690053  0.82105384  0.81850956  1
  In  In24  1  0.13032808  0.51425966  0.36671220  1
  In  In25  1  0.51848282  0.17505434  0.67998340  1
  In  In26  1  0.15238749  0.82216078  0.69150221  1
  In  In27  1  -0.01071490  -0.02966816  0.70183459  1
  In  In28  1  0.17260678  -0.02072357  0.49303110  1
  In  In29  1  0.65726862  0.03764804  0.33982439  1
  In  In30  1  0.00129995  0.83614321  0.18150398  1
  In  In31  1  0.17396297  0.34688386  0.16637879  1
  In  In32  1  0.34541501  0.66119353  0.66178914  1
  In  In33  1  0.50731447  0.31960937  0.84093637  1
  In  In34  1  0.84159307  0.81022738  0.32912386  1
  In  In35  1  0.66264937  0.83306426  0.17637210  1
  In  In36  1  -0.00349155  0.16988276  0.84295397  1
  In  In37  1  0.66647129  0.68212230  0.01952191  1
  In  In38  1  0.00186292  0.65346767  0.00614585  1
  In  In39  1  0.46412761  0.82274239  0.00669044  1
  In  In40  1  0.00886982  0.34304803  0.64364605  1
  In  In41  1  0.82956189  0.16030186  0.64998576  1
  In  In42  1  0.68136019  -0.00297163  0.65171109  1
  In  In43  1  0.51113253  0.34522041  0.17027061  1
  In  In44  1  0.83791772  0.33831010  0.48834459  1
  In  In45  1  0.31869601  0.67859769  0.32462781  1
  In  In46  1  0.49045112  0.51415002  -0.00026287  1
  In  In47  1  0.00899119  -0.01812143  0.30353887  1
  In  In48  1  0.35697445  0.34935537  0.66507186  1
  In  In49  1  0.49165047  0.84142522  0.32141702  1
  In  In50  1  0.80669783  0.18727386  -0.04041540  1
  In  In51  1  0.34652644  0.15884089  0.81762865  1
  In  In52  1  0.51589181  0.64785157  0.83879028  1
  In  In53  1  0.51122689  0.34616721  0.50095307  1
  In  In54  1  0.14771976  0.00582300  0.84409062  1
  In  In55  1  0.13691990  0.67125559  0.82596410  1
  In  In56  1  0.81097213  -0.02573418  0.50157202  1
  In  In57  1  0.46290447  -0.04279257  0.51345197  1
  In  In58  1  0.51876465  -0.01293543  0.82431162  1
  In  In59  1  0.51931905  0.65637902  0.48477118  1
  In  In60  1  0.14092385  0.70855698  0.48468360  1
  In  In61  1  0.66836321  0.49113316  0.82182504  1
  In  In62  1  0.65042982  -0.00993857  -0.00431413  1
  In  In63  1  0.66743879  0.18438361  0.50657613  1
  In  In64  1  0.15142132  0.51806026  0.62638613  1
  In  In65  1  0.83014335  -0.00202076  0.15781260  1
  In  In66  1  0.49234299  0.18771365  0.31474416  1
  In  In67  1  0.31796097  0.82630867  0.82689937  1
  In  In68  1  -0.00630373  0.31912677  -0.01132311  1
  In  In69  1  0.84037043  0.49205924  0.66003795  1
  In  In70  1  0.48151966  0.68360328  0.17898442  1
  In  In71  1  0.15231323  0.86182953  -0.00383201  1
  Te  Te72  1  0.06926705  0.06715434  0.07008619  1
  Te  Te73  1  0.07804546  0.07311276  0.41521046  1
  Te  Te74  1  0.08443731  0.09661757  0.73195892  1
  Te  Te75  1  0.06680099  0.41624928  0.08199406  1
  Te  Te76  1  0.06939232  0.41713701  0.45629389  1
  Te  Te77  1  0.10528486  0.41873129  0.72422699  1
  Te  Te78  1  0.08479987  0.75551936  0.08326274  1
  Te  Te79  1  0.05935377  0.80212052  0.40604948  1
  Te  Te80  1  0.03961547  0.73435580  0.73356193  1
  Te  Te81  1  0.37962345  0.04093603  0.09722079  1
  Te  Te82  1  0.43411811  0.07882581  0.40677044  1
  Te  Te83  1  0.42637318  0.06418013  0.73101905  1
  Te  Te84  1  0.40819785  0.41562279  0.07844528  1
  Te  Te85  1  0.40754003  0.38652354  0.40416657  1
  Te  Te86  1  0.44076161  0.43199127  0.76133144  1
  Te  Te87  1  0.37839883  0.75657161  0.10491627  1
  Te  Te88  1  0.41924618  0.74857163  0.41595982  1
  Te  Te89  1  0.42642745  0.74567416  0.75859545  1
  Te  Te90  1  0.73558992  0.08644447  0.07925561  1
  Te  Te91  1  0.76540165  0.09949474  0.42549956  1
  Te  Te92  1  0.74453850  0.08841101  0.74555885  1
  Te  Te93  1  0.74109603  0.40189888  0.08644117  1
  Te  Te94  1  0.75547478  0.43022883  0.40571328  1
  Te  Te95  1  0.77814571  0.40431127  0.76767656  1
  Te  Te96  1  0.76727654  0.73962652  0.11836430  1
  Te  Te97  1  0.74822154  0.74115892  0.42360703  1
  Te  Te98  1  0.74228566  0.69932731  0.74939965  1
  Te  Te99  1  0.06730041  0.28003850  0.25531430  1
  Te  Te100  1  0.10953844  0.26244103  0.55379903  1
  Te  Te101  1  0.10505531  0.25018669  0.91239362  1
  Te  Te102  1  0.11532027  0.60822974  0.25386725  1
  Te  Te103  1  0.05894655  0.60844795  0.55651337  1
  Te  Te104  1  0.07363814  0.56172994  0.90956516  1
  Te  Te105  1  0.12759827  0.87762500  0.28825753  1
  Te  Te106  1  0.07913753  0.91243268  0.59182457  1
  Te  Te107  1  0.05637495  0.90268096  0.89187890  1
  Te  Te108  1  0.40245274  0.25467647  0.21938951  1
  Te  Te109  1  0.41894696  0.23641284  0.58026376  1
  Te  Te110  1  0.41042509  0.24196935  0.92679276  1
  Te  Te111  1  0.41602075  0.57786810  0.26550904  1
  Te  Te112  1  0.43952662  0.56971527  0.58823938  1
  Te  Te113  1  0.39800873  0.60946188  0.92758902  1
  Te  Te114  1  0.41498519  0.92951128  0.22928782  1
  Te  Te115  1  0.36431933  0.87907508  0.58254097  1
  Te  Te116  1  0.40854615  0.92169538  0.90659585  1
  Te  Te117  1  0.76376260  0.25667381  0.26348864  1
  Te  Te118  1  0.74886907  0.27633972  0.59510492  1
  Te  Te119  1  0.75301501  0.28984272  0.87320997  1
  Te  Te120  1  0.78962016  0.55744871  0.30134587  1
  Te  Te121  1  0.77131875  0.59159912  0.57026723  1
  Te  Te122  1  0.73750357  0.57688484  0.93728079  1
  Te  Te123  1  0.74766479  0.92723250  0.26658856  1
  Te  Te124  1  0.79503900  0.85957074  0.60602889  1
  Te  Te125  1  0.75561405  0.93213223  0.90373078  1
  Te  Te126  1  0.26223230  0.24329993  0.10975679  1
  Te  Te127  1  0.26664363  0.27619694  0.39735317  1
  Te  Te128  1  0.26241656  0.26696098  0.75197822  1
  Te  Te129  1  0.24604863  0.59493409  0.09213195  1
  Te  Te130  1  0.24897479  0.60182372  0.43839720  1
  Te  Te131  1  0.24354847  0.58847070  0.74881035  1
  Te  Te132  1  0.25977164  0.94078170  0.07064899  1
  Te  Te133  1  0.28989251  0.90714767  0.43465282  1
  Te  Te134  1  0.24145021  0.93127925  0.74989177  1
  Te  Te135  1  0.57078924  0.24801066  0.06858036  1
  Te  Te136  1  0.59392519  0.26308428  0.40081950  1
  Te  Te137  1  0.61384463  0.24328141  0.77068638  1
  Te  Te138  1  0.58029249  0.58748327  0.10076646  1
  Te  Te139  1  0.58196230  0.54835227  0.40716694  1
  Te  Te140  1  0.60659376  0.59415247  0.73548871  1
  Te  Te141  1  0.56618047  0.90696393  0.08902892  1
  Te  Te142  1  0.59038416  0.92197361  0.41649335  1
  Te  Te143  1  0.59751656  0.89739015  0.73063191  1
  Te  Te144  1  0.89982364  0.24187178  0.08045658  1
  Te  Te145  1  0.91725210  0.24088717  0.41108881  1
  Te  Te146  1  0.92876810  0.24534689  0.73003148  1
  Te  Te147  1  0.90552250  0.57342783  0.09110416  1
  Te  Te148  1  0.91968161  0.60122249  0.37514336  1
  Te  Te149  1  0.93899652  0.57019274  0.73639376  1
  Te  Te150  1  0.91822492  0.90793612  0.07588990  1
  Te  Te151  1  0.92065529  0.91250390  0.40997389  1
  Te  Te152  1  0.87421480  0.88777551  0.73825885  1
  Te  Te153  1  0.22106925  0.09452147  0.25806361  1
  Te  Te154  1  0.25984989  0.07583256  0.57677564  1
  Te  Te155  1  0.25326075  0.08741097  0.91482107  1
  Te  Te156  1  0.23025768  0.43725946  0.27305820  1
  Te  Te157  1  0.26382823  0.42412625  0.57435096  1
  Te  Te158  1  0.25965137  0.40453866  0.92542434  1
  Te  Te159  1  0.23131749  0.76729986  0.25025365  1
  Te  Te160  1  0.24729039  0.75571279  0.59237119  1
  Te  Te161  1  0.22670507  0.74990014  0.91946038  1
  Te  Te162  1  0.57287088  0.08870377  0.22824466  1
  Te  Te163  1  0.58118245  0.07820496  0.57256793  1
  Te  Te164  1  0.57096987  0.09244099  0.91913054  1
  Te  Te165  1  0.58939795  0.43142268  0.26266514  1
  Te  Te166  1  0.59450290  0.40476454  0.60495458  1
  Te  Te167  1  0.58465998  0.42073999  0.92747482  1
  Te  Te168  1  0.59237345  0.73747650  0.26970651  1
  Te  Te169  1  0.57114135  0.74937841  0.58714285  1
  Te  Te170  1  0.58654865  0.76580811  0.92210751  1
  Te  Te171  1  0.91568616  0.08801432  0.24562800  1
  Te  Te172  1  0.91979051  0.05507403  0.58348522  1
  Te  Te173  1  0.90324106  0.08627902  0.91721966  1
  Te  Te174  1  0.92431848  0.44375065  0.27703747  1
  Te  Te175  1  0.94146399  0.43945317  0.54247634  1
  Te  Te176  1  0.92308182  0.40640760  0.89317927  1
  Te  Te177  1  0.94362642  0.72499639  0.26253148  1
  Te  Te178  1  0.92212040  0.77227750  0.60432846  1
  Te  Te179  1  0.90609523  0.73765064  0.92330927  1
