# generated using pymatgen
data_In2Te3
_symmetry_space_group_name_H-M   'P 1'
_cell_length_a   19.00015375
_cell_length_b   18.97827076
_cell_length_c   18.97361472
_cell_angle_alpha   89.94237857
_cell_angle_beta   89.98985521
_cell_angle_gamma   90.27767670
_symmetry_Int_Tables_number   1
_chemical_formula_structural   In2Te3
_chemical_formula_sum   'In72 Te108'
_cell_volume   6841.61299629
_cell_formula_units_Z   36
loop_
 _symmetry_equiv_pos_site_id
 _symmetry_equiv_pos_as_xyz
  1  'x, y, z'
loop_
 _atom_site_type_symbol
 _atom_site_label
 _atom_site_symmetry_multiplicity
 _atom_site_fract_x
 _atom_site_fract_y
 _atom_site_fract_z
 _atom_site_occupancy
  In  In0  1  0.83583618  0.50619227  -0.00753510  1
  In  In1  1  0.65249437  0.35145480  0.01333343  1
  In  In2  1  0.17817461  0.67382775  0.17161637  1
  In  In3  1  0.16077938  0.14749597  0.35993707  1
  In  In4  1  0.16349131  0.51075843  0.33702584  1
  In  In5  1  0.49171023  0.32149023  0.49639358  1
  In  In6  1  -0.00608952  0.67521377  0.65391090  1
  In  In7  1  0.49065379  0.63772086  0.48726523  1
  In  In8  1  0.51653313  0.01420658  0.15316196  1
  In  In9  1  0.83498857  0.13999341  0.33201738  1
  In  In10  1  0.48716232  0.28683898  0.84227026  1
  In  In11  1  -0.00178608  0.52325189  0.84701955  1
  In  In12  1  0.64978229  0.50822805  0.18001987  1
  In  In13  1  0.14616086  0.68291088  0.47879202  1
  In  In14  1  0.49512288  0.85862637  0.00348204  1
  In  In15  1  0.51490227  0.18411922  0.33201270  1
  In  In16  1  0.49720544  0.48250671  0.64267851  1
  In  In17  1  0.17282073  0.34907113  0.82021974  1
  In  In18  1  0.83397116  0.86393037  0.32031296  1
  In  In19  1  0.85931851  0.31689690  0.17217156  1
  In  In20  1  0.15760642  0.51543567  0.66770383  1
  In  In21  1  0.81897887  0.49002020  0.63799808  1
  In  In22  1  0.50247091  -0.01170332  0.49733417  1
  In  In23  1  0.67839159  0.16413556  0.15618041  1
  In  In24  1  0.66469530  0.16200456  0.81727730  1
  In  In25  1  0.66942711  0.82506108  0.48239561  1
  In  In26  1  0.48958171  0.69188268  0.83342082  1
  In  In27  1  0.00143445  0.00882088  0.01141088  1
  In  In28  1  0.15116861  0.33219792  0.17214463  1
  In  In29  1  0.00255569  0.16369089  0.50057151  1
  In  In30  1  0.00051036  0.14122069  0.18179804  1
  In  In31  1  0.84198257  0.83920313  0.03108968  1
  In  In32  1  0.67283742  0.48346923  0.81848220  1
  In  In33  1  0.32204399  0.85232652  0.81922115  1
  In  In34  1  0.20178263  0.87133326  0.03153626  1
  In  In35  1  0.33640928  -0.01829353  0.33907934  1
  In  In36  1  0.17683952  0.33557551  0.48666177  1
  In  In37  1  0.49536859  0.83934400  0.66279805  1
  In  In38  1  0.03511556  0.67682717  -0.00531936  1
  In  In39  1  0.81624648  0.16542470  0.00605100  1
  In  In40  1  0.67747387  0.82910443  0.84074973  1
  In  In41  1  0.32221913  0.30808295  0.66213574  1
  In  In42  1  0.16878097  0.00508131  0.82395978  1
  In  In43  1  0.68162166  0.00207075  0.01651507  1
  In  In44  1  0.81967866  0.36557644  0.81957221  1
  In  In45  1  0.83616415  0.68585387  0.17560140  1
  In  In46  1  0.18595056  0.17310057  -0.00534922  1
  In  In47  1  0.31624065  0.80660769  0.50932741  1
  In  In48  1  0.33745439  0.14835321  0.18075245  1
  In  In49  1  0.82859310  -0.00588994  0.49604015  1
  In  In50  1  0.51809029  0.83719200  0.30133884  1
  In  In51  1  0.00722246  0.84738858  0.80539124  1
  In  In52  1  0.32900820  0.66601820  -0.00208526  1
  In  In53  1  0.48711993  0.33148271  0.16676375  1
  In  In54  1  0.32279110  0.49426055  0.81896644  1
  In  In55  1  0.67634624  0.66841682  0.67904610  1
  In  In56  1  -0.00646754  0.18000977  0.84112731  1
  In  In57  1  0.33920839  0.48420321  0.16282637  1
  In  In58  1  -0.00909318  -0.01283824  0.64365338  1
  In  In59  1  0.65379545  -0.00018723  0.66840652  1
  In  In60  1  0.13474008  0.85958907  0.31996079  1
  In  In61  1  0.46320834  0.07255745  0.83626853  1
  In  In62  1  0.81410286  0.31512619  0.49905983  1
  In  In63  1  0.84846905  0.67565509  0.49942439  1
  In  In64  1  0.32732242  0.67976362  0.33947350  1
  In  In65  1  0.82872457  0.66698375  0.84800710  1
  In  In66  1  0.51406180  0.67154809  0.15604300  1
  In  In67  1  0.01030825  0.50488500  0.17569909  1
  In  In68  1  -0.03839946  0.32535083  0.66014085  1
  In  In69  1  0.50011945  0.48518631  0.33556130  1
  In  In70  1  0.18303947  0.14862992  0.65095712  1
  In  In71  1  0.82944838  0.48366829  0.36124048  1
  Te  Te72  1  0.10680011  0.08319626  0.09001554  1
  Te  Te73  1  0.09425348  0.05149398  0.45933510  1
  Te  Te74  1  0.06915513  0.09160373  0.74500647  1
  Te  Te75  1  0.08112952  0.42149750  0.08029956  1
  Te  Te76  1  0.08257778  0.41139509  0.40777484  1
  Te  Te77  1  0.05618598  0.41924268  0.74328448  1
  Te  Te78  1  0.09809014  0.77378462  0.09162975  1
  Te  Te79  1  0.05333121  0.77858620  0.41406607  1
  Te  Te80  1  0.08345562  0.73652618  0.75189509  1
  Te  Te81  1  0.42252237  0.09316612  0.07307715  1
  Te  Te82  1  0.42411122  0.08196919  0.40582109  1
  Te  Te83  1  0.40515677  0.10157517  0.70206608  1
  Te  Te84  1  0.42027230  0.41189723  0.06520828  1
  Te  Te85  1  0.40687607  0.41723260  0.42358366  1
  Te  Te86  1  0.42314919  0.39611916  0.74370759  1
  Te  Te87  1  0.41295086  0.75801736  0.08433363  1
  Te  Te88  1  0.43402021  0.76880749  0.41062595  1
  Te  Te89  1  0.39507542  0.74898417  0.73265391  1
  Te  Te90  1  0.78807835  0.05825202  0.12079997  1
  Te  Te91  1  0.74011191  0.09263935  0.43270004  1
  Te  Te92  1  0.75199564  0.06114565  0.75984132  1
  Te  Te93  1  0.76697683  0.41357226  0.09298124  1
  Te  Te94  1  0.72219438  0.41300956  0.43558453  1
  Te  Te95  1  0.71643287  0.38764469  0.70409927  1
  Te  Te96  1  0.74678547  0.73630240  0.07186508  1
  Te  Te97  1  0.76108129  0.74589340  0.39672613  1
  Te  Te98  1  0.77436777  0.76327336  0.74382899  1
  Te  Te99  1  0.07901312  0.23847233  0.26777526  1
  Te  Te100  1  0.08237716  0.25606631  0.59841503  1
  Te  Te101  1  0.08967106  0.26334909  0.92008177  1
  Te  Te102  1  0.07628164  0.61023669  0.26309958  1
  Te  Te103  1  0.06769873  0.57904084  0.56505489  1
  Te  Te104  1  0.11274238  0.57962902  0.91770564  1
  Te  Te105  1  0.04611626  0.94386412  0.23629542  1
  Te  Te106  1  0.11476620  0.95327247  0.57611267  1
  Te  Te107  1  0.08662323  0.91832674  0.92367576  1
  Te  Te108  1  0.40016922  0.25729936  0.26621320  1
  Te  Te109  1  0.42122618  0.22215405  0.59126044  1
  Te  Te110  1  0.40437833  0.18664420  0.91168812  1
  Te  Te111  1  0.40905392  0.59224765  0.24758726  1
  Te  Te112  1  0.40610689  0.58530228  0.59297648  1
  Te  Te113  1  0.41644366  0.58362614  0.90839509  1
  Te  Te114  1  0.40921978  0.91722187  0.22126300  1
  Te  Te115  1  0.39672185  0.91666821  0.58136249  1
  Te  Te116  1  0.41695323  0.93744981  0.90140034  1
  Te  Te117  1  0.75456834  0.24905961  0.25600026  1
  Te  Te118  1  0.75944075  0.26236230  0.62312526  1
  Te  Te119  1  0.74578471  0.27013153  0.92064864  1
  Te  Te120  1  0.76899064  0.56887218  0.24717065  1
  Te  Te121  1  0.73316687  0.58964152  0.56515888  1
  Te  Te122  1  0.72679416  0.58284658  0.92148398  1
  Te  Te123  1  0.76160263  0.93996794  0.21890248  1
  Te  Te124  1  0.74179727  0.90510566  0.58594841  1
  Te  Te125  1  0.76750948  0.91804171  0.92460882  1
  Te  Te126  1  0.25878378  0.25412912  0.09957722  1
  Te  Te127  1  0.25756301  0.22622572  0.43654337  1
  Te  Te128  1  0.24618612  0.22859176  0.76547969  1
  Te  Te129  1  0.24380248  0.57238801  0.08250851  1
  Te  Te130  1  0.25702084  0.58504126  0.43124042  1
  Te  Te131  1  0.23111504  0.59562740  0.76583188  1
  Te  Te132  1  0.30118456  0.94172958  0.11045298  1
  Te  Te133  1  0.23859196  0.90595615  0.42468216  1
  Te  Te134  1  0.23016833  0.91661270  0.72396123  1
  Te  Te135  1  0.57420490  0.23994294  0.07797834  1
  Te  Te136  1  0.59816957  0.23523415  0.44110920  1
  Te  Te137  1  0.57472523  0.24107452  0.73450296  1
  Te  Te138  1  0.56708403  0.56205804  0.07433741  1
  Te  Te139  1  0.58341558  0.59894986  0.38182925  1
  Te  Te140  1  0.57364004  0.58409287  0.75215185  1
  Te  Te141  1  0.60417888  0.90257071  0.10063032  1
  Te  Te142  1  0.59812243  0.92524176  0.39523010  1
  Te  Te143  1  0.57446532  0.91321994  0.76786051  1
  Te  Te144  1  0.93498503  0.23204701  0.07532730  1
  Te  Te145  1  0.91494974  0.24553057  0.40986202  1
  Te  Te146  1  0.88242481  0.23867068  0.75588886  1
  Te  Te147  1  0.92929110  0.59374324  0.07340530  1
  Te  Te148  1  0.92318592  0.58261722  0.41563723  1
  Te  Te149  1  0.89206855  0.57323394  0.74315494  1
  Te  Te150  1  0.94350186  0.91321847  0.11216039  1
  Te  Te151  1  0.92271887  0.89559644  0.43829754  1
  Te  Te152  1  0.90485619  0.93287875  0.74930619  1
  Te  Te153  1  0.23731848  0.06425257  0.25826031  1
  Te  Te154  1  0.30129057  0.08902600  0.58819232  1
  Te  Te155  1  0.26009270  0.07028841  0.91980750  1
  Te  Te156  1  0.24790833  0.41220587  0.25933220  1
  Te  Te157  1  0.24881001  0.41950540  0.59190499  1
  Te  Te158  1  0.26925898  0.40005543  0.91710173  1
  Te  Te159  1  0.24990993  0.77662379  0.25565769  1
  Te  Te160  1  0.21795278  0.73981838  0.59345503  1
  Te  Te161  1  0.24786568  0.77180257  0.92641697  1
  Te  Te162  1  0.60003131  0.08269088  0.25727572  1
  Te  Te163  1  0.58003085  0.08563309  0.57534457  1
  Te  Te164  1  0.59288676  0.07866971  0.92306509  1
  Te  Te165  1  0.59205115  0.39278983  0.25783777  1
  Te  Te166  1  0.58966780  0.42716006  0.54332441  1
  Te  Te167  1  0.57038673  0.40710626  0.90074949  1
  Te  Te168  1  0.60571056  0.72799814  0.25740661  1
  Te  Te169  1  0.57991576  0.74327730  0.58262951  1
  Te  Te170  1  0.58322328  0.75467333  0.93363854  1
  Te  Te171  1  0.95257779  0.05347079  0.29462063  1
  Te  Te172  1  0.90060311  0.09499910  0.58721441  1
  Te  Te173  1  0.90705734  0.08109847  0.91767065  1
  Te  Te174  1  0.92949632  0.41228656  0.26391955  1
  Te  Te175  1  0.92057354  0.42102793  0.55317499  1
  Te  Te176  1  0.92581344  0.40943768  0.91947124  1
  Te  Te177  1  0.92666649  0.77104841  0.25056176  1
  Te  Te178  1  0.92566423  0.77832715  0.57446419  1
  Te  Te179  1  0.92845305  0.75590043  0.91848444  1
