# generated using pymatgen
data_In2Te3
_symmetry_space_group_name_H-M   'P 1'
_cell_length_a   18.79505013
_cell_length_b   18.79073391
_cell_length_c   18.79518543
_cell_angle_alpha   89.95858735
_cell_angle_beta   90.00513361
_cell_angle_gamma   90.00670376
_symmetry_Int_Tables_number   1
_chemical_formula_structural   In2Te3
_chemical_formula_sum   'In72 Te108'
_cell_volume   6637.94619213
_cell_formula_units_Z   36
loop_
 _symmetry_equiv_pos_site_id
 _symmetry_equiv_pos_as_xyz
  1  'x, y, z'
loop_
 _atom_site_type_symbol
 _atom_site_label
 _atom_site_symmetry_multiplicity
 _atom_site_fract_x
 _atom_site_fract_y
 _atom_site_fract_z
 _atom_site_occupancy
  In  In0  1  0.66357775  0.67818241  0.66424711  1
  In  In1  1  0.35263157  0.83793049  0.52043861  1
  In  In2  1  0.00018323  0.50048817  0.15945064  1
  In  In3  1  0.82316103  0.00801582  0.48062531  1
  In  In4  1  0.84657612  0.46665135  0.64701263  1
  In  In5  1  0.83252101  0.15056127  0.66695466  1
  In  In6  1  0.02762214  0.67014936  0.65688721  1
  In  In7  1  -0.02052399  0.01508143  0.33765342  1
  In  In8  1  0.17986131  0.16788348  0.31832479  1
  In  In9  1  -0.00707953  0.65153201  0.00057957  1
  In  In10  1  0.51409067  0.84359229  0.01507379  1
  In  In11  1  0.47848153  0.50387071  0.67115579  1
  In  In12  1  0.80636528  0.15399638  0.04985909  1
  In  In13  1  0.17267151  0.50104563  -0.00108501  1
  In  In14  1  0.04072266  0.82590764  0.50162716  1
  In  In15  1  0.35750299  0.18511813  0.85155938  1
  In  In16  1  0.00897522  0.34665597  0.33898054  1
  In  In17  1  0.19923391  0.65584636  0.48360928  1
  In  In18  1  0.80460242  0.18686210  0.29721268  1
  In  In19  1  0.17059246  -0.00604166  0.81429088  1
  In  In20  1  0.63686198  0.47718225  0.87369133  1
  In  In21  1  0.66541232  0.33052181  0.69254301  1
  In  In22  1  0.82952913  0.85102418  0.66809038  1
  In  In23  1  0.49028502  0.67650811  0.83969781  1
  In  In24  1  0.19472779  0.82978254  -0.03421162  1
  In  In25  1  0.02484128  0.15275753  0.85048920  1
  In  In26  1  0.51664521  0.81126313  0.31992399  1
  In  In27  1  0.84038279  0.66481018  0.47706349  1
  In  In28  1  0.15864558  0.81091194  0.33169881  1
  In  In29  1  0.34066995  0.17139215  0.51253350  1
  In  In30  1  0.15325960  0.65483008  0.16236376  1
  In  In31  1  0.35355397  0.82927370  0.80096064  1
  In  In32  1  0.50430227  0.48688350  0.33277198  1
  In  In33  1  0.32728337  0.02623284  0.33870878  1
  In  In34  1  0.48976947  0.32776446  0.48310151  1
  In  In35  1  0.50044405  0.01847002  0.16009680  1
  In  In36  1  0.65007640  0.17735925  0.85582828  1
  In  In37  1  0.64660725  0.49907035  0.16537481  1
  In  In38  1  -0.01697503  0.16532818  0.17818589  1
  In  In39  1  0.82187332  0.32337501  0.52376267  1
  In  In40  1  -0.00429431  0.18281808  0.51475076  1
  In  In41  1  0.51180556  0.01540015  0.82058055  1
  In  In42  1  -0.02520766  -0.00334594  0.00790296  1
  In  In43  1  0.20703412  0.20723002  0.01327874  1
  In  In44  1  0.81601873  -0.01298949  0.84084309  1
  In  In45  1  0.18769194  0.33506861  0.85257673  1
  In  In46  1  0.83390025  0.81408486  0.31804554  1
  In  In47  1  0.19665441  0.52441019  0.67691192  1
  In  In48  1  0.82144438  0.49120330  0.01898591  1
  In  In49  1  0.64257076  0.83925377  0.84068469  1
  In  In50  1  -0.03517294  0.82030195  0.14821616  1
  In  In51  1  0.66281232  0.49623024  0.48099936  1
  In  In52  1  0.65149640  0.00517948  0.32052503  1
  In  In53  1  0.49555492  0.64451270  0.50288285  1
  In  In54  1  0.34245964  0.32725675  0.67122050  1
  In  In55  1  0.35034831  0.01896221  0.00704253  1
  In  In56  1  0.83583066  0.64698491  0.86168420  1
  In  In57  1  0.34157156  0.63877188  0.00067167  1
  In  In58  1  0.15806497  0.34590876  0.48905431  1
  In  In59  1  0.50147807  0.65660210  0.17100913  1
  In  In60  1  0.31169382  0.83058091  0.18634827  1
  In  In61  1  -0.00148526  0.49729900  0.82461808  1
  In  In62  1  0.81667452  0.50616790  0.30856196  1
  In  In63  1  0.00284538  0.80803697  0.81895036  1
  In  In64  1  0.83862047  0.33301541  0.85240399  1
  In  In65  1  0.67266520  0.84875760  0.50351603  1
  In  In66  1  0.17561664  -0.00546838  0.52100249  1
  In  In67  1  0.51534228  0.17002323  0.33253024  1
  In  In68  1  0.49708623  0.34461662  0.14948408  1
  In  In69  1  0.01133154  0.32440071  0.64565814  1
  In  In70  1  0.15736557  0.01532953  0.18650375  1
  In  In71  1  0.33739338  0.37516975  0.31327446  1
  Te  Te72  1  0.07738146  0.08844969  0.07757084  1
  Te  Te73  1  0.09278609  0.08344748  0.41475326  1
  Te  Te74  1  0.08311766  0.08544549  0.73501691  1
  Te  Te75  1  0.08093703  0.41167827  0.07232487  1
  Te  Te76  1  0.11677018  0.44139880  0.38226001  1
  Te  Te77  1  0.09329878  0.41048576  0.74237918  1
  Te  Te78  1  0.09168611  0.75922062  0.06889162  1
  Te  Te79  1  0.06880304  0.71438059  0.40701636  1
  Te  Te80  1  0.11551496  0.75203653  0.74231063  1
  Te  Te81  1  0.43304210  0.12108791  0.07475970  1
  Te  Te82  1  0.43530366  0.08226323  0.42926063  1
  Te  Te83  1  0.40049086  0.08417215  0.75223126  1
  Te  Te84  1  0.38526805  0.38785195  0.05345890  1
  Te  Te85  1  0.40065330  0.44003771  0.43769356  1
  Te  Te86  1  0.41429945  0.41313973  0.76788259  1
  Te  Te87  1  0.39981146  0.76030318  0.08213591  1
  Te  Te88  1  0.41723525  0.74677141  0.41679444  1
  Te  Te89  1  0.42964335  0.73393979  0.71646758  1
  Te  Te90  1  0.69154184  0.06997486  0.08876170  1
  Te  Te91  1  0.73189135  0.10309725  0.40875382  1
  Te  Te92  1  0.73115968  0.08438143  0.75941709  1
  Te  Te93  1  0.73992162  0.39634818  0.10128731  1
  Te  Te94  1  0.75585254  0.39952979  0.41090860  1
  Te  Te95  1  0.75491191  0.43601567  0.77458161  1
  Te  Te96  1  0.80637812  0.79172760  0.05222927  1
  Te  Te97  1  0.72989175  0.74329444  0.40856170  1
  Te  Te98  1  0.75564075  0.75389314  0.76268809  1
  Te  Te99  1  0.08790959  0.25898058  0.23967204  1
  Te  Te100  1  0.11849990  0.23296537  0.58723604  1
  Te  Te101  1  0.08056707  0.26380714  0.93490780  1
  Te  Te102  1  0.08435257  0.56908598  0.26244957  1
  Te  Te103  1  0.09675110  0.56840515  0.57057921  1
  Te  Te104  1  0.08900306  0.59379203  0.89974219  1
  Te  Te105  1  0.06458808  0.91213523  0.25391886  1
  Te  Te106  1  0.08157442  0.91847897  0.60699504  1
  Te  Te107  1  0.07288822  0.91973131  0.91850219  1
  Te  Te108  1  0.42078156  0.26015287  0.25507474  1
  Te  Te109  1  0.44732546  0.23904254  0.59904425  1
  Te  Te110  1  0.42579463  0.27649460  0.94923514  1
  Te  Te111  1  0.41042788  0.57139323  0.25271218  1
  Te  Te112  1  0.39004360  0.59746641  0.59695247  1
  Te  Te113  1  0.44784213  0.56236173  0.92822656  1
  Te  Te114  1  0.41547452  0.92271556  0.25244857  1
  Te  Te115  1  0.42437724  0.95079066  0.58864523  1
  Te  Te116  1  0.41459684  0.91120495  0.91880023  1
  Te  Te117  1  0.73659612  0.27399894  0.20048226  1
  Te  Te118  1  0.72277594  0.22803047  0.59271878  1
  Te  Te119  1  0.74785792  0.25586579  0.94340544  1
  Te  Te120  1  0.73282716  0.60031749  0.23178461  1
  Te  Te121  1  0.74991294  0.57984041  0.58232761  1
  Te  Te122  1  0.72439951  0.58288214  0.94540077  1
  Te  Te123  1  0.74024622  0.90783769  0.25298133  1
  Te  Te124  1  0.73818753  0.95080367  0.59675595  1
  Te  Te125  1  0.73687244  0.90533457  0.93703751  1
  Te  Te126  1  0.26439712  0.30456665  0.11000190  1
  Te  Te127  1  0.26359796  0.25778656  0.40941751  1
  Te  Te128  1  0.24961633  0.23724757  0.75494782  1
  Te  Te129  1  0.26400147  0.56376113  0.10864645  1
  Te  Te130  1  0.27595469  0.59372445  0.37462773  1
  Te  Te131  1  0.25955679  0.59842801  0.78471194  1
  Te  Te132  1  0.24170073  0.92578878  0.08630967  1
  Te  Te133  1  0.24869700  0.91257912  0.40671938  1
  Te  Te134  1  0.26341266  0.91942908  0.72637277  1
  Te  Te135  1  0.57147758  0.25770572  0.05157452  1
  Te  Te136  1  0.60046258  0.25565590  0.41931826  1
  Te  Te137  1  0.56179393  0.25409110  0.76340541  1
  Te  Te138  1  0.54465287  0.55490145  0.07010460  1
  Te  Te139  1  0.59199921  0.59743930  0.39274943  1
  Te  Te140  1  0.59476406  0.57781267  0.75704659  1
  Te  Te141  1  0.60547085  0.92785640  0.09911798  1
  Te  Te142  1  0.56873136  0.91914019  0.41566339  1
  Te  Te143  1  0.56823263  0.90817235  0.72862055  1
  Te  Te144  1  0.91117675  0.25169766  0.08287705  1
  Te  Te145  1  0.91246069  0.23652003  0.40187323  1
  Te  Te146  1  0.91580373  0.25494180  0.74420040  1
  Te  Te147  1  0.89382961  0.59817857  0.10131736  1
  Te  Te148  1  0.91233170  0.55552519  0.41196348  1
  Te  Te149  1  0.91422646  0.58711572  0.73436863  1
  Te  Te150  1  0.87142839  0.92761456  0.09550833  1
  Te  Te151  1  0.91927376  0.89981962  0.42672075  1
  Te  Te152  1  0.92808299  0.92756931  0.75547120  1
  Te  Te153  1  0.27747135  0.10604503  0.21764848  1
  Te  Te154  1  0.27613398  0.07001357  0.60112815  1
  Te  Te155  1  0.24045119  0.08603188  0.92272704  1
  Te  Te156  1  0.23270071  0.41338697  0.21837917  1
  Te  Te157  1  0.25591096  0.41854401  0.58358806  1
  Te  Te158  1  0.27501706  0.44104231  0.90636937  1
  Te  Te159  1  0.26346781  0.71244789  0.27237005  1
  Te  Te160  1  0.24190179  0.75974337  0.57943653  1
  Te  Te161  1  0.26760474  0.71740409  0.88840671  1
  Te  Te162  1  0.60777527  0.11935987  0.21978393  1
  Te  Te163  1  0.55219237  0.01917329  0.61763834  1
  Te  Te164  1  0.57743826  0.07618808  0.93871610  1
  Te  Te165  1  0.59516555  0.38979798  0.26148951  1
  Te  Te166  1  0.58536158  0.42009109  0.58811511  1
  Te  Te167  1  0.56395500  0.36386292  0.94167453  1
  Te  Te168  1  0.60003355  0.76077648  0.20909708  1
  Te  Te169  1  0.57110523  0.75917164  0.57661465  1
  Te  Te170  1  0.59128278  0.73565200  0.94117017  1
  Te  Te171  1  0.87961399  0.06684320  0.23695609  1
  Te  Te172  1  0.92604511  0.06567999  0.58086649  1
  Te  Te173  1  0.89711127  0.09900930  0.91582585  1
  Te  Te174  1  0.91023730  0.40450627  0.23894370  1
  Te  Te175  1  0.94544361  0.41473117  0.54188506  1
  Te  Te176  1  0.93046233  0.42009192  0.93743962  1
  Te  Te177  1  0.92688533  0.72189206  0.25023228  1
  Te  Te178  1  0.91135364  0.75177951  0.58503957  1
  Te  Te179  1  0.90452806  0.77019946  0.93518363  1
