# generated using pymatgen
data_In2Te3
_symmetry_space_group_name_H-M   'P 1'
_cell_length_a   18.77053788
_cell_length_b   18.76592457
_cell_length_c   18.76452908
_cell_angle_alpha   90.00429030
_cell_angle_beta   90.02985327
_cell_angle_gamma   89.95379435
_symmetry_Int_Tables_number   1
_chemical_formula_structural   In2Te3
_chemical_formula_sum   'In72 Te108'
_cell_volume   6609.73658797
_cell_formula_units_Z   36
loop_
 _symmetry_equiv_pos_site_id
 _symmetry_equiv_pos_as_xyz
  1  'x, y, z'
loop_
 _atom_site_type_symbol
 _atom_site_label
 _atom_site_symmetry_multiplicity
 _atom_site_fract_x
 _atom_site_fract_y
 _atom_site_fract_z
 _atom_site_occupancy
  In  In0  1  0.67892328  0.48786257  0.17494902  1
  In  In1  1  -0.00232303  0.82799625  0.83335455  1
  In  In2  1  0.16533480  0.67352682  0.82970573  1
  In  In3  1  0.48608882  0.30525062  0.81355498  1
  In  In4  1  0.20215984  0.31195657  0.82014994  1
  In  In5  1  0.48900564  0.67855003  0.83342795  1
  In  In6  1  0.50588245  0.84219239  0.00046668  1
  In  In7  1  0.48700480  0.85384462  0.35300810  1
  In  In8  1  0.50725905  0.66750498  0.16515480  1
  In  In9  1  0.66887331  0.31063302  0.34024691  1
  In  In10  1  0.16165577  -0.01114281  0.50189394  1
  In  In11  1  0.84385099  0.48314508  0.01129466  1
  In  In12  1  0.64382108  0.01021662  -0.01346368  1
  In  In13  1  0.01484144  0.67620257  0.31789531  1
  In  In14  1  0.66276283  0.68438852  -0.00212633  1
  In  In15  1  0.84966847  0.13726292  0.64570408  1
  In  In16  1  0.50976810  0.45817891  -0.01980748  1
  In  In17  1  0.63740571  0.33055810  0.66421122  1
  In  In18  1  0.52543649  0.67499854  0.49870507  1
  In  In19  1  0.82649726  0.84370517  0.00887311  1
  In  In20  1  0.00204485  0.17045748  0.15805549  1
  In  In21  1  0.16826445  0.33677615  0.17859450  1
  In  In22  1  0.31151173  0.67395773  0.32206331  1
  In  In23  1  0.67341443  0.87181306  0.50211620  1
  In  In24  1  0.15755580  0.32447176  0.50312962  1
  In  In25  1  0.32387357  0.16521735  0.52240038  1
  In  In26  1  0.63503974  0.47037088  0.85140944  1
  In  In27  1  0.84635384  0.84573855  0.64472131  1
  In  In28  1  0.15686552  0.15072949  -0.01142116  1
  In  In29  1  0.02299789  0.50201579  0.48620792  1
  In  In30  1  0.32524613  0.67825103  0.66588817  1
  In  In31  1  0.82404841  0.00379973  0.17177408  1
  In  In32  1  0.85444538  0.67595642  0.50056364  1
  In  In33  1  0.81756847  0.48194511  0.68019134  1
  In  In34  1  -0.00235426  0.14548817  0.82291201  1
  In  In35  1  0.16450768  0.17822171  0.31647621  1
  In  In36  1  0.65514069  0.17803088  0.16099715  1
  In  In37  1  0.34890056  0.87331772  0.52004064  1
  In  In38  1  0.83296697  0.16932429  0.36293986  1
  In  In39  1  0.34147287  0.32796336  -0.01782540  1
  In  In40  1  0.83416324  0.33229228  0.48327785  1
  In  In41  1  0.68593293  0.65705482  0.31147035  1
  In  In42  1  0.33622581  0.48139808  0.83247970  1
  In  In43  1  0.32311311  0.01548803  0.34503434  1
  In  In44  1  -0.01239184  0.48059447  0.19047502  1
  In  In45  1  0.49227897  0.47133802  0.34204148  1
  In  In46  1  0.68076889  0.46054659  0.50067949  1
  In  In47  1  0.00651541  0.31220898  0.66462516  1
  In  In48  1  -0.01709491  0.00014106  -0.00327725  1
  In  In49  1  0.50112681  0.49892141  0.68247869  1
  In  In50  1  0.50023359  0.16464696  0.32568703  1
  In  In51  1  0.81730762  0.66537759  0.82410105  1
  In  In52  1  0.31622684  0.84689413  0.82714747  1
  In  In53  1  0.67461126  0.69840317  0.65270035  1
  In  In54  1  0.30009619  0.64977408  0.01339738  1
  In  In55  1  0.82622588  0.01393529  0.82616891  1
  In  In56  1  0.32240978  0.48245230  0.49512967  1
  In  In57  1  0.85539073  0.84085434  0.33760923  1
  In  In58  1  0.34180093  0.15940201  0.17564030  1
  In  In59  1  0.49477737  0.03692986  0.80429462  1
  In  In60  1  0.00642219  0.67989825  0.65978705  1
  In  In61  1  0.68099109  0.84743984  0.14717089  1
  In  In62  1  0.31638351  0.84354122  0.18034996  1
  In  In63  1  0.03361204  0.69011174  0.03197524  1
  In  In64  1  0.65234424  0.13938872  0.52294532  1
  In  In65  1  -0.01471448  0.33374129  0.01132710  1
  In  In66  1  0.16793639  0.67707943  0.48694785  1
  In  In67  1  0.16224735  0.00873430  0.81469601  1
  In  In68  1  0.02557663  -0.02223316  0.33609575  1
  In  In69  1  0.01834974  0.48222508  0.84053913  1
  In  In70  1  0.31570677  0.48861934  0.15059264  1
  In  In71  1  0.34097262  0.01632395  0.01622582  1
  Te  Te72  1  0.08722466  0.06274103  0.09195668  1
  Te  Te73  1  0.08710824  0.09367155  0.41611323  1
  Te  Te74  1  0.09763572  0.10776991  0.71991659  1
  Te  Te75  1  0.08467256  0.42219971  0.08307092  1
  Te  Te76  1  0.08150418  0.39976605  0.39851291  1
  Te  Te77  1  0.10164780  0.40540807  0.74066310  1
  Te  Te78  1  0.10188384  0.78896408  0.11665529  1
  Te  Te79  1  0.07372248  0.76968135  0.41934687  1
  Te  Te80  1  0.10150566  0.77396025  0.73427501  1
  Te  Te81  1  0.44105992  0.10608698  0.07848894  1
  Te  Te82  1  0.42230596  0.08509372  0.43384799  1
  Te  Te83  1  0.39370478  0.12371635  0.72959669  1
  Te  Te84  1  0.42244036  0.39622306  0.09260224  1
  Te  Te85  1  0.41477752  0.38434150  0.43213729  1
  Te  Te86  1  0.39726645  0.39425678  0.72421058  1
  Te  Te87  1  0.41143392  0.74960866  0.07800827  1
  Te  Te88  1  0.40663550  0.74267643  0.42419540  1
  Te  Te89  1  0.42025206  0.77379713  0.73791648  1
  Te  Te90  1  0.74650424  0.08601993  0.07086293  1
  Te  Te91  1  0.74947037  0.06996462  0.43406594  1
  Te  Te92  1  0.74267653  0.10726252  0.74645644  1
  Te  Te93  1  0.74986278  0.38696972  0.08080163  1
  Te  Te94  1  0.77332701  0.42883530  0.37876214  1
  Te  Te95  1  0.73780060  0.38981909  0.76675349  1
  Te  Te96  1  0.76706452  0.73143137  0.09730522  1
  Te  Te97  1  0.74243985  0.74906124  0.42520133  1
  Te  Te98  1  0.75334234  0.78311453  0.75264928  1
  Te  Te99  1  0.05504378  0.27104293  0.25972434  1
  Te  Te100  1  0.09309124  0.21798261  0.58931879  1
  Te  Te101  1  0.07976638  0.25520019  0.90651547  1
  Te  Te102  1  0.09377233  0.57163374  0.24463850  1
  Te  Te103  1  0.10082806  0.58243887  0.59024375  1
  Te  Te104  1  0.08729068  0.58590309  0.92699286  1
  Te  Te105  1  0.09270866  0.88429296  0.24260126  1
  Te  Te106  1  0.05476073  0.94965951  0.59808737  1
  Te  Te107  1  0.08606303  0.92080665  0.91673862  1
  Te  Te108  1  0.40920751  0.26073143  0.25825217  1
  Te  Te109  1  0.41874634  0.23031197  0.62016927  1
  Te  Te110  1  0.41581902  0.22059380  0.91374130  1
  Te  Te111  1  0.41824296  0.58218915  0.25469370  1
  Te  Te112  1  0.42022083  0.58972653  0.58118288  1
  Te  Te113  1  0.41578690  0.58101283  0.92613412  1
  Te  Te114  1  0.41608019  0.93750546  0.24607107  1
  Te  Te115  1  0.44614596  0.94693346  0.60621647  1
  Te  Te116  1  0.42336292  0.92812146  0.90417779  1
  Te  Te117  1  0.76875229  0.24409540  0.24642013  1
  Te  Te118  1  0.74848642  0.25353797  0.58151458  1
  Te  Te119  1  0.74918732  0.28633408  0.96764141  1
  Te  Te120  1  0.78389075  0.57567430  0.23434413  1
  Te  Te121  1  0.74916908  0.58159476  0.58056462  1
  Te  Te122  1  0.74448845  0.57114551  0.92104615  1
  Te  Te123  1  0.74085519  0.91886745  0.26721648  1
  Te  Te124  1  0.75744081  0.95361638  0.59435128  1
  Te  Te125  1  0.73926346  0.91811262  0.90924652  1
  Te  Te126  1  0.24134053  0.24443825  0.07756056  1
  Te  Te127  1  0.26014578  0.24908783  0.41002340  1
  Te  Te128  1  0.27478527  0.22694784  0.72426388  1
  Te  Te129  1  0.21331940  0.59390941  0.12019556  1
  Te  Te130  1  0.23485999  0.56838183  0.40252613  1
  Te  Te131  1  0.24791986  0.57494402  0.74721694  1
  Te  Te132  1  0.24692309  0.91668878  0.07098676  1
  Te  Te133  1  0.24691936  0.90075945  0.40895547  1
  Te  Te134  1  0.25550295  0.93459673  0.72240602  1
  Te  Te135  1  0.56837205  0.25898458  0.07374713  1
  Te  Te136  1  0.57590176  0.24234913  0.43772772  1
  Te  Te137  1  0.59805055  0.22048123  0.75695138  1
  Te  Te138  1  0.58403272  0.57107649  0.07493757  1
  Te  Te139  1  0.59615162  0.57215903  0.40741759  1
  Te  Te140  1  0.60001799  0.59482650  0.75011819  1
  Te  Te141  1  0.56886017  0.93890076  0.09999201  1
  Te  Te142  1  0.57931276  0.94912632  0.41668656  1
  Te  Te143  1  0.57675448  0.94416466  0.72352860  1
  Te  Te144  1  0.89459371  0.24099606  0.08211943  1
  Te  Te145  1  0.93980603  0.24088520  0.43637774  1
  Te  Te146  1  0.90194566  0.24088240  0.74869549  1
  Te  Te147  1  0.93529605  0.58273689  0.08340790  1
  Te  Te148  1  0.92049049  0.58079608  0.40543843  1
  Te  Te149  1  0.92483023  0.58325651  0.74832458  1
  Te  Te150  1  0.92462240  0.90810487  0.10454293  1
  Te  Te151  1  0.91085061  0.94478657  0.42914596  1
  Te  Te152  1  0.92954223  0.93350216  0.74776158  1
  Te  Te153  1  0.23277754  0.06914579  0.23431039  1
  Te  Te154  1  0.25894424  0.05220031  0.59836599  1
  Te  Te155  1  0.26262824  0.08707767  0.90111574  1
  Te  Te156  1  0.26388023  0.40994736  0.26372668  1
  Te  Te157  1  0.24155419  0.40887511  0.59311697  1
  Te  Te158  1  0.23498573  0.42335863  0.92835697  1
  Te  Te159  1  0.21006978  0.76092482  0.25090710  1
  Te  Te160  1  0.24507323  0.77363501  0.57925132  1
  Te  Te161  1  0.23821912  0.76283258  0.93021132  1
  Te  Te162  1  0.60149409  0.07969146  0.25951113  1
  Te  Te163  1  0.56309388  0.05154835  0.60874138  1
  Te  Te164  1  0.58161642  0.11349152  0.89997801  1
  Te  Te165  1  0.58097901  0.39366304  0.24457011  1
  Te  Te166  1  0.55256265  0.41112941  0.56609694  1
  Te  Te167  1  0.60423756  0.33768805  0.94238130  1
  Te  Te168  1  0.58267655  0.76271447  0.25629235  1
  Te  Te169  1  0.57089258  0.78816505  0.58947572  1
  Te  Te170  1  0.59348009  0.77264930  0.89523505  1
  Te  Te171  1  0.92571760  0.07879231  0.25747464  1
  Te  Te172  1  0.93677830  0.04099568  0.56699449  1
  Te  Te173  1  0.89548630  0.10471913  0.92984034  1
  Te  Te174  1  0.87374931  0.41463849  0.25601953  1
  Te  Te175  1  0.92104387  0.42325494  0.58341964  1
  Te  Te176  1  0.90402493  0.40042813  0.89568026  1
  Te  Te177  1  0.91184218  0.74931989  0.23853748  1
  Te  Te178  1  0.95353216  0.77868892  0.55571532  1
  Te  Te179  1  0.91377612  0.73694734  0.92315351  1
