# generated using pymatgen
data_In2Te3
_symmetry_space_group_name_H-M   'P 1'
_cell_length_a   18.97983230
_cell_length_b   19.00187712
_cell_length_c   19.02515935
_cell_angle_alpha   89.91117097
_cell_angle_beta   90.07523162
_cell_angle_gamma   89.94664408
_symmetry_Int_Tables_number   1
_chemical_formula_structural   In2Te3
_chemical_formula_sum   'In72 Te108'
_cell_volume   6861.45301505
_cell_formula_units_Z   36
loop_
 _symmetry_equiv_pos_site_id
 _symmetry_equiv_pos_as_xyz
  1  'x, y, z'
loop_
 _atom_site_type_symbol
 _atom_site_label
 _atom_site_symmetry_multiplicity
 _atom_site_fract_x
 _atom_site_fract_y
 _atom_site_fract_z
 _atom_site_occupancy
  In  In0  1  0.85248969  0.82372932  0.01245143  1
  In  In1  1  0.68211088  0.85046829  0.17067071  1
  In  In2  1  0.66494192  0.32604704  -0.01380397  1
  In  In3  1  0.48611113  0.65695275  0.81457779  1
  In  In4  1  0.17564740  0.85153628  0.33466453  1
  In  In5  1  0.16319574  0.12203576  -0.02207872  1
  In  In6  1  0.34008325  0.17225238  0.50473119  1
  In  In7  1  0.56582300  0.63582752  -0.01288174  1
  In  In8  1  0.81292467  0.14362450  0.01095655  1
  In  In9  1  0.52022804  -0.01320181  0.46622255  1
  In  In10  1  0.81129437  0.34948747  0.18055568  1
  In  In11  1  0.48080289  0.33610577  0.83162650  1
  In  In12  1  0.48289998  0.32948317  0.15745370  1
  In  In13  1  0.34133466  0.80740251  0.83024025  1
  In  In14  1  0.82621268  0.83508325  0.34092690  1
  In  In15  1  0.67820413  0.68080699  0.32592504  1
  In  In16  1  0.84456531  0.16294005  0.34775961  1
  In  In17  1  0.30760252  0.53540086  0.16993386  1
  In  In18  1  0.01243459  0.35267321  0.00593384  1
  In  In19  1  0.65861768  0.34479419  0.67292259  1
  In  In20  1  0.31316399  0.50808451  0.80832038  1
  In  In21  1  -0.02259063  0.50971937  0.50874079  1
  In  In22  1  0.35759678  0.31528296  0.34943245  1
  In  In23  1  0.00937575  0.66211703  -0.01989008  1
  In  In24  1  0.82823800  0.66638851  0.17417537  1
  In  In25  1  -0.01089819  0.16615617  0.13094986  1
  In  In26  1  0.19944845  0.16606214  0.32697460  1
  In  In27  1  0.37247839  0.80417306  0.14695390  1
  In  In28  1  0.64414374  0.50368837  0.84120992  1
  In  In29  1  0.79779189  0.55746847  0.65341887  1
  In  In30  1  0.52762224  0.12603712  0.30318711  1
  In  In31  1  0.15797200  0.17584388  0.65237818  1
  In  In32  1  0.14699434  0.51326487  0.66667997  1
  In  In33  1  0.82275215  0.51587659  -0.00258853  1
  In  In34  1  0.30965399  0.34608467  0.66541039  1
  In  In35  1  0.00400145  0.84011956  0.50149164  1
  In  In36  1  0.00160247  0.17154754  0.81221576  1
  In  In37  1  0.83566942  0.49720837  0.34340961  1
  In  In38  1  0.37365249  -0.04774228  0.68931623  1
  In  In39  1  -0.00266068  0.18798346  0.50188433  1
  In  In40  1  0.51755373  0.65179818  0.51328147  1
  In  In41  1  0.84841142  0.32051673  0.85690665  1
  In  In42  1  0.15426657  0.71069504  0.16199251  1
  In  In43  1  0.00485361  0.67861647  0.32686614  1
  In  In44  1  0.35087569  -0.03713026  -0.00342861  1
  In  In45  1  0.01003154  0.01804819  0.31160682  1
  In  In46  1  0.17615405  -0.01053324  0.50473403  1
  In  In47  1  0.67342304  0.33302164  0.33968606  1
  In  In48  1  0.82335116  0.00965430  0.81983507  1
  In  In49  1  0.00172688  0.34002605  0.32539480  1
  In  In50  1  -0.00178188  0.83204836  0.83471818  1
  In  In51  1  0.52604392  0.35678670  0.50664103  1
  In  In52  1  0.64749144  0.18598849  0.51579647  1
  In  In53  1  0.16832015  0.34301453  0.18283430  1
  In  In54  1  0.17991020  0.53111404  0.34924455  1
  In  In55  1  0.01489559  0.00866378  0.64768606  1
  In  In56  1  0.51890356  0.15186390  -0.00506021  1
  In  In57  1  0.15005386  0.32973393  0.79918233  1
  In  In58  1  0.48861683  0.48460682  0.34129924  1
  In  In59  1  0.80948787  -0.00966638  0.51271253  1
  In  In60  1  0.47820928  0.15374945  0.68936936  1
  In  In61  1  -0.00527181  -0.02481635  -0.00142699  1
  In  In62  1  0.34564084  0.67531258  0.37863687  1
  In  In63  1  0.80300640  0.81756048  0.68370872  1
  In  In64  1  0.36473479  0.80784749  0.53209989  1
  In  In65  1  0.66315943  -0.01733184  -0.02116779  1
  In  In66  1  0.33418027  0.33683563  0.00846743  1
  In  In67  1  0.35433458  -0.02640452  0.30441679  1
  In  In68  1  0.65093489  -0.02369956  0.70268363  1
  In  In69  1  0.33158329  0.13281472  0.12993611  1
  In  In70  1  0.17454097  0.52382006  -0.01846279  1
  In  In71  1  -0.02569903  0.66600559  0.68492053  1
  Te  Te72  1  0.09013061  0.06118331  0.09142257  1
  Te  Te73  1  0.09516145  0.09111105  0.42370842  1
  Te  Te74  1  0.10027143  0.07452700  0.75358624  1
  Te  Te75  1  0.10081209  0.44135499  0.08999787  1
  Te  Te76  1  0.07615021  0.43836205  0.41121388  1
  Te  Te77  1  0.06334553  0.43956274  0.76342557  1
  Te  Te78  1  0.07487897  0.77240366  0.05445549  1
  Te  Te79  1  0.09795934  0.75346972  0.42041684  1
  Te  Te80  1  0.08092958  0.73154750  0.76540408  1
  Te  Te81  1  0.44746493  0.05284328  0.08473536  1
  Te  Te82  1  0.40956181  0.08297138  0.40372022  1
  Te  Te83  1  0.44087458  0.04519551  0.78230587  1
  Te  Te84  1  0.40105501  0.44196369  0.09369357  1
  Te  Te85  1  0.39913730  0.42231969  0.44837326  1
  Te  Te86  1  0.41770733  0.42936368  0.73048265  1
  Te  Te87  1  0.46027632  0.69407473  0.08581847  1
  Te  Te88  1  0.45941217  0.76343172  0.42354565  1
  Te  Te89  1  0.40658615  0.73200521  0.70845827  1
  Te  Te90  1  0.71229074  0.07221719  0.09048933  1
  Te  Te91  1  0.73738635  0.09583773  0.43076273  1
  Te  Te92  1  0.74257814  0.08705636  0.72711420  1
  Te  Te93  1  0.72969219  0.42698555  0.07905834  1
  Te  Te94  1  0.74000533  0.42655060  0.42856286  1
  Te  Te95  1  0.74352166  0.40752686  0.78290416  1
  Te  Te96  1  0.74187374  0.74383982  0.07833477  1
  Te  Te97  1  0.74616578  0.75610749  0.43594157  1
  Te  Te98  1  0.69768869  0.73975753  0.75219418  1
  Te  Te99  1  0.07573875  0.23239568  0.24591275  1
  Te  Te100  1  0.06754367  0.27586145  0.59567789  1
  Te  Te101  1  0.08449993  0.24662106  0.92556010  1
  Te  Te102  1  0.09469053  0.59365379  0.24002153  1
  Te  Te103  1  0.06655057  0.60895769  0.57795798  1
  Te  Te104  1  0.10062388  0.60133069  0.87980411  1
  Te  Te105  1  0.07690486  0.90815993  0.24379011  1
  Te  Te106  1  0.10551647  0.89594700  0.59949021  1
  Te  Te107  1  0.09520812  0.89756001  0.92517005  1
  Te  Te108  1  0.40146105  0.22696032  0.23504046  1
  Te  Te109  1  0.42795238  0.26204814  0.58875135  1
  Te  Te110  1  0.41196398  0.23834484  0.92488662  1
  Te  Te111  1  0.40779233  0.59059336  0.26865101  1
  Te  Te112  1  0.38857348  0.58312029  0.52889835  1
  Te  Te113  1  0.39877065  0.57707904  0.91158033  1
  Te  Te114  1  0.45282657  0.89059075  0.23726235  1
  Te  Te115  1  0.47077657  0.90041429  0.58701975  1
  Te  Te116  1  0.44082892  0.86887367  0.92390502  1
  Te  Te117  1  0.74697720  0.23427075  0.25179175  1
  Te  Te118  1  0.74663099  0.25945014  0.59149717  1
  Te  Te119  1  0.74015405  0.22311783  0.90577338  1
  Te  Te120  1  0.74119168  0.56728677  0.24656826  1
  Te  Te121  1  0.72893169  0.64295867  0.55443866  1
  Te  Te122  1  0.71100300  0.59728802  0.93719319  1
  Te  Te123  1  0.74035389  0.94670063  0.28441329  1
  Te  Te124  1  0.71489288  0.90079316  0.58729565  1
  Te  Te125  1  0.76972074  0.90135905  0.90638839  1
  Te  Te126  1  0.23620242  0.24800587  0.08576317  1
  Te  Te127  1  0.24000896  0.26257229  0.43425714  1
  Te  Te128  1  0.25883843  0.23552653  0.75418414  1
  Te  Te129  1  0.24615611  0.62861034  0.06689365  1
  Te  Te130  1  0.24735575  0.60033379  0.46327674  1
  Te  Te131  1  0.25740918  0.60508360  0.71177205  1
  Te  Te132  1  0.26766651  0.88675516  0.09028179  1
  Te  Te133  1  0.28357579  0.90981907  0.43312758  1
  Te  Te134  1  0.25436819  0.90109245  0.75562147  1
  Te  Te135  1  0.59008064  0.24568662  0.09150172  1
  Te  Te136  1  0.55840493  0.24560236  0.39908024  1
  Te  Te137  1  0.57609198  0.24585433  0.75841526  1
  Te  Te138  1  0.57528421  0.60899801  0.12908348  1
  Te  Te139  1  0.58903238  0.57850693  0.40149031  1
  Te  Te140  1  0.57104750  0.56895673  0.72930158  1
  Te  Te141  1  0.59111450  0.88270963  0.05984588  1
  Te  Te142  1  0.61763504  0.92593788  0.37721665  1
  Te  Te143  1  0.60172728  0.85949888  0.77651294  1
  Te  Te144  1  0.89536360  0.27156640  0.07150875  1
  Te  Te145  1  0.90447543  0.27975832  0.42363091  1
  Te  Te146  1  0.91360737  0.26140025  0.74050143  1
  Te  Te147  1  0.92231869  0.58940223  0.08460418  1
  Te  Te148  1  0.90610594  0.60916605  0.41665910  1
  Te  Te149  1  0.87860595  0.59269324  0.76885102  1
  Te  Te150  1  0.89411973  0.93539137  0.09591534  1
  Te  Te151  1  0.92447935  0.93930722  0.41754166  1
  Te  Te152  1  0.91545756  0.92314405  0.72981585  1
  Te  Te153  1  0.24793684  0.05760090  0.23484209  1
  Te  Te154  1  0.26422832  0.07628293  0.59347831  1
  Te  Te155  1  0.27934710  0.06432577  0.91578819  1
  Te  Te156  1  0.26502444  0.41770809  0.27166853  1
  Te  Te157  1  0.21127248  0.41095786  0.58126495  1
  Te  Te158  1  0.24355549  0.40444511  0.90674093  1
  Te  Te159  1  0.26530772  0.75167204  0.26272126  1
  Te  Te160  1  0.27478276  0.74723129  0.63071257  1
  Te  Te161  1  0.29952187  0.69495467  0.91661008  1
  Te  Te162  1  0.61983370  0.04517234  0.22667868  1
  Te  Te163  1  0.55888683  0.08300824  0.58152640  1
  Te  Te164  1  0.57424953  0.06383272  0.89013930  1
  Te  Te165  1  0.57703777  0.40807892  0.24573358  1
  Te  Te166  1  0.60368206  0.45122500  0.58525985  1
  Te  Te167  1  0.55620709  0.41780913  0.93373977  1
  Te  Te168  1  0.58693234  0.77816372  0.26033890  1
  Te  Te169  1  0.60880726  0.70204379  0.62411113  1
  Te  Te170  1  0.56160181  0.76246579  0.89892055  1
  Te  Te171  1  0.90319944  0.08771159  0.22899716  1
  Te  Te172  1  0.90943542  0.09019725  0.57661304  1
  Te  Te173  1  0.92352426  0.08911981  0.91695428  1
  Te  Te174  1  0.92478956  0.43259691  0.23491035  1
  Te  Te175  1  0.87870795  0.44891578  0.59687972  1
  Te  Te176  1  0.92640209  0.43796534  0.91666243  1
  Te  Te177  1  0.91791729  0.76870722  0.24107688  1
  Te  Te178  1  0.90655079  0.76311641  0.58501490  1
  Te  Te179  1  0.90158566  0.73529651  0.90019239  1
