# generated using pymatgen
data_In2Te3
_symmetry_space_group_name_H-M   'P 1'
_cell_length_a   18.88415983
_cell_length_b   18.91413423
_cell_length_c   18.90839774
_cell_angle_alpha   89.95243979
_cell_angle_beta   89.83331719
_cell_angle_gamma   90.00845015
_symmetry_Int_Tables_number   1
_chemical_formula_structural   In2Te3
_chemical_formula_sum   'In72 Te108'
_cell_volume   6753.62388952
_cell_formula_units_Z   36
loop_
 _symmetry_equiv_pos_site_id
 _symmetry_equiv_pos_as_xyz
  1  'x, y, z'
loop_
 _atom_site_type_symbol
 _atom_site_label
 _atom_site_symmetry_multiplicity
 _atom_site_fract_x
 _atom_site_fract_y
 _atom_site_fract_z
 _atom_site_occupancy
  In  In0  1  0.50334666  0.49788291  0.68132570  1
  In  In1  1  0.82460461  0.50026024  0.01608602  1
  In  In2  1  0.83173800  -0.02135879  0.81489063  1
  In  In3  1  0.83758497  0.15327933  0.61719869  1
  In  In4  1  0.53464082  -0.01442438  0.50176927  1
  In  In5  1  0.29995381  0.49817000  0.51057877  1
  In  In6  1  0.70643906  0.16603797  0.18371799  1
  In  In7  1  0.00113043  0.66366141  -0.01052187  1
  In  In8  1  0.17582444  0.49726370  0.32652151  1
  In  In9  1  0.51377870  0.00329175  0.15729295  1
  In  In10  1  0.70358277  0.84314327  0.46428542  1
  In  In11  1  0.51401131  0.64321645  0.16459643  1
  In  In12  1  0.86011717  0.70108061  0.46181845  1
  In  In13  1  0.33060672  0.82802791  0.51140838  1
  In  In14  1  0.89321696  0.04522991  0.43455290  1
  In  In15  1  0.32379571  0.65113079  -0.00500936  1
  In  In16  1  0.66743558  0.49892144  0.84609233  1
  In  In17  1  0.00942217  0.65340900  0.66937534  1
  In  In18  1  0.85646108  0.14840003  0.02325624  1
  In  In19  1  0.34684131  0.67209584  0.32234106  1
  In  In20  1  0.81382837  0.34195421  0.82990064  1
  In  In21  1  0.14470205  0.70241875  0.20692237  1
  In  In22  1  0.33892393  0.35824664  0.66472726  1
  In  In23  1  0.30762203  0.67786678  0.68611277  1
  In  In24  1  0.19061450  0.36515313  0.86786093  1
  In  In25  1  0.14216103  0.84246548  0.65313543  1
  In  In26  1  0.50493545  0.17019266  0.33240917  1
  In  In27  1  0.29687717  0.15632351  0.16867023  1
  In  In28  1  0.64377611  0.15835992  0.83110805  1
  In  In29  1  0.88408646  0.27936423  0.22932587  1
  In  In30  1  0.17853850  0.82776679  -0.00986879  1
  In  In31  1  0.50068395  0.66705902  0.50558489  1
  In  In32  1  0.31436206  0.01407021  0.32763941  1
  In  In33  1  0.48310099  0.32210396  0.49284542  1
  In  In34  1  0.49460145  0.83990553  0.02170814  1
  In  In35  1  0.09066649  -0.05568300  0.42232329  1
  In  In36  1  0.67457859  0.30922596  0.67235176  1
  In  In37  1  0.65713708  0.49272851  0.17333315  1
  In  In38  1  0.85844650  -0.02668638  0.20874423  1
  In  In39  1  0.86986650  0.34712559  0.46830790  1
  In  In40  1  -0.01309671  0.16938419  0.82074495  1
  In  In41  1  0.65713559  0.00384647  0.64670594  1
  In  In42  1  0.00482164  0.51145606  0.82609084  1
  In  In43  1  0.50018582  -0.01073658  0.85993219  1
  In  In44  1  0.87844067  0.68284221  0.17305625  1
  In  In45  1  0.16371043  0.49942032  0.65712746  1
  In  In46  1  0.84930067  0.83151145  0.66759314  1
  In  In47  1  0.31364775  0.85021601  0.16149566  1
  In  In48  1  0.12421568  0.30053558  0.45977595  1
  In  In49  1  0.30373386  0.49775877  0.17543756  1
  In  In50  1  0.68179910  0.49915387  0.50009476  1
  In  In51  1  0.31054314  -0.00868737  0.00399781  1
  In  In52  1  0.54699512  0.15381697  0.66334285  1
  In  In53  1  0.03354222  0.36152285  0.01950734  1
  In  In54  1  0.12101127  0.15349641  0.02403860  1
  In  In55  1  0.16326788  0.18220723  0.67766850  1
  In  In56  1  0.35474030  0.16474689  0.85014594  1
  In  In57  1  -0.00684609  0.35081953  0.64072102  1
  In  In58  1  0.66559481  0.67412612  0.33881219  1
  In  In59  1  0.48102248  0.81535003  0.66936051  1
  In  In60  1  0.33102384  0.18939815  0.48481548  1
  In  In61  1  0.67115425  0.33638579  0.00681814  1
  In  In62  1  0.16393706  -0.02361233  0.83007750  1
  In  In63  1  0.50367780  0.17878526  -0.01151394  1
  In  In64  1  0.66538329  0.66327772  0.65537600  1
  In  In65  1  0.85769418  0.50881350  0.31664002  1
  In  In66  1  0.85437870  0.83524657  0.01162964  1
  In  In67  1  0.65927786  0.81908561  0.85348429  1
  In  In68  1  0.30474800  0.02172069  0.67025497  1
  In  In69  1  0.31271634  0.34708592  0.32866563  1
  In  In70  1  0.68115191  0.67366737  0.02496928  1
  In  In71  1  0.49425276  0.35120727  0.16363655  1
  Te  Te72  1  0.02247862  0.07472360  0.10000433  1
  Te  Te73  1  0.03334457  0.10152368  0.38349127  1
  Te  Te74  1  0.08014192  0.07548594  0.74631747  1
  Te  Te75  1  0.13047686  0.43681112  0.09773514  1
  Te  Te76  1  0.06797872  0.42226597  0.39960903  1
  Te  Te77  1  0.08847500  0.39480689  0.75137809  1
  Te  Te78  1  0.07812497  0.75760889  0.08141502  1
  Te  Te79  1  0.05385083  0.79463944  0.39039582  1
  Te  Te80  1  0.08895694  0.74670773  0.75064597  1
  Te  Te81  1  0.40837960  0.08415813  0.07529450  1
  Te  Te82  1  0.42399839  0.08110926  0.42996156  1
  Te  Te83  1  0.43140967  0.07414327  0.75216745  1
  Te  Te84  1  0.39176923  0.41946656  0.08274411  1
  Te  Te85  1  0.40287498  0.42837146  0.41983296  1
  Te  Te86  1  0.39394596  0.44744476  0.76949267  1
  Te  Te87  1  0.40488228  0.74265820  0.10252596  1
  Te  Te88  1  0.42908942  0.76461334  0.41391098  1
  Te  Te89  1  0.42098887  0.72617598  0.76708287  1
  Te  Te90  1  0.77080921  0.05509849  0.10441253  1
  Te  Te91  1  0.75540642  0.09415746  0.41441312  1
  Te  Te92  1  0.75086176  0.09341796  0.73910443  1
  Te  Te93  1  0.76151356  0.39867835  0.11157010  1
  Te  Te94  1  0.75844347  0.42244508  0.39378519  1
  Te  Te95  1  0.74366165  0.43300556  0.73024748  1
  Te  Te96  1  0.76390145  0.76473332  0.11414900  1
  Te  Te97  1  0.78314085  0.77845292  0.34894249  1
  Te  Te98  1  0.74678794  0.75065353  0.74925774  1
  Te  Te99  1  0.02391329  0.23348434  0.27432255  1
  Te  Te100  1  0.05738087  0.22787010  0.57828371  1
  Te  Te101  1  0.07610325  0.25449158  0.91012215  1
  Te  Te102  1  0.07139069  0.59100668  0.27290610  1
  Te  Te103  1  0.07484685  0.56882399  0.56576757  1
  Te  Te104  1  0.09457854  0.56821823  0.92558790  1
  Te  Te105  1  0.06197032  0.89846655  0.27624026  1
  Te  Te106  1  0.08040555  0.95231514  0.57606075  1
  Te  Te107  1  0.07467773  0.91035196  0.92456421  1
  Te  Te108  1  0.40327558  0.24698303  0.24684175  1
  Te  Te109  1  0.42117387  0.23528896  0.60463750  1
  Te  Te110  1  0.41206707  0.27489354  0.92782398  1
  Te  Te111  1  0.42206814  0.56024374  0.25326831  1
  Te  Te112  1  0.40672952  0.58124083  0.58875884  1
  Te  Te113  1  0.38328916  0.54184195  0.91483458  1
  Te  Te114  1  0.41239130  0.93003399  0.24675397  1
  Te  Te115  1  0.42001649  0.93228071  0.59140661  1
  Te  Te116  1  0.39517518  0.89746840  0.91927964  1
  Te  Te117  1  0.77484153  0.20714458  0.31146684  1
  Te  Te118  1  0.76402733  0.26989561  0.55691835  1
  Te  Te119  1  0.75184317  0.23351759  0.91981906  1
  Te  Te120  1  0.75455074  0.59221163  0.23547696  1
  Te  Te121  1  0.76477630  0.61464640  0.55106949  1
  Te  Te122  1  0.76007957  0.59600028  0.91830363  1
  Te  Te123  1  0.75025057  0.92668947  0.30191009  1
  Te  Te124  1  0.76547043  0.92259586  0.57599389  1
  Te  Te125  1  0.74879214  0.91543020  0.92576102  1
  Te  Te126  1  0.23129024  0.23943898  0.06786155  1
  Te  Te127  1  0.23031766  0.22684878  0.37854319  1
  Te  Te128  1  0.26400449  0.25802871  0.76235950  1
  Te  Te129  1  0.23422140  0.61551327  0.11335126  1
  Te  Te130  1  0.24591162  0.60182076  0.41412646  1
  Te  Te131  1  0.22757963  0.57967271  0.76057183  1
  Te  Te132  1  0.20779654  0.93963159  0.10135736  1
  Te  Te133  1  0.24917175  0.93143759  0.43729386  1
  Te  Te134  1  0.26115847  0.89894910  0.74303144  1
  Te  Te135  1  0.59090607  0.23684061  0.10128597  1
  Te  Te136  1  0.58590546  0.27410806  0.39939478  1
  Te  Te137  1  0.56197826  0.26850841  0.76607325  1
  Te  Te138  1  0.58326758  0.55853223  0.05910208  1
  Te  Te139  1  0.57878624  0.57322747  0.41483140  1
  Te  Te140  1  0.58166994  0.59761444  0.76402092  1
  Te  Te141  1  0.60173919  0.90138974  0.09937810  1
  Te  Te142  1  0.59843358  0.91573156  0.38778565  1
  Te  Te143  1  0.58667512  0.91502570  0.75150008  1
  Te  Te144  1  0.92359297  0.26980835  0.07921083  1
  Te  Te145  1  0.94979259  0.22670549  0.42120802  1
  Te  Te146  1  0.89793442  0.25741629  0.73311668  1
  Te  Te147  1  0.93532768  0.56701313  0.09493488  1
  Te  Te148  1  0.94659153  0.60422945  0.38885595  1
  Te  Te149  1  0.90582948  0.57471672  0.74076988  1
  Te  Te150  1  0.94151758  0.92779590  0.08955793  1
  Te  Te151  1  0.94016584  0.90199028  0.41077436  1
  Te  Te152  1  0.94067652  0.89590868  0.76356023  1
  Te  Te153  1  0.20700550  0.06565166  0.24119742  1
  Te  Te154  1  0.23253765  0.10246178  0.56545884  1
  Te  Te155  1  0.23707622  0.08944152  0.91320983  1
  Te  Te156  1  0.20455255  0.37902941  0.22262458  1
  Te  Te157  1  0.22812825  0.37365209  0.56120392  1
  Te  Te158  1  0.26698889  0.45224222  0.96171644  1
  Te  Te159  1  0.24966659  0.78289902  0.28214936  1
  Te  Te160  1  0.22722368  0.73785365  0.57215398  1
  Te  Te161  1  0.24464228  0.73208596  0.90114122  1
  Te  Te162  1  0.59943862  0.08025753  0.25588467  1
  Te  Te163  1  0.62155865  0.10724091  0.53645260  1
  Te  Te164  1  0.59883992  0.06613246  0.94455924  1
  Te  Te165  1  0.58781254  0.39949308  0.26533610  1
  Te  Te166  1  0.58045054  0.41101929  0.58230922  1
  Te  Te167  1  0.57860131  0.40621784  0.91785321  1
  Te  Te168  1  0.57835174  0.74652024  0.24588346  1
  Te  Te169  1  0.59564154  0.77098737  0.56915374  1
  Te  Te170  1  0.56819044  0.73383040  0.93950710  1
  Te  Te171  1  0.95236187  0.09251106  0.23993350  1
  Te  Te172  1  0.93164148  0.04593007  0.58152161  1
  Te  Te173  1  0.91692689  0.06875969  0.90966075  1
  Te  Te174  1  0.95486361  0.40857907  0.26248974  1
  Te  Te175  1  0.91267291  0.44778275  0.56696220  1
  Te  Te176  1  0.91152993  0.41492185  0.92034310  1
  Te  Te177  1  0.96421623  0.77862048  0.24926536  1
  Te  Te178  1  0.94293433  0.76001605  0.57341673  1
  Te  Te179  1  0.90158931  0.73863692  0.91213233  1
