# generated using pymatgen
data_In2Te3
_symmetry_space_group_name_H-M   'P 1'
_cell_length_a   19.02749823
_cell_length_b   19.00583704
_cell_length_c   19.02445003
_cell_angle_alpha   90.08209834
_cell_angle_beta   90.03292408
_cell_angle_gamma   89.96165474
_symmetry_Int_Tables_number   1
_chemical_formula_structural   In2Te3
_chemical_formula_sum   'In72 Te108'
_cell_volume   6879.86929408
_cell_formula_units_Z   36
loop_
 _symmetry_equiv_pos_site_id
 _symmetry_equiv_pos_as_xyz
  1  'x, y, z'
loop_
 _atom_site_type_symbol
 _atom_site_label
 _atom_site_symmetry_multiplicity
 _atom_site_fract_x
 _atom_site_fract_y
 _atom_site_fract_z
 _atom_site_occupancy
  In  In0  1  0.49994544  0.31192398  0.85347154  1
  In  In1  1  0.84918009  0.85711230  0.69447920  1
  In  In2  1  0.17883981  0.35193353  0.17076803  1
  In  In3  1  -0.02189222  0.31901600  -0.01293737  1
  In  In4  1  0.65648177  0.84490169  0.50854484  1
  In  In5  1  0.65152808  0.48791057  0.49385729  1
  In  In6  1  0.48901722  0.82739059  0.33471337  1
  In  In7  1  0.14359797  -0.02642033  0.16716413  1
  In  In8  1  0.17319418  0.18219058  0.67320808  1
  In  In9  1  0.65561558  0.68269010  0.32221605  1
  In  In10  1  0.51004682  0.15822578  0.69043241  1
  In  In11  1  -0.00558761  0.68122425  0.67798884  1
  In  In12  1  0.14374664  0.00747972  0.83646654  1
  In  In13  1  0.82370516  -0.02265233  0.52084851  1
  In  In14  1  0.51823061  0.85724864  -0.02084684  1
  In  In15  1  0.13760518  0.84594513  0.65907547  1
  In  In16  1  0.03139947  0.34160526  0.65066388  1
  In  In17  1  0.49193691  0.49316739  0.66431133  1
  In  In18  1  0.85474490  0.50517759  0.65665373  1
  In  In19  1  -0.01350597  0.54563257  0.47820684  1
  In  In20  1  0.67778729  0.32214176  0.33324461  1
  In  In21  1  -0.00061878  0.15043262  0.16054365  1
  In  In22  1  0.33504259  0.83027777  0.13053403  1
  In  In23  1  0.17601349  0.67498090  0.16638020  1
  In  In24  1  0.82168007  0.13527262  0.31387653  1
  In  In25  1  0.00742444  0.34440820  0.33993719  1
  In  In26  1  0.31065988  0.49474597  0.83105843  1
  In  In27  1  0.17651864  0.67331559  0.51049400  1
  In  In28  1  0.14265826  0.00416862  0.50877122  1
  In  In29  1  0.34895785  0.01496989  0.69028244  1
  In  In30  1  -0.01750648  0.16084665  0.82771889  1
  In  In31  1  0.66227024  0.66762141  -0.00136049  1
  In  In32  1  -0.00879726  0.81022900  0.49981020  1
  In  In33  1  0.50936988  0.51278743  0.01664942  1
  In  In34  1  0.83973139  0.47599764  0.00968584  1
  In  In35  1  0.81202848  0.86561583  -0.01868872  1
  In  In36  1  0.35910985  0.00510907  -0.05344980  1
  In  In37  1  0.17909935  0.34892571  0.49414890  1
  In  In38  1  0.82468186  0.82205853  0.32454262  1
  In  In39  1  0.81663365  0.65852092  0.17391794  1
  In  In40  1  0.17710584  0.84131688  -0.03302824  1
  In  In41  1  0.17829236  0.15963136  0.02172505  1
  In  In42  1  0.51650559  -0.01793947  0.15843856  1
  In  In43  1  0.52293531  0.32628283  0.16315271  1
  In  In44  1  0.83514728  0.33584221  0.83837961  1
  In  In45  1  -0.03020504  0.82111483  0.15429959  1
  In  In46  1  0.49735943  0.68268564  0.82325515  1
  In  In47  1  0.84454451  0.33179287  0.18440644  1
  In  In48  1  0.66411571  0.10321750  0.77859343  1
  In  In49  1  0.48221389  0.67645868  0.54801669  1
  In  In50  1  0.67843008  0.31180858  0.00140931  1
  In  In51  1  0.69260001  0.48926624  0.82722584  1
  In  In52  1  0.02749465  0.51943756  0.17997160  1
  In  In53  1  0.69877117  0.67097119  0.67410512  1
  In  In54  1  0.66480996  -0.02593089  0.30620012  1
  In  In55  1  0.48005322  0.51189383  0.34308951  1
  In  In56  1  0.32182095  0.51585143  0.53302553  1
  In  In57  1  -0.01143937  0.68617543  -0.02046962  1
  In  In58  1  0.33152511  0.85112812  0.53744886  1
  In  In59  1  0.75312579  0.06809625  -0.05604234  1
  In  In60  1  0.34431526  0.14636751  0.17739635  1
  In  In61  1  0.81304534  0.31593623  0.51154550  1
  In  In62  1  -0.02348401  0.14170961  0.47805824  1
  In  In63  1  0.15375190  0.49640607  -0.02858948  1
  In  In64  1  0.30839263  -0.00194372  0.34329785  1
  In  In65  1  0.49524249  0.03921691  0.51943404  1
  In  In66  1  0.17133195  0.33272996  0.81996682  1
  In  In67  1  0.32695664  0.19063099  0.49497077  1
  In  In68  1  0.35143257  0.51096065  0.17229452  1
  In  In69  1  0.32726974  0.68057116  -0.00901198  1
  In  In70  1  0.52306548  0.30393508  0.50706414  1
  In  In71  1  0.34873141  0.34135978  0.33371619  1
  Te  Te72  1  0.07392047  0.06023120  0.06265641  1
  Te  Te73  1  0.07405113  0.06951622  0.39650917  1
  Te  Te74  1  0.07102082  0.08637011  0.72841161  1
  Te  Te75  1  0.07179467  0.40804143  0.07444777  1
  Te  Te76  1  0.08921921  0.44309788  0.41883110  1
  Te  Te77  1  0.09797065  0.43639476  0.74357758  1
  Te  Te78  1  0.09143218  0.76028417  0.07225881  1
  Te  Te79  1  0.09732285  0.75444275  0.41762278  1
  Te  Te80  1  0.05669828  0.78396236  0.76587889  1
  Te  Te81  1  0.41945264  0.06537829  0.07139601  1
  Te  Te82  1  0.40622030  0.09304947  0.40902885  1
  Te  Te83  1  0.42908650  0.08543829  0.79105225  1
  Te  Te84  1  0.42237451  0.41024006  0.08516899  1
  Te  Te85  1  0.42408546  0.41094375  0.44545611  1
  Te  Te86  1  0.41873686  0.40916280  0.76540131  1
  Te  Te87  1  0.44133667  0.74909816  0.06149008  1
  Te  Te88  1  0.40750220  0.75808240  0.44378485  1
  Te  Te89  1  0.43295237  0.79281620  0.75653332  1
  Te  Te90  1  0.76058102  0.00925399  0.08489759  1
  Te  Te91  1  0.74522811  0.04961018  0.41111880  1
  Te  Te92  1  0.80203802  0.08757523  0.72476696  1
  Te  Te93  1  0.74215160  0.40837896  0.10078890  1
  Te  Te94  1  0.76075774  0.42001336  0.41375508  1
  Te  Te95  1  0.76143501  0.40331467  0.72471528  1
  Te  Te96  1  0.75671791  0.75538504  0.07861931  1
  Te  Te97  1  0.74072308  0.74935727  0.42836172  1
  Te  Te98  1  0.78209159  0.74669273  0.77032843  1
  Te  Te99  1  0.07758706  0.25995836  0.23589437  1
  Te  Te100  1  0.08476814  0.23547053  0.55422009  1
  Te  Te101  1  0.08627931  0.23860948  0.91938844  1
  Te  Te102  1  0.10732219  0.59907207  0.27061355  1
  Te  Te103  1  0.07792657  0.58909818  0.58822384  1
  Te  Te104  1  0.09794539  0.61523178  0.90079623  1
  Te  Te105  1  0.06928077  0.87692677  0.24636033  1
  Te  Te106  1  0.03697983  0.93161085  0.58692231  1
  Te  Te107  1  0.06155420  0.89848978  0.89405974  1
  Te  Te108  1  0.43212443  0.24375796  0.25430393  1
  Te  Te109  1  0.41930253  0.24589470  0.59949051  1
  Te  Te110  1  0.46669526  0.24006446  0.97387233  1
  Te  Te111  1  0.43027461  0.60833731  0.24596490  1
  Te  Te112  1  0.38904339  0.60149269  0.64019769  1
  Te  Te113  1  0.42068162  0.57703647  0.91020516  1
  Te  Te114  1  0.40068196  0.92048455  0.24992177  1
  Te  Te115  1  0.44298416  0.92841630  0.60860674  1
  Te  Te116  1  0.40288577  0.87685339  0.88321568  1
  Te  Te117  1  0.74020247  0.22999008  0.22897695  1
  Te  Te118  1  0.70076285  0.22910763  0.54238702  1
  Te  Te119  1  0.76951277  0.22767149  0.91828635  1
  Te  Te120  1  0.73205634  0.57586623  0.25883225  1
  Te  Te121  1  0.75227113  0.57553254  0.57058172  1
  Te  Te122  1  0.76389116  0.57698436  0.92633972  1
  Te  Te123  1  0.77377674  0.91798226  0.22204424  1
  Te  Te124  1  0.72643726  0.91792863  0.62028032  1
  Te  Te125  1  0.72280369  0.93073122  0.87603149  1
  Te  Te126  1  0.26804084  0.25363449  0.09820445  1
  Te  Te127  1  0.23773437  0.25431585  0.39080468  1
  Te  Te128  1  0.27155127  0.24513467  0.75874988  1
  Te  Te129  1  0.24746197  0.57063862  0.06986932  1
  Te  Te130  1  0.27305272  0.59958793  0.42697502  1
  Te  Te131  1  0.19445520  0.56847286  0.78349280  1
  Te  Te132  1  0.25532659  0.93653399  0.05859988  1
  Te  Te133  1  0.23262141  0.90548198  0.43452846  1
  Te  Te134  1  0.23550393  0.93128271  0.74276840  1
  Te  Te135  1  0.58344532  0.22052063  0.07261375  1
  Te  Te136  1  0.60082732  0.22197992  0.41188937  1
  Te  Te137  1  0.60412616  0.24986863  0.76595195  1
  Te  Te138  1  0.59860861  0.58760109  0.10325690  1
  Te  Te139  1  0.56317688  0.60070215  0.44158777  1
  Te  Te140  1  0.59355244  0.57668260  0.74936406  1
  Te  Te141  1  0.61863181  0.92050219  0.06855329  1
  Te  Te142  1  0.56055940  0.92813159  0.42554709  1
  Te  Te143  1  0.59358375  0.97052908  0.80133813  1
  Te  Te144  1  0.89953640  0.23290246  0.08196851  1
  Te  Te145  1  0.89979356  0.24991516  0.39545609  1
  Te  Te146  1  0.92974762  0.26880784  0.73672366  1
  Te  Te147  1  0.93109786  0.58569698  0.07973923  1
  Te  Te148  1  0.90416468  0.62741087  0.39397017  1
  Te  Te149  1  0.92290680  0.58141968  0.75916586  1
  Te  Te150  1  0.90999794  0.93038107  0.07323416  1
  Te  Te151  1  0.90889175  0.90818973  0.41612212  1
  Te  Te152  1  0.88361946  0.97465658  0.78260049  1
  Te  Te153  1  0.22617118  0.07763954  0.24359407  1
  Te  Te154  1  0.25853260  0.08338647  0.57829664  1
  Te  Te155  1  0.24771929  0.09899917  0.90264410  1
  Te  Te156  1  0.25574889  0.43971559  0.26669593  1
  Te  Te157  1  0.25306216  0.40899551  0.60344516  1
  Te  Te158  1  0.25734723  0.39414826  0.93110971  1
  Te  Te159  1  0.27368493  0.75555336  0.23931586  1
  Te  Te160  1  0.24953347  0.75323179  0.61879705  1
  Te  Te161  1  0.26152486  0.75411577  0.88385885  1
  Te  Te162  1  0.58071893  0.07719495  0.24795680  1
  Te  Te163  1  0.60897697  0.09639029  0.59580577  1
  Te  Te164  1  0.60020435  0.07805578  0.91339408  1
  Te  Te165  1  0.57740687  0.41840253  0.27136362  1
  Te  Te166  1  0.59327363  0.40007038  0.60144761  1
  Te  Te167  1  0.59853776  0.42201915  0.92627560  1
  Te  Te168  1  0.59139042  0.78449802  0.24009750  1
  Te  Te169  1  0.58926831  0.75904750  0.61540981  1
  Te  Te170  1  0.60367502  0.76130349  0.89616770  1
  Te  Te171  1  0.93766828  0.06351478  0.26083543  1
  Te  Te172  1  0.88028028  0.10279104  0.58280774  1
  Te  Te173  1  0.90541581  0.06782891  0.91335441  1
  Te  Te174  1  0.92291085  0.43945898  0.25754029  1
  Te  Te175  1  0.93052594  0.40854942  0.55862200  1
  Te  Te176  1  0.93521528  0.43384833  0.89867503  1
  Te  Te177  1  0.92369562  0.71599736  0.26758629  1
  Te  Te178  1  0.89001063  0.75035715  0.59195497  1
  Te  Te179  1  0.89005164  0.76472960  0.90293475  1
