# generated using pymatgen
data_In2Te3
_symmetry_space_group_name_H-M   'P 1'
_cell_length_a   19.02075334
_cell_length_b   19.01558712
_cell_length_c   19.02604319
_cell_angle_alpha   90.16985895
_cell_angle_beta   90.23841564
_cell_angle_gamma   90.11608013
_symmetry_Int_Tables_number   1
_chemical_formula_structural   In2Te3
_chemical_formula_sum   'In72 Te108'
_cell_volume   6881.44052036
_cell_formula_units_Z   36
loop_
 _symmetry_equiv_pos_site_id
 _symmetry_equiv_pos_as_xyz
  1  'x, y, z'
loop_
 _atom_site_type_symbol
 _atom_site_label
 _atom_site_symmetry_multiplicity
 _atom_site_fract_x
 _atom_site_fract_y
 _atom_site_fract_z
 _atom_site_occupancy
  In  In0  1  -0.03202144  0.65804322  -0.02232546  1
  In  In1  1  -0.02052299  0.69944361  0.64258497  1
  In  In2  1  0.35084950  0.15131134  0.50108296  1
  In  In3  1  0.33418496  0.79411534  0.17202934  1
  In  In4  1  0.65152986  0.17703549  0.85131321  1
  In  In5  1  0.82440851  0.15223235  0.00056634  1
  In  In6  1  0.50302645  0.14496895  0.01400847  1
  In  In7  1  0.00123761  0.15373111  0.82337571  1
  In  In8  1  0.35193049  0.66161469  0.34846657  1
  In  In9  1  0.65649224  0.33446981  0.35489458  1
  In  In10  1  0.18263514  0.83669682  -0.02990294  1
  In  In11  1  0.16741475  0.16745237  0.02224989  1
  In  In12  1  0.49366555  0.34611789  0.83408672  1
  In  In13  1  0.67897180  0.52169473  0.52817551  1
  In  In14  1  0.67949043  0.68081150  0.00187608  1
  In  In15  1  0.17446675  0.18413612  0.67340758  1
  In  In16  1  0.85017233  0.31874545  0.82652175  1
  In  In17  1  -0.02441617  0.64673010  0.32196628  1
  In  In18  1  0.35878083  0.84002224  0.84193037  1
  In  In19  1  0.49952833  0.31177897  0.48781414  1
  In  In20  1  0.36163419  0.12154779  0.79399136  1
  In  In21  1  0.48328846  0.30967934  0.19194454  1
  In  In22  1  0.00233064  0.32734965  0.33322661  1
  In  In23  1  0.10882233  0.67807164  0.17058856  1
  In  In24  1  0.16357270  0.84620572  0.65275122  1
  In  In25  1  -0.01365001  0.31234674  0.00075266  1
  In  In26  1  0.84203300  0.34207916  0.15803840  1
  In  In27  1  0.66498668  0.82085537  0.16540439  1
  In  In28  1  0.52978482  0.67688704  0.49623130  1
  In  In29  1  0.34088214  0.50942865  0.82876112  1
  In  In30  1  0.34726700  0.66079999  -0.01138404  1
  In  In31  1  0.64672119  0.01994467  0.67908806  1
  In  In32  1  0.16991694  0.32284926  0.50176482  1
  In  In33  1  0.65715440  0.50971440  0.81476573  1
  In  In34  1  0.49826448  0.66898137  0.80897840  1
  In  In35  1  -0.02425898  0.49979617  0.49574247  1
  In  In36  1  0.34330871  0.48254096  0.50124942  1
  In  In37  1  0.68585951  0.82775721  0.49275347  1
  In  In38  1  0.50198341  0.65862022  0.14873198  1
  In  In39  1  -0.00549164  0.83363191  0.82303962  1
  In  In40  1  0.34617014  0.87217823  0.52232865  1
  In  In41  1  0.83028038  -0.01091027  0.82947637  1
  In  In42  1  0.35931562  0.32965393  -0.00773126  1
  In  In43  1  0.31825410  0.48315665  0.16558986  1
  In  In44  1  0.81940563  -0.02583624  0.17494030  1
  In  In45  1  0.48947552  0.01159542  0.19017126  1
  In  In46  1  0.32450064  -0.00077592  0.00986710  1
  In  In47  1  0.68546637  0.82104106  0.81800108  1
  In  In48  1  0.32330371  0.66273764  0.66185241  1
  In  In49  1  -0.00148848  0.84319776  0.17944265  1
  In  In50  1  0.82755682  0.33817555  0.50862376  1
  In  In51  1  -0.01932412  -0.00583989  0.37478070  1
  In  In52  1  0.13949733  0.50962095  0.01402448  1
  In  In53  1  0.17404213  0.02225925  0.50018477  1
  In  In54  1  0.16754151  -0.00650869  0.82056797  1
  In  In55  1  0.85181382  0.12948552  0.63388327  1
  In  In56  1  0.70146992  0.63524142  0.32169615  1
  In  In57  1  0.17026286  0.84230186  0.34913128  1
  In  In58  1  0.66743134  0.33579911  0.66847407  1
  In  In59  1  0.51147669  0.84706827  0.31747250  1
  In  In60  1  0.15053252  0.65399145  0.48177436  1
  In  In61  1  -0.02609543  0.51520295  0.80226623  1
  In  In62  1  0.15270354  0.38116230  0.83080225  1
  In  In63  1  0.81786926  0.82687790  0.67079745  1
  In  In64  1  0.68271848  0.00576622  0.32920010  1
  In  In65  1  0.68318014  0.19296115  0.16110138  1
  In  In66  1  0.81468100  0.50977776  0.00049889  1
  In  In67  1  0.18992088  0.31010302  0.20091790  1
  In  In68  1  0.14719461  0.08951719  0.24762045  1
  In  In69  1  0.31858873  0.34621546  0.66218660  1
  In  In70  1  -0.01731993  0.48841603  0.15071013  1
  In  In71  1  0.84118246  0.14976419  0.35804558  1
  Te  Te72  1  0.10002468  0.07213424  0.10688706  1
  Te  Te73  1  0.09168530  0.09188037  0.39476418  1
  Te  Te74  1  0.08076877  0.07131771  0.72591527  1
  Te  Te75  1  0.08849582  0.38880930  0.09175673  1
  Te  Te76  1  0.08195214  0.41895145  0.42165174  1
  Te  Te77  1  0.05154973  0.41237359  0.73129308  1
  Te  Te78  1  0.07899663  0.74687740  0.04207439  1
  Te  Te79  1  0.06503592  0.74809214  0.40193794  1
  Te  Te80  1  0.08931420  0.75035793  0.74083754  1
  Te  Te81  1  0.39464576  0.09440368  0.10560807  1
  Te  Te82  1  0.42151891  0.09632858  0.38262403  1
  Te  Te83  1  0.46552811  0.04226118  0.72393791  1
  Te  Te84  1  0.43074562  0.41997369  0.08794135  1
  Te  Te85  1  0.41908818  0.40357470  0.40546262  1
  Te  Te86  1  0.42405313  0.43164338  0.73052695  1
  Te  Te87  1  0.43241849  0.76204396  0.06263295  1
  Te  Te88  1  0.42266514  0.77242343  0.42333901  1
  Te  Te89  1  0.41807872  0.76502155  0.72223393  1
  Te  Te90  1  0.73527846  0.06985155  0.08890342  1
  Te  Te91  1  0.72611486  0.09998216  0.43631919  1
  Te  Te92  1  0.75729578  0.10251649  0.76017559  1
  Te  Te93  1  0.74105687  0.42022073  0.08824102  1
  Te  Te94  1  0.74951191  0.43387429  0.42288608  1
  Te  Te95  1  0.76535793  0.41585032  0.75073792  1
  Te  Te96  1  0.77026763  0.77046650  0.07701753  1
  Te  Te97  1  0.76141993  0.71212109  0.43494895  1
  Te  Te98  1  0.71108511  0.72095851  0.69906462  1
  Te  Te99  1  0.07270402  0.22909030  0.24490662  1
  Te  Te100  1  0.07811773  0.24276841  0.58226521  1
  Te  Te101  1  0.08731138  0.24827006  0.90859552  1
  Te  Te102  1  0.08029862  0.55519478  0.24838160  1
  Te  Te103  1  0.06668011  0.58913375  0.58568594  1
  Te  Te104  1  0.07526461  0.58287579  0.90024386  1
  Te  Te105  1  0.10489359  0.92626834  0.24486275  1
  Te  Te106  1  0.08272863  0.92090061  0.55664902  1
  Te  Te107  1  0.07410926  0.92623501  0.91665499  1
  Te  Te108  1  0.41673966  0.22238989  0.29286362  1
  Te  Te109  1  0.41422717  0.25016202  0.59963818  1
  Te  Te110  1  0.42057405  0.22336607  0.90272440  1
  Te  Te111  1  0.41524673  0.57677738  0.24376139  1
  Te  Te112  1  0.41968959  0.59511621  0.56770130  1
  Te  Te113  1  0.44502840  0.57242256  0.91787478  1
  Te  Te114  1  0.39150437  0.90956534  0.25120592  1
  Te  Te115  1  0.44843550  0.96428713  0.57242448  1
  Te  Te116  1  0.42675784  0.93822459  0.92518399  1
  Te  Te117  1  0.77208146  0.25408632  0.26845302  1
  Te  Te118  1  0.75027219  0.23613937  0.59034088  1
  Te  Te119  1  0.75381654  0.26373518  0.92793462  1
  Te  Te120  1  0.78587784  0.57967217  0.21815515  1
  Te  Te121  1  0.76413091  0.59628477  0.62455761  1
  Te  Te122  1  0.75271769  0.59739344  0.89646432  1
  Te  Te123  1  0.75137675  0.88262859  0.27427329  1
  Te  Te124  1  0.73604639  0.93264039  0.59588860  1
  Te  Te125  1  0.75625636  0.90241898  0.91886411  1
  Te  Te126  1  0.27348079  0.24983992  0.09095308  1
  Te  Te127  1  0.25160004  0.23130240  0.41850898  1
  Te  Te128  1  0.24608164  0.27584466  0.77359644  1
  Te  Te129  1  0.24697685  0.59538997  0.08157928  1
  Te  Te130  1  0.25092917  0.56934856  0.40911509  1
  Te  Te131  1  0.24172959  0.57550800  0.74552446  1
  Te  Te132  1  0.25023059  0.89548202  0.09078559  1
  Te  Te133  1  0.26746880  0.93981383  0.41305456  1
  Te  Te134  1  0.26640283  0.91311624  0.74187868  1
  Te  Te135  1  0.57711884  0.25958442  0.07763501  1
  Te  Te136  1  0.60189287  0.22117542  0.43099318  1
  Te  Te137  1  0.57141296  0.24941437  0.74629960  1
  Te  Te138  1  0.61082822  0.58447698  0.08822112  1
  Te  Te139  1  0.59031524  0.56978967  0.41294614  1
  Te  Te140  1  0.56904926  0.57769825  0.71961693  1
  Te  Te141  1  0.56907687  0.91634085  0.11083064  1
  Te  Te142  1  0.58950293  0.92448184  0.41876145  1
  Te  Te143  1  0.58641286  0.92056179  0.77022972  1
  Te  Te144  1  0.91744640  0.22391558  0.09912867  1
  Te  Te145  1  0.92660688  0.24784777  0.43607898  1
  Te  Te146  1  0.92157927  0.23412061  0.72400503  1
  Te  Te147  1  0.89292542  0.60363226  0.10780570  1
  Te  Te148  1  0.88976287  0.60461469  0.43561408  1
  Te  Te149  1  0.89069922  0.61253228  0.72721361  1
  Te  Te150  1  0.90487645  0.89925547  0.08148483  1
  Te  Te151  1  0.86178500  0.95049459  0.44806464  1
  Te  Te152  1  0.92282598  0.92738514  0.72953830  1
  Te  Te153  1  0.28654323  0.13393071  0.29358974  1
  Te  Te154  1  0.26381311  0.08281961  0.60654265  1
  Te  Te155  1  0.24844446  0.08771084  0.90815327  1
  Te  Te156  1  0.27447008  0.40023014  0.27792199  1
  Te  Te157  1  0.22671981  0.43697702  0.58668411  1
  Te  Te158  1  0.25447655  0.42819294  0.94094861  1
  Te  Te159  1  0.22914713  0.72865198  0.25908376  1
  Te  Te160  1  0.24426615  0.75356315  0.55655773  1
  Te  Te161  1  0.25972023  0.73469089  0.89025539  1
  Te  Te162  1  0.59828991  0.10026057  0.24690631  1
  Te  Te163  1  0.54379271  0.08658303  0.59390056  1
  Te  Te164  1  0.58766620  0.06825268  0.92377204  1
  Te  Te165  1  0.58178605  0.40173651  0.24969613  1
  Te  Te166  1  0.58276324  0.41350263  0.57245119  1
  Te  Te167  1  0.59160066  0.42057302  0.91099398  1
  Te  Te168  1  0.58155783  0.72425859  0.26528172  1
  Te  Te169  1  0.58881476  0.77276883  0.59070759  1
  Te  Te170  1  0.58251734  0.74927869  0.90565767  1
  Te  Te171  1  0.91236902  0.06248152  0.25715106  1
  Te  Te172  1  0.93279800  0.04616170  0.53745846  1
  Te  Te173  1  0.92632898  0.07299910  0.92456428  1
  Te  Te174  1  0.90866390  0.42497562  0.26688249  1
  Te  Te175  1  0.91181624  0.41817556  0.59916453  1
  Te  Te176  1  0.92454090  0.42653008  0.92479780  1
  Te  Te177  1  0.91535869  0.77306622  0.27580994  1
  Te  Te178  1  0.91215111  0.80019916  0.56067484  1
  Te  Te179  1  0.89588163  0.74580097  0.88607989  1
