# generated using pymatgen
data_In2Te3
_symmetry_space_group_name_H-M   'P 1'
_cell_length_a   18.99591897
_cell_length_b   19.00983965
_cell_length_c   19.01545035
_cell_angle_alpha   90.12522583
_cell_angle_beta   89.69298476
_cell_angle_gamma   89.92082491
_symmetry_Int_Tables_number   1
_chemical_formula_structural   In2Te3
_chemical_formula_sum   'In72 Te108'
_cell_volume   6866.53572046
_cell_formula_units_Z   36
loop_
 _symmetry_equiv_pos_site_id
 _symmetry_equiv_pos_as_xyz
  1  'x, y, z'
loop_
 _atom_site_type_symbol
 _atom_site_label
 _atom_site_symmetry_multiplicity
 _atom_site_fract_x
 _atom_site_fract_y
 _atom_site_fract_z
 _atom_site_occupancy
  In  In0  1  0.49316583  0.80943821  -0.03292176  1
  In  In1  1  -0.01527045  0.50852756  0.16040181  1
  In  In2  1  0.85814926  0.18079354  0.34828312  1
  In  In3  1  0.16543580  -0.00629420  0.17682093  1
  In  In4  1  0.50857412  0.82765220  0.67440201  1
  In  In5  1  0.17407692  0.34138778  0.16489920  1
  In  In6  1  0.65491405  0.17786482  0.83500131  1
  In  In7  1  0.82767706  0.67364592  0.51115014  1
  In  In8  1  0.50874930  0.68184263  0.50320744  1
  In  In9  1  0.50013346  0.00243961  0.52348600  1
  In  In10  1  0.33045520  0.67478677  0.65637937  1
  In  In11  1  0.33760389  0.65311534  0.00886319  1
  In  In12  1  0.31957290  0.17065548  0.47674319  1
  In  In13  1  0.02880133  0.69588179  -0.00102905  1
  In  In14  1  -0.00749450  0.82701700  0.80761870  1
  In  In15  1  0.50267731  0.32134797  0.49910307  1
  In  In16  1  0.66015706  0.85421134  0.19806215  1
  In  In17  1  0.67387077  0.31459235  0.67172498  1
  In  In18  1  0.30879194  0.02504954  -0.04791879  1
  In  In19  1  0.49024296  0.65029975  0.16810389  1
  In  In20  1  0.01288429  0.15719976  0.82336486  1
  In  In21  1  0.67159429  0.47879898  0.48384916  1
  In  In22  1  0.86030690  0.52370371  0.67055307  1
  In  In23  1  0.31741605  0.84350434  0.82671615  1
  In  In24  1  0.15605793  0.67763286  0.52375820  1
  In  In25  1  0.81040734  0.33683287  0.17070628  1
  In  In26  1  0.32207637  0.30962546  0.67383352  1
  In  In27  1  0.17547333  0.66392209  0.82861324  1
  In  In28  1  0.66717040  0.51006963  0.84535984  1
  In  In29  1  0.15627610  -0.00927600  0.49515200  1
  In  In30  1  -0.00586354  0.00528164  -0.00683644  1
  In  In31  1  0.16324059  0.12777800  0.67903921  1
  In  In32  1  -0.00270183  0.31941955  -0.02936548  1
  In  In33  1  0.67093410  0.00834864  0.37445657  1
  In  In34  1  0.33642923  0.49227645  0.47888857  1
  In  In35  1  0.17316813  0.51314904  -0.00021662  1
  In  In36  1  0.36618857  0.03310414  0.70278909  1
  In  In37  1  0.83470964  0.49406414  0.34253358  1
  In  In38  1  0.13896658  0.46584118  0.37240299  1
  In  In39  1  0.66960271  0.67109237  -0.00717975  1
  In  In40  1  0.83997676  0.48668105  0.00132776  1
  In  In41  1  0.50581161  0.18395377  0.31886117  1
  In  In42  1  0.69641309  -0.01745811  0.62449894  1
  In  In43  1  0.33134756  0.49510907  0.85215688  1
  In  In44  1  0.47639653  0.00201145  0.15515019  1
  In  In45  1  0.50274151  0.16422999  -0.01114346  1
  In  In46  1  -0.01574862  0.85402334  0.51255997  1
  In  In47  1  0.33853742  0.31693417  0.00336334  1
  In  In48  1  0.15964684  0.47866241  0.62577350  1
  In  In49  1  0.32435518  0.31676081  0.33347301  1
  In  In50  1  0.01475655  0.18465275  0.17082291  1
  In  In51  1  0.85723926  0.00509305  0.81464845  1
  In  In52  1  0.81597367  0.01257181  0.18329364  1
  In  In53  1  0.01369875  0.14965661  0.49293536  1
  In  In54  1  0.81764077  0.83714968  0.01736318  1
  In  In55  1  0.82935712  0.16911129  0.64153800  1
  In  In56  1  0.71570574  0.84003212  0.79007777  1
  In  In57  1  0.48167796  0.83175669  0.33918835  1
  In  In58  1  0.81892736  0.32360485  0.83844236  1
  In  In59  1  0.01347046  0.33570799  0.65376029  1
  In  In60  1  0.31266103  0.00438017  0.33330214  1
  In  In61  1  0.50044141  0.47987950  -0.01476230  1
  In  In62  1  0.68893104  0.64545167  0.34273113  1
  In  In63  1  0.02335075  0.83218006  0.18079582  1
  In  In64  1  0.83049031  0.64510204  0.20155413  1
  In  In65  1  0.64295532  0.17187802  0.16320431  1
  In  In66  1  0.01428374  0.67639487  0.33120005  1
  In  In67  1  0.50484527  0.50866489  0.69898959  1
  In  In68  1  0.66676041  0.00539212  0.02733201  1
  In  In69  1  0.31558643  0.68680377  0.31491882  1
  In  In70  1  0.50564018  0.36685658  0.18268691  1
  In  In71  1  0.14033415  0.84367216  0.01812376  1
  Te  Te72  1  0.08701710  0.08383866  0.08051026  1
  Te  Te73  1  0.07303724  0.05665167  0.39260646  1
  Te  Te74  1  0.05211504  0.04601163  0.73347424  1
  Te  Te75  1  0.06691044  0.41926848  0.06975749  1
  Te  Te76  1  0.03783457  0.40218157  0.45848908  1
  Te  Te77  1  0.09988747  0.41293166  0.74174971  1
  Te  Te78  1  0.11918437  0.72417774  0.12178886  1
  Te  Te79  1  0.08259284  0.76834220  0.42628320  1
  Te  Te80  1  0.11314847  0.76684181  0.74338808  1
  Te  Te81  1  0.39591127  0.08835744  0.06484324  1
  Te  Te82  1  0.43059658  0.08456727  0.40706969  1
  Te  Te83  1  0.43053860  0.14260576  0.77597076  1
  Te  Te84  1  0.40239295  0.42718415  0.08711836  1
  Te  Te85  1  0.43094555  0.40631993  0.39797542  1
  Te  Te86  1  0.40859249  0.40610234  0.75535936  1
  Te  Te87  1  0.41649954  0.75578146  0.08735515  1
  Te  Te88  1  0.39575533  0.75357576  0.43493638  1
  Te  Te89  1  0.41313150  0.74543430  0.76087593  1
  Te  Te90  1  0.75958985  0.10877057  0.08259291  1
  Te  Te91  1  0.77557770  0.09217043  0.43620654  1
  Te  Te92  1  0.75149272  0.09044491  0.74721725  1
  Te  Te93  1  0.73834859  0.40198086  0.06033621  1
  Te  Te94  1  0.76282166  0.38833544  0.41324580  1
  Te  Te95  1  0.75825955  0.42402444  0.74156409  1
  Te  Te96  1  0.74027838  0.74675268  0.11172422  1
  Te  Te97  1  0.74452038  0.75699514  0.42112724  1
  Te  Te98  1  0.79557284  0.73349225  0.72630492  1
  Te  Te99  1  0.09425284  0.26609150  0.26408274  1
  Te  Te100  1  0.10100945  0.23026768  0.58781165  1
  Te  Te101  1  0.10038687  0.22224965  0.92426240  1
  Te  Te102  1  0.08162867  0.55962970  0.26289589  1
  Te  Te103  1  0.06611109  0.58752963  0.59796958  1
  Te  Te104  1  0.07452970  0.58260702  0.90738962  1
  Te  Te105  1  0.07299364  0.93201606  0.27619498  1
  Te  Te106  1  0.07825303  0.92526835  0.60194558  1
  Te  Te107  1  0.07763093  0.91726185  0.90344875  1
  Te  Te108  1  0.41134697  0.25107780  0.22676833  1
  Te  Te109  1  0.41289927  0.23101412  0.57971974  1
  Te  Te110  1  0.41455844  0.24202383  0.89604252  1
  Te  Te111  1  0.41223761  0.58616923  0.27304948  1
  Te  Te112  1  0.41721793  0.57195007  0.58032780  1
  Te  Te113  1  0.43277291  0.59229828  0.90824864  1
  Te  Te114  1  0.39764183  0.90729073  0.24034917  1
  Te  Te115  1  0.40860314  0.91681144  0.60635835  1
  Te  Te116  1  0.41953178  0.92437264  0.90573079  1
  Te  Te117  1  0.74332221  0.23234836  0.25736121  1
  Te  Te118  1  0.76201822  0.27211454  0.56207678  1
  Te  Te119  1  0.72766991  0.25990037  0.93273052  1
  Te  Te120  1  0.71985394  0.54293515  0.22973638  1
  Te  Te121  1  0.74406594  0.56841703  0.58135357  1
  Te  Te122  1  0.77418549  0.59366069  0.91538550  1
  Te  Te123  1  0.76280503  0.91714891  0.28681043  1
  Te  Te124  1  0.76677371  0.88646495  0.53618536  1
  Te  Te125  1  0.75810371  0.93542412  0.92012517  1
  Te  Te126  1  0.23740466  0.24266981  0.07763738  1
  Te  Te127  1  0.21706245  0.23705540  0.39578407  1
  Te  Te128  1  0.23344738  0.22978516  0.76502196  1
  Te  Te129  1  0.26250078  0.56789323  0.10010975  1
  Te  Te130  1  0.22878841  0.58366623  0.42507609  1
  Te  Te131  1  0.25745155  0.56863687  0.74020914  1
  Te  Te132  1  0.25100361  0.93297323  0.06195064  1
  Te  Te133  1  0.25394843  0.90777531  0.42307898  1
  Te  Te134  1  0.25346479  0.95810842  0.76186514  1
  Te  Te135  1  0.56601234  0.26728447  0.07847540  1
  Te  Te136  1  0.59457808  0.24211569  0.41647573  1
  Te  Te137  1  0.56336446  0.23794625  0.73501171  1
  Te  Te138  1  0.58187056  0.57723466  0.07188143  1
  Te  Te139  1  0.57658179  0.57586361  0.41635314  1
  Te  Te140  1  0.60158550  0.60187170  0.75181559  1
  Te  Te141  1  0.57688190  0.89322734  0.07644633  1
  Te  Te142  1  0.57522228  0.90504564  0.43319768  1
  Te  Te143  1  0.60494903  0.92753986  0.73531914  1
  Te  Te144  1  0.91765560  0.26209724  0.08467322  1
  Te  Te145  1  0.95705692  0.26797906  0.41905462  1
  Te  Te146  1  0.91525989  0.24858486  0.74487022  1
  Te  Te147  1  0.91745204  0.61633918  0.07840096  1
  Te  Te148  1  0.91868251  0.59283760  0.41600459  1
  Te  Te149  1  0.92271412  0.64510125  0.73014869  1
  Te  Te150  1  0.91620134  0.91900867  0.09916071  1
  Te  Te151  1  0.88192615  0.95666121  0.47041983  1
  Te  Te152  1  0.87401323  0.88330289  0.72949482  1
  Te  Te153  1  0.25312665  0.09405549  0.23738800  1
  Te  Te154  1  0.26878377  0.07316206  0.58028379  1
  Te  Te155  1  0.22580922  0.11917919  0.87543371  1
  Te  Te156  1  0.24616984  0.42706173  0.26735456  1
  Te  Te157  1  0.26043317  0.38838003  0.55768595  1
  Te  Te158  1  0.23725749  0.40124819  0.92081581  1
  Te  Te159  1  0.21912367  0.75754517  0.23676524  1
  Te  Te160  1  0.23026038  0.77127945  0.61113993  1
  Te  Te161  1  0.24448714  0.75134211  0.93394680  1
  Te  Te162  1  0.58527611  0.05489354  0.24584230  1
  Te  Te163  1  0.59886332  0.08592212  0.59059670  1
  Te  Te164  1  0.58631930  0.06293000  0.91492777  1
  Te  Te165  1  0.62342873  0.42140533  0.24349449  1
  Te  Te166  1  0.57604370  0.41535279  0.59499376  1
  Te  Te167  1  0.57886317  0.40260704  0.88950891  1
  Te  Te168  1  0.58321522  0.74052087  0.26267643  1
  Te  Te169  1  0.59962497  0.74318002  0.59730463  1
  Te  Te170  1  0.61728144  0.76817948  0.89082047  1
  Te  Te171  1  0.92714614  0.08592637  0.25140531  1
  Te  Te172  1  0.92554422  0.07109008  0.58511772  1
  Te  Te173  1  0.90531713  0.10221206  0.91991432  1
  Te  Te174  1  0.91880779  0.40750284  0.25029616  1
  Te  Te175  1  0.92710270  0.42959196  0.57493518  1
  Te  Te176  1  0.92205362  0.42320194  0.89047037  1
  Te  Te177  1  0.91059950  0.75937198  0.25807926  1
  Te  Te178  1  0.94217041  0.73032751  0.58890225  1
  Te  Te179  1  0.91602714  0.76624999  0.92543113  1
