# generated using pymatgen
data_In2Te3
_symmetry_space_group_name_H-M   'P 1'
_cell_length_a   19.06045942
_cell_length_b   19.05746867
_cell_length_c   19.04232384
_cell_angle_alpha   89.94278516
_cell_angle_beta   89.90652012
_cell_angle_gamma   90.10769540
_symmetry_Int_Tables_number   1
_chemical_formula_structural   In2Te3
_chemical_formula_sum   'In72 Te108'
_cell_volume   6916.98704982
_cell_formula_units_Z   36
loop_
 _symmetry_equiv_pos_site_id
 _symmetry_equiv_pos_as_xyz
  1  'x, y, z'
loop_
 _atom_site_type_symbol
 _atom_site_label
 _atom_site_symmetry_multiplicity
 _atom_site_fract_x
 _atom_site_fract_y
 _atom_site_fract_z
 _atom_site_occupancy
  In  In0  1  0.86278849  0.00844239  0.48252786  1
  In  In1  1  0.31434705  0.83618028  0.81229376  1
  In  In2  1  0.82488287  0.35105324  0.17291296  1
  In  In3  1  0.34636735  0.66227558  0.33750913  1
  In  In4  1  0.48465079  0.02471163  0.83919120  1
  In  In5  1  0.35166907  0.87284009  0.48703849  1
  In  In6  1  0.19249740  0.83583489  0.35895018  1
  In  In7  1  0.81397975  0.18594970  0.68414176  1
  In  In8  1  0.02602774  0.68361809  0.33285731  1
  In  In9  1  0.83021690  0.69176577  0.84882451  1
  In  In10  1  0.63526638  0.15768390  0.49451848  1
  In  In11  1  -0.00289428  -0.00637381  0.66583091  1
  In  In12  1  0.00744313  0.31720474  0.34536760  1
  In  In13  1  0.81106784  0.16850104  0.02339609  1
  In  In14  1  0.88106744  0.00172733  0.85233516  1
  In  In15  1  0.69436564  0.84936417  0.82916087  1
  In  In16  1  0.49008659  0.01772523  0.51270227  1
  In  In17  1  0.17416683  0.46005324  0.66648022  1
  In  In18  1  0.80980570  0.64807409  0.16306206  1
  In  In19  1  0.81120038  0.82201820  0.64455500  1
  In  In20  1  0.82900571  0.65618559  0.49178775  1
  In  In21  1  0.67782302  0.50899238  0.82473745  1
  In  In22  1  0.24285004  0.01395331  0.19311409  1
  In  In23  1  0.17034804  0.65996184  0.52756945  1
  In  In24  1  0.01256904  0.14948103  0.16947764  1
  In  In25  1  0.33082381  0.50238472  0.86217377  1
  In  In26  1  0.50782960  0.64408510  0.83453089  1
  In  In27  1  0.34951513  0.30265801  0.66183276  1
  In  In28  1  -0.00149352  0.45919086  0.49886224  1
  In  In29  1  0.49713340  0.48177523  0.00401344  1
  In  In30  1  -0.00730344  0.67058187  0.67899788  1
  In  In31  1  0.33528475  0.49484672  0.46486308  1
  In  In32  1  0.62767404  0.32978909  0.66325137  1
  In  In33  1  0.87093941  0.85290565  -0.00237994  1
  In  In34  1  -0.00081892  0.81716863  0.16136908  1
  In  In35  1  0.00318380  0.33794287  -0.00748062  1
  In  In36  1  0.16557148  0.47985100  0.29977383  1
  In  In37  1  0.17190219  0.86999143  0.64785149  1
  In  In38  1  0.16585637  0.51152299  0.01665640  1
  In  In39  1  -0.01187730  0.66583782  0.01023976  1
  In  In40  1  0.17062127  0.16328790  0.02642953  1
  In  In41  1  0.50706002  0.84466033  0.01901707  1
  In  In42  1  0.16086201  0.67626793  0.84162345  1
  In  In43  1  0.02645147  0.15552465  0.48722518  1
  In  In44  1  0.45896896  0.48703285  0.65976466  1
  In  In45  1  0.48262261  0.86455112  0.30472293  1
  In  In46  1  0.00058943  -0.01036033  0.31293384  1
  In  In47  1  0.20033068  0.32797035  0.15545408  1
  In  In48  1  0.84643680  0.34675257  0.83579221  1
  In  In49  1  0.35210287  0.01801433  0.01820911  1
  In  In50  1  0.64774574  0.48749666  0.48559809  1
  In  In51  1  0.66961700  0.84857818  0.15950921  1
  In  In52  1  0.64724847  0.67178014  0.01385748  1
  In  In53  1  0.63764905  0.17216524  0.83659226  1
  In  In54  1  0.33957494  0.65491953  0.66008489  1
  In  In55  1  0.34044088  0.18935013  0.87364379  1
  In  In56  1  0.85099780  0.49885012  0.65044191  1
  In  In57  1  0.66234088  0.80953972  0.47783376  1
  In  In58  1  0.17476015  0.13335131  0.63978158  1
  In  In59  1  0.83125134  0.51662748  0.33195354  1
  In  In60  1  0.64710053  0.18063684  0.16946994  1
  In  In61  1  0.65658708  0.01212112  0.65536567  1
  In  In62  1  0.17096769  0.67443888  0.16939933  1
  In  In63  1  0.64969961  0.32731509  0.01943321  1
  In  In64  1  0.16669072  0.32879937  0.83654214  1
  In  In65  1  0.50252443  0.83495390  0.63222300  1
  In  In66  1  0.67806774  -0.01112596  0.32654948  1
  In  In67  1  0.48229760  0.19000887  0.33058543  1
  In  In68  1  0.50278186  0.47728035  0.32250722  1
  In  In69  1  0.66942062  0.35768363  0.31358151  1
  In  In70  1  0.50008070  0.67308314  0.17643758  1
  In  In71  1  0.01130191  0.29574667  0.68159574  1
  Te  Te72  1  0.11411069  0.05449839  0.11306661  1
  Te  Te73  1  0.10258505  0.08549634  0.37982245  1
  Te  Te74  1  0.08228574  0.08459779  0.74794713  1
  Te  Te75  1  0.08596837  0.41072748  0.09539850  1
  Te  Te76  1  0.11214599  0.40223968  0.42024033  1
  Te  Te77  1  0.06638470  0.41279536  0.76155485  1
  Te  Te78  1  0.09705607  0.75500861  0.06484062  1
  Te  Te79  1  0.09206027  0.75982020  0.44539836  1
  Te  Te80  1  0.10026817  0.76039608  0.73265216  1
  Te  Te81  1  0.44465926  0.03587489  0.13289848  1
  Te  Te82  1  0.40646585  0.09516538  0.41834677  1
  Te  Te83  1  0.39440553  0.10862739  0.76378589  1
  Te  Te84  1  0.39627187  0.38412882  0.04372778  1
  Te  Te85  1  0.39942727  0.39025326  0.38599915  1
  Te  Te86  1  0.39751308  0.40474000  0.76930934  1
  Te  Te87  1  0.41754675  0.76813859  0.10339518  1
  Te  Te88  1  0.42754833  0.76657206  0.40979008  1
  Te  Te89  1  0.42891344  0.74101051  0.74649742  1
  Te  Te90  1  0.73369744  0.07917317  0.10774184  1
  Te  Te91  1  0.74583969  0.08621974  0.42107907  1
  Te  Te92  1  0.74056359  0.07909305  0.76072613  1
  Te  Te93  1  0.73760206  0.42381486  0.08272621  1
  Te  Te94  1  0.76418076  0.41617355  0.42189359  1
  Te  Te95  1  0.74874819  0.40733474  0.73431330  1
  Te  Te96  1  0.75865251  0.76246273  0.06313588  1
  Te  Te97  1  0.76472804  0.74596428  0.39807547  1
  Te  Te98  1  0.73372536  0.73290892  0.73938969  1
  Te  Te99  1  0.09353709  0.25523796  0.23868699  1
  Te  Te100  1  0.10457892  0.25176521  0.57360909  1
  Te  Te101  1  0.08561644  0.23390579  0.92148786  1
  Te  Te102  1  0.07281073  0.57935566  0.23383085  1
  Te  Te103  1  0.07664878  0.56248529  0.59789806  1
  Te  Te104  1  0.07648720  0.57814584  0.91552568  1
  Te  Te105  1  0.09665041  0.88873787  0.25340239  1
  Te  Te106  1  0.08381834  0.94410972  0.55922023  1
  Te  Te107  1  0.02592719  1.00830419  0.88137335  1
  Te  Te108  1  0.39989883  0.22142831  0.21067777  1
  Te  Te109  1  0.39593230  0.22616734  0.54614140  1
  Te  Te110  1  0.43604748  0.26661585  0.95425119  1
  Te  Te111  1  0.40841662  0.57005681  0.23950930  1
  Te  Te112  1  0.41835533  0.58762770  0.55081633  1
  Te  Te113  1  0.41582631  0.59743593  0.94293622  1
  Te  Te114  1  0.37765050  0.95241374  0.24600586  1
  Te  Te115  1  0.40090423  0.94280118  0.61277508  1
  Te  Te116  1  0.41472853  0.91212245  0.91169992  1
  Te  Te117  1  0.75479264  0.24784104  0.25655378  1
  Te  Te118  1  0.72518254  0.24936609  0.58096354  1
  Te  Te119  1  0.74933435  0.25502214  0.91501268  1
  Te  Te120  1  0.72081028  0.57880644  0.25895963  1
  Te  Te121  1  0.74118929  0.57013501  0.57869016  1
  Te  Te122  1  0.74625837  0.59351018  0.92836705  1
  Te  Te123  1  0.76931949  0.90737029  0.24836059  1
  Te  Te124  1  0.74301107  0.92921393  0.56339350  1
  Te  Te125  1  0.76315263  0.93489540  0.92999189  1
  Te  Te126  1  0.29113608  0.22115293  0.09688577  1
  Te  Te127  1  0.20589194  0.19475897  0.39112741  1
  Te  Te128  1  0.23690847  0.23570875  0.74173605  1
  Te  Te129  1  0.26062877  0.58438098  0.09819400  1
  Te  Te130  1  0.22482537  0.58943990  0.40440708  1
  Te  Te131  1  0.24877287  0.57094969  0.74700964  1
  Te  Te132  1  0.26871864  0.91654275  0.08587182  1
  Te  Te133  1  0.24169805  0.95096987  0.43430573  1
  Te  Te134  1  0.22795065  0.94101425  0.76169794  1
  Te  Te135  1  0.55412339  0.22075075  0.05842299  1
  Te  Te136  1  0.58476374  0.26907000  0.40887178  1
  Te  Te137  1  0.54852469  0.26206784  0.76501421  1
  Te  Te138  1  0.57983017  0.56951238  0.09811302  1
  Te  Te139  1  0.59381874  0.57687591  0.38292251  1
  Te  Te140  1  0.57352841  0.56209597  0.72753751  1
  Te  Te141  1  0.57180688  0.94757599  0.10513337  1
  Te  Te142  1  0.57143401  0.92159236  0.42361019  1
  Te  Te143  1  0.58581836  0.91105124  0.74314549  1
  Te  Te144  1  0.91913529  0.25838601  0.09416691  1
  Te  Te145  1  0.91957227  0.23435690  0.42719297  1
  Te  Te146  1  0.92171650  0.22740621  0.78270122  1
  Te  Te147  1  0.90685550  0.57200628  0.08625503  1
  Te  Te148  1  0.94939280  0.58057218  0.42384261  1
  Te  Te149  1  0.90271008  0.58444741  0.76267972  1
  Te  Te150  1  0.92537717  0.93061269  0.10684312  1
  Te  Te151  1  0.91977358  0.90427136  0.40128998  1
  Te  Te152  1  0.90098299  0.90046724  0.73700410  1
  Te  Te153  1  0.27156847  0.14749989  0.25854294  1
  Te  Te154  1  0.27711645  0.13710126  0.52779066  1
  Te  Te155  1  0.24871489  0.08092575  0.92501679  1
  Te  Te156  1  0.27983290  0.39718330  0.25960416  1
  Te  Te157  1  0.27336388  0.40283410  0.57242810  1
  Te  Te158  1  0.24784851  0.40137728  0.93939106  1
  Te  Te159  1  0.26676867  0.75773936  0.25302680  1
  Te  Te160  1  0.27162393  0.76203315  0.57802787  1
  Te  Te161  1  0.26599672  0.74359449  0.91369466  1
  Te  Te162  1  0.57994089  0.08775868  0.27067638  1
  Te  Te163  1  0.55339406  0.11203056  0.61360751  1
  Te  Te164  1  0.58780807  0.07079711  0.92927120  1
  Te  Te165  1  0.55951863  0.38606475  0.22339772  1
  Te  Te166  1  0.54396911  0.40627244  0.56412764  1
  Te  Te167  1  0.59187686  0.41669264  0.90562084  1
  Te  Te168  1  0.58777806  0.76638538  0.25651569  1
  Te  Te169  1  0.58710152  0.73230400  0.57562292  1
  Te  Te170  1  0.58718830  0.75911157  0.90609329  1
  Te  Te171  1  0.91686547  0.10086821  0.26728509  1
  Te  Te172  1  0.90669280  0.10173964  0.59773389  1
  Te  Te173  1  0.92809447  0.09066071  0.96770635  1
  Te  Te174  1  0.92358196  0.41931260  0.26493585  1
  Te  Te175  1  0.91484986  0.37595686  0.59154255  1
  Te  Te176  1  0.91301798  0.43407242  0.92974286  1
  Te  Te177  1  0.91196029  0.72878670  0.24639914  1
  Te  Te178  1  0.92159958  0.74849610  0.57213684  1
  Te  Te179  1  0.94831305  0.76785969  0.90112993  1
