# generated using pymatgen
data_In2Te3
_symmetry_space_group_name_H-M   'P 1'
_cell_length_a   18.77103227
_cell_length_b   18.76719053
_cell_length_c   18.76214716
_cell_angle_alpha   89.98014753
_cell_angle_beta   89.94983831
_cell_angle_gamma   90.01344372
_symmetry_Int_Tables_number   1
_chemical_formula_structural   In2Te3
_chemical_formula_sum   'In72 Te108'
_cell_volume   6609.51744523
_cell_formula_units_Z   36
loop_
 _symmetry_equiv_pos_site_id
 _symmetry_equiv_pos_as_xyz
  1  'x, y, z'
loop_
 _atom_site_type_symbol
 _atom_site_label
 _atom_site_symmetry_multiplicity
 _atom_site_fract_x
 _atom_site_fract_y
 _atom_site_fract_z
 _atom_site_occupancy
  In  In0  1  0.49384441  0.85220856  0.64349948  1
  In  In1  1  0.50705872  0.65158523  0.81388098  1
  In  In2  1  -0.02156755  0.34264083  0.33101755  1
  In  In3  1  0.16217168  0.87503441  0.31920738  1
  In  In4  1  0.50493793  0.68731149  0.50655959  1
  In  In5  1  0.84241782  0.65385621  0.16823490  1
  In  In6  1  0.34581786  0.16770876  0.18463537  1
  In  In7  1  0.80761119  0.64535063  0.84722772  1
  In  In8  1  0.16290578  0.13813598  0.33693949  1
  In  In9  1  0.84037934  0.82455546  0.35073603  1
  In  In10  1  0.68966797  0.02555784  0.69315859  1
  In  In11  1  0.49430381  0.83706179  0.34815939  1
  In  In12  1  0.00379968  0.67346043  0.32764900  1
  In  In13  1  0.67755988  0.17084407  0.51903976  1
  In  In14  1  0.48408276  0.15169046  0.33793688  1
  In  In15  1  0.51603617  0.35892020  0.51543550  1
  In  In16  1  -0.00195382  0.84682053  0.83867960  1
  In  In17  1  0.85401174  -0.00754075  0.50797808  1
  In  In18  1  0.18231838  0.83137710  0.65186210  1
  In  In19  1  0.83170443  0.01270505  0.14818030  1
  In  In20  1  0.34452100  0.85390841  0.83735757  1
  In  In21  1  0.17511616  0.33248087  0.16504175  1
  In  In22  1  0.82872795  0.65434510  0.49428890  1
  In  In23  1  0.82937342  0.32373218  0.51097234  1
  In  In24  1  0.15254134  0.70290375  0.16393958  1
  In  In25  1  0.36208023  0.32150993  -0.03851302  1
  In  In26  1  0.83570176  0.17052963  -0.01916188  1
  In  In27  1  -0.01849585  0.31941873  0.68062774  1
  In  In28  1  0.52007328  -0.01088479  0.16919517  1
  In  In29  1  0.66803057  0.33080489  0.31971983  1
  In  In30  1  0.52204573  0.49749984  0.66279531  1
  In  In31  1  0.67928490  0.81661697  0.17178145  1
  In  In32  1  0.15169904  0.49046924  0.69188204  1
  In  In33  1  0.15590374  0.63215377  0.84480854  1
  In  In34  1  0.33730518  -0.00121193  -0.00214746  1
  In  In35  1  0.33986657  0.82488281  0.16810207  1
  In  In36  1  0.17532605  0.67960248  0.50157771  1
  In  In37  1  0.49032272  0.82789949  -0.00984663  1
  In  In38  1  -0.04057138  0.33951157  -0.03954117  1
  In  In39  1  0.14673710  0.16037415  0.01499280  1
  In  In40  1  0.66628899  0.83913084  0.83368450  1
  In  In41  1  0.15418918  0.49358540  0.35474175  1
  In  In42  1  0.14366866  0.51707130  -0.01070587  1
  In  In43  1  -0.00184558  0.01965794  0.66646963  1
  In  In44  1  -0.01502694  0.16078106  0.15170733  1
  In  In45  1  -0.01855916  0.67148444  0.68032017  1
  In  In46  1  0.51272682  0.48713506  0.30680678  1
  In  In47  1  0.14309948  0.83811274  -0.00017778  1
  In  In48  1  0.67746098  0.49770723  0.51303970  1
  In  In49  1  0.83551012  0.18199576  0.32604078  1
  In  In50  1  0.33154046  0.33164781  0.67012967  1
  In  In51  1  -0.02069991  0.48366360  0.15797152  1
  In  In52  1  0.16605518  -0.00354877  0.50313454  1
  In  In53  1  0.14342909  0.31793284  0.83205516  1
  In  In54  1  0.66856100  0.34638109  0.01777241  1
  In  In55  1  0.64054170  -0.00571860  0.34689666  1
  In  In56  1  0.82916471  0.83271551  0.02013734  1
  In  In57  1  0.50513419  0.16409866  0.69029728  1
  In  In58  1  -0.02293706  0.50431752  0.49913938  1
  In  In59  1  0.52947369  0.33360012  0.85719934  1
  In  In60  1  0.68883313  0.65820446  0.33335335  1
  In  In61  1  0.33410160  0.67539543  0.00336876  1
  In  In62  1  0.34202047  0.18078675  0.82311922  1
  In  In63  1  0.15499601  -0.00758201  0.81405720  1
  In  In64  1  0.54214100  0.51539253  0.01802716  1
  In  In65  1  0.32689658  0.49886742  0.51137401  1
  In  In66  1  0.31892426  0.51211456  0.81844619  1
  In  In67  1  0.32467280  0.14630845  0.49587407  1
  In  In68  1  0.36423495  0.49420882  0.15754533  1
  In  In69  1  0.33548574  0.29483748  0.33229579  1
  In  In70  1  0.84186115  0.82950257  0.65250453  1
  In  In71  1  0.66142593  0.03238332  -0.03919314  1
  Te  Te72  1  0.10135470  0.06520433  0.12387932  1
  Te  Te73  1  0.06412995  0.07159236  0.42320217  1
  Te  Te74  1  0.08089506  0.10534687  0.75539259  1
  Te  Te75  1  0.07775006  0.39356286  0.06423324  1
  Te  Te76  1  0.07326250  0.39784618  0.44072852  1
  Te  Te77  1  0.04775865  0.42437439  0.77953108  1
  Te  Te78  1  0.05748969  0.73164529  0.05694028  1
  Te  Te79  1  0.08849032  0.76609834  0.41039052  1
  Te  Te80  1  0.08937988  0.75532389  0.75305896  1
  Te  Te81  1  0.42987927  0.08162575  0.08693320  1
  Te  Te82  1  0.42325604  0.05051793  0.43150859  1
  Te  Te83  1  0.39711618  0.07465281  0.73526841  1
  Te  Te84  1  0.44541017  0.39622397  0.07046774  1
  Te  Te85  1  0.41277840  0.41321718  0.41472283  1
  Te  Te86  1  0.42651803  0.40989400  0.76096035  1
  Te  Te87  1  0.43909897  0.73124833  0.09907685  1
  Te  Te88  1  0.39900996  0.74958283  0.42337502  1
  Te  Te89  1  0.41981376  0.75697542  0.74702051  1
  Te  Te90  1  0.72990951  0.10136102  0.07798696  1
  Te  Te91  1  0.74933179  0.08130710  0.41530709  1
  Te  Te92  1  0.78990016  0.09554977  0.78683482  1
  Te  Te93  1  0.73285669  0.44536583  0.11005515  1
  Te  Te94  1  0.75700889  0.41533531  0.41148622  1
  Te  Te95  1  0.80072321  0.35517071  0.79113243  1
  Te  Te96  1  0.73105669  0.71581680  0.06809110  1
  Te  Te97  1  0.73241338  0.76093574  0.43781277  1
  Te  Te98  1  0.75115518  0.74902702  0.74466792  1
  Te  Te99  1  0.07817955  0.25121129  0.25023235  1
  Te  Te100  1  0.09337164  0.29586594  0.58922596  1
  Te  Te101  1  0.05296563  0.22390265  0.91365232  1
  Te  Te102  1  0.08713175  0.57075804  0.24025550  1
  Te  Te103  1  0.08112684  0.58326013  0.58166716  1
  Te  Te104  1  0.03383341  0.57977720  0.91104301  1
  Te  Te105  1  0.08666427  0.93079386  0.20736117  1
  Te  Te106  1  0.06932633  0.90800233  0.58739746  1
  Te  Te107  1  0.06482117  0.95000848  0.93102374  1
  Te  Te108  1  0.45116504  0.26727573  0.23847030  1
  Te  Te109  1  0.42096840  0.25221020  0.57422124  1
  Te  Te110  1  0.46088630  0.20421064  0.92390782  1
  Te  Te111  1  0.42260745  0.59045437  0.25195531  1
  Te  Te112  1  0.41889595  0.58555104  0.59430498  1
  Te  Te113  1  0.41530889  0.57200165  0.92311357  1
  Te  Te114  1  0.41132578  0.92781021  0.25592531  1
  Te  Te115  1  0.42638669  0.93175830  0.53709578  1
  Te  Te116  1  0.44617659  0.94693362  0.90356913  1
  Te  Te117  1  0.74232021  0.24097364  0.22827605  1
  Te  Te118  1  0.77356522  0.23087838  0.61481051  1
  Te  Te119  1  0.73617297  0.26157709  0.91163060  1
  Te  Te120  1  0.74394558  0.56004981  0.23416061  1
  Te  Te121  1  0.76055642  0.58099836  0.60334548  1
  Te  Te122  1  0.74372568  0.54553866  0.94042000  1
  Te  Te123  1  0.74980133  0.92191332  0.25744316  1
  Te  Te124  1  0.74230375  0.92518951  0.58761769  1
  Te  Te125  1  0.76125391  0.92541204  0.91645349  1
  Te  Te126  1  0.26567902  0.25041687  0.07194074  1
  Te  Te127  1  0.22923786  0.24621112  0.42711138  1
  Te  Te128  1  0.22946461  0.23769970  0.73446673  1
  Te  Te129  1  0.24761876  0.57814601  0.08606340  1
  Te  Te130  1  0.25941993  0.58921760  0.40798973  1
  Te  Te131  1  0.24965317  0.60685498  0.72361078  1
  Te  Te132  1  0.24665220  0.91309352  0.08562798  1
  Te  Te133  1  0.25844382  0.90848338  0.42618580  1
  Te  Te134  1  0.26838809  0.93197115  0.72984339  1
  Te  Te135  1  0.55248926  0.27207098  0.07019736  1
  Te  Te136  1  0.57967649  0.24681350  0.42355528  1
  Te  Te137  1  0.60769306  0.24730117  0.75923793  1
  Te  Te138  1  0.60214078  0.62629737  0.09196267  1
  Te  Te139  1  0.58139439  0.57317026  0.42100922  1
  Te  Te140  1  0.61567418  0.58009547  0.74287760  1
  Te  Te141  1  0.60254714  0.90729635  0.06969927  1
  Te  Te142  1  0.57553427  0.91003034  0.45180402  1
  Te  Te143  1  0.58143937  0.93051955  0.74757495  1
  Te  Te144  1  0.90020499  0.26703391  0.08325467  1
  Te  Te145  1  0.92982442  0.23862634  0.43225197  1
  Te  Te146  1  0.88905091  0.23604168  0.76766545  1
  Te  Te147  1  0.92173329  0.58219272  0.06398148  1
  Te  Te148  1  0.90270247  0.57441209  0.38544795  1
  Te  Te149  1  0.89198999  0.57415658  0.74556205  1
  Te  Te150  1  0.92908057  0.92179269  0.08397323  1
  Te  Te151  1  0.93692890  0.92000401  0.40853921  1
  Te  Te152  1  0.90527074  0.92818031  0.74971220  1
  Te  Te153  1  0.26894185  0.06783134  0.26175475  1
  Te  Te154  1  0.23532941  0.08932969  0.59743767  1
  Te  Te155  1  0.24510524  0.08921605  0.91557764  1
  Te  Te156  1  0.25924340  0.41818645  0.25894670  1
  Te  Te157  1  0.22752069  0.40563463  0.58378208  1
  Te  Te158  1  0.24232790  0.41445729  0.91120374  1
  Te  Te159  1  0.25143476  0.74765932  0.26447822  1
  Te  Te160  1  0.28152364  0.76526996  0.56243628  1
  Te  Te161  1  0.24673446  0.75716428  0.90725574  1
  Te  Te162  1  0.59460040  0.09877356  0.24476850  1
  Te  Te163  1  0.58186903  0.07719673  0.59087831  1
  Te  Te164  1  0.58562709  0.11962845  0.86797350  1
  Te  Te165  1  0.61335695  0.42587885  0.21208271  1
  Te  Te166  1  0.62563223  0.39307708  0.61469354  1
  Te  Te167  1  0.61386551  0.45399953  0.89618003  1
  Te  Te168  1  0.58260190  0.74264749  0.26271232  1
  Te  Te169  1  0.59183425  0.74628869  0.60915286  1
  Te  Te170  1  0.58656119  0.73579681  0.91409484  1
  Te  Te171  1  0.92009231  0.07343008  0.25906377  1
  Te  Te172  1  0.91060872  0.10743120  0.58278433  1
  Te  Te173  1  0.89435220  0.06800290  0.89201056  1
  Te  Te174  1  0.88321278  0.40179229  0.23557043  1
  Te  Te175  1  0.89693121  0.42729891  0.60150267  1
  Te  Te176  1  0.85307167  0.43438309  0.91521681  1
  Te  Te177  1  0.92333067  0.76539580  0.23526156  1
  Te  Te178  1  0.93124413  0.74884474  0.55829442  1
  Te  Te179  1  0.90117962  0.75346720  0.90977213  1
