# generated using pymatgen
data_In2Te3
_symmetry_space_group_name_H-M   'P 1'
_cell_length_a   18.78727621
_cell_length_b   18.79720899
_cell_length_c   18.78177734
_cell_angle_alpha   90.04634865
_cell_angle_beta   89.96009654
_cell_angle_gamma   89.88377204
_symmetry_Int_Tables_number   1
_chemical_formula_structural   In2Te3
_chemical_formula_sum   'In72 Te108'
_cell_volume   6632.73638033
_cell_formula_units_Z   36
loop_
 _symmetry_equiv_pos_site_id
 _symmetry_equiv_pos_as_xyz
  1  'x, y, z'
loop_
 _atom_site_type_symbol
 _atom_site_label
 _atom_site_symmetry_multiplicity
 _atom_site_fract_x
 _atom_site_fract_y
 _atom_site_fract_z
 _atom_site_occupancy
  In  In0  1  0.82349043  0.14811297  0.04609907  1
  In  In1  1  0.49455813  0.80586657  0.32487567  1
  In  In2  1  0.30610961  0.83767769  0.83644405  1
  In  In3  1  0.64234320  0.34099028  -0.01683324  1
  In  In4  1  0.47345724  0.36858940  0.84028310  1
  In  In5  1  -0.00423949  0.00190919  0.67704175  1
  In  In6  1  0.50164203  0.84000502  0.67845994  1
  In  In7  1  0.04770794  0.34846508  0.02269687  1
  In  In8  1  0.00755070  0.82530343  0.15258127  1
  In  In9  1  0.48872832  0.34269373  0.14299572  1
  In  In10  1  0.33571411  0.83498860  0.51316199  1
  In  In11  1  0.48733560  0.83448254  0.01019770  1
  In  In12  1  0.66080473  -0.00925660  0.66134555  1
  In  In13  1  0.84413620  0.49858661  -0.00658522  1
  In  In14  1  0.69858121  0.80907574  0.52139141  1
  In  In15  1  0.82028082  0.82604167  0.65857387  1
  In  In16  1  0.66011526  0.65787400  0.68066957  1
  In  In17  1  0.33553636  0.67033177  0.32119901  1
  In  In18  1  0.44415252  0.15901877  0.72083510  1
  In  In19  1  0.65760592  0.67139332  0.01287629  1
  In  In20  1  0.30431166  0.32929509  0.70363038  1
  In  In21  1  0.84758317  0.17641279  0.64294667  1
  In  In22  1  0.32704194  0.65204617  0.66673146  1
  In  In23  1  0.48592511  0.15870250  0.30738429  1
  In  In24  1  0.17018492  0.00978135  0.49991775  1
  In  In25  1  0.30961322  0.01370797  0.32862609  1
  In  In26  1  0.01981487  0.01252549  0.00803613  1
  In  In27  1  0.85416300  0.33118059  0.17100131  1
  In  In28  1  0.68701926  0.34032280  0.33913981  1
  In  In29  1  0.02599683  0.33547489  0.29056203  1
  In  In30  1  0.03101778  0.36022865  0.68524161  1
  In  In31  1  0.01267981  0.19459745  0.51033636  1
  In  In32  1  0.48031051  0.64305493  0.15271068  1
  In  In33  1  0.82612891  -0.01055761  0.82915844  1
  In  In34  1  0.83307598  0.83176203  0.32321476  1
  In  In35  1  0.29980779  0.34642664  0.32023634  1
  In  In36  1  0.51057198  -0.01247646  0.51304928  1
  In  In37  1  0.48440715  0.16443004  -0.01064819  1
  In  In38  1  0.65279384  0.17025961  0.84227465  1
  In  In39  1  0.50526544  0.51436294  0.33353737  1
  In  In40  1  0.85409377  0.16169597  0.30414518  1
  In  In41  1  0.02625441  0.63850812  0.68567479  1
  In  In42  1  0.67720220  0.82450656  0.17946127  1
  In  In43  1  0.32818718  0.48316902  0.52868348  1
  In  In44  1  0.83101095  0.82729048  -0.00838356  1
  In  In45  1  0.84476817  0.64893531  0.47574484  1
  In  In46  1  0.50388365  0.34101749  0.51764886  1
  In  In47  1  0.28787633  0.34824663  0.00547974  1
  In  In48  1  0.66616311  0.15056737  0.48182746  1
  In  In49  1  -0.00038627  0.64329483  0.00711550  1
  In  In50  1  0.66849239  0.48885845  0.50017640  1
  In  In51  1  -0.00078379  0.00688624  0.32229643  1
  In  In52  1  0.32757874  0.01992453  -0.02008384  1
  In  In53  1  0.47509728  0.63914131  0.86884511  1
  In  In54  1  0.69179952  0.52099666  0.17708392  1
  In  In55  1  0.49267508  0.00598821  0.13585256  1
  In  In56  1  0.31258007  0.18660941  0.48589886  1
  In  In57  1  0.16361020  0.83197785  -0.01099542  1
  In  In58  1  0.16344715  0.01457861  0.83903866  1
  In  In59  1  0.83021481  0.34941893  0.83620372  1
  In  In60  1  0.01447660  0.64612018  0.32763466  1
  In  In61  1  0.84081958  0.66894814  0.82235909  1
  In  In62  1  0.15782911  0.02662092  0.16787493  1
  In  In63  1  0.16262173  0.64590245  0.83335199  1
  In  In64  1  0.01040717  0.82094909  0.50342059  1
  In  In65  1  0.01883256  0.17512397  0.85129508  1
  In  In66  1  0.66528023  -0.01310622  0.32714322  1
  In  In67  1  0.33494803  0.83085958  0.17574960  1
  In  In68  1  0.84978565  0.36731422  0.49763164  1
  In  In69  1  0.16442072  0.48891779  0.32639538  1
  In  In70  1  0.15819632  0.65929523  0.51007566  1
  In  In71  1  0.67689042  0.34471195  0.68336184  1
  Te  Te72  1  0.11892362  0.11503642  0.05251408  1
  Te  Te73  1  0.08364723  0.09893613  0.41110151  1
  Te  Te74  1  0.08985915  0.10488868  0.73457436  1
  Te  Te75  1  0.10497024  0.44873435  0.11914852  1
  Te  Te76  1  0.09000688  0.39287814  0.41349859  1
  Te  Te77  1  0.12734869  0.44177926  0.76860316  1
  Te  Te78  1  0.10430645  0.72920076  0.08429222  1
  Te  Te79  1  0.09977093  0.75052395  0.40190856  1
  Te  Te80  1  0.09350907  0.75000579  0.75391405  1
  Te  Te81  1  0.38473903  0.10330751  0.09533551  1
  Te  Te82  1  0.42213614  0.07959311  0.42353756  1
  Te  Te83  1  0.38300177  0.05853266  0.80708803  1
  Te  Te84  1  0.41289437  0.43507768  0.04864458  1
  Te  Te85  1  0.41416284  0.40700806  0.41202816  1
  Te  Te86  1  0.39000134  0.44325417  0.74375491  1
  Te  Te87  1  0.39052183  0.73448416  0.06938196  1
  Te  Te88  1  0.41851158  0.73259301  0.43447993  1
  Te  Te89  1  0.41216222  0.74546191  0.76198029  1
  Te  Te90  1  0.73261305  0.06042319  0.11520927  1
  Te  Te91  1  0.76841470  0.07458726  0.40129742  1
  Te  Te92  1  0.75361837  0.09987766  0.73763247  1
  Te  Te93  1  0.74635574  0.40592166  0.07992683  1
  Te  Te94  1  0.77516130  0.45135597  0.39109001  1
  Te  Te95  1  0.75937173  0.44609960  0.75072464  1
  Te  Te96  1  0.76906501  0.73359103  0.09609668  1
  Te  Te97  1  0.74053928  0.73078331  0.39358189  1
  Te  Te98  1  0.73246214  0.76311814  0.76517556  1
  Te  Te99  1  0.11153531  0.23796674  0.21791522  1
  Te  Te100  1  0.10895955  0.26180021  0.60248440  1
  Te  Te101  1  0.11247522  0.28618967  0.89409204  1
  Te  Te102  1  0.09615477  0.57334350  0.22123546  1
  Te  Te103  1  0.07971109  0.55299999  0.57550887  1
  Te  Te104  1  0.10337954  0.55615762  0.94005218  1
  Te  Te105  1  0.09305403  0.91187391  0.24594001  1
  Te  Te106  1  0.09073122  0.91512092  0.59213221  1
  Te  Te107  1  0.06838403  0.91305036  0.90265578  1
  Te  Te108  1  0.39918788  0.26004381  0.23532665  1
  Te  Te109  1  0.40884991  0.25076185  0.59544989  1
  Te  Te110  1  0.39490146  0.26926197  0.92427713  1
  Te  Te111  1  0.39132712  0.55346354  0.23874408  1
  Te  Te112  1  0.42446679  0.58156202  0.57995828  1
  Te  Te113  1  0.36699795  0.54739691  0.92070411  1
  Te  Te114  1  0.42919832  0.92826548  0.25905539  1
  Te  Te115  1  0.40310622  0.93528719  0.60747359  1
  Te  Te116  1  0.42093172  0.92411745  0.90619483  1
  Te  Te117  1  0.74421881  0.24437476  0.23627201  1
  Te  Te118  1  0.74336649  0.26352743  0.56281185  1
  Te  Te119  1  0.75809126  0.24560082  0.92522519  1
  Te  Te120  1  0.74547176  0.60019394  0.28592783  1
  Te  Te121  1  0.75609538  0.58495028  0.58403781  1
  Te  Te122  1  0.74927493  0.59096305  0.91809064  1
  Te  Te123  1  0.77532925  0.93787801  0.22739826  1
  Te  Te124  1  0.76705027  0.93767690  0.56637598  1
  Te  Te125  1  0.73667549  0.91499041  0.91858525  1
  Te  Te126  1  0.20428285  0.25506039  0.09265973  1
  Te  Te127  1  0.21163805  0.27045801  0.41408929  1
  Te  Te128  1  0.23254648  0.23413340  0.79059890  1
  Te  Te129  1  0.30820019  0.55112280  0.05897291  1
  Te  Te130  1  0.25649009  0.57667856  0.42017798  1
  Te  Te131  1  0.23239577  0.55447602  0.73119483  1
  Te  Te132  1  0.24939171  0.92344306  0.07957611  1
  Te  Te133  1  0.24600809  0.90331318  0.40940814  1
  Te  Te134  1  0.24238375  0.93203718  0.74356407  1
  Te  Te135  1  0.58297081  0.24012816  0.08066359  1
  Te  Te136  1  0.57303788  0.24969237  0.40595624  1
  Te  Te137  1  0.56751807  0.26093294  0.75406956  1
  Te  Te138  1  0.58037936  0.55629453  0.07695219  1
  Te  Te139  1  0.58476325  0.58951419  0.43042553  1
  Te  Te140  1  0.57022964  0.57985763  0.76986336  1
  Te  Te141  1  0.59911695  0.91104017  0.07862599  1
  Te  Te142  1  0.58966376  0.89286455  0.42254473  1
  Te  Te143  1  0.58594196  0.92279382  0.76683709  1
  Te  Te144  1  0.93481199  0.25106126  0.06948809  1
  Te  Te145  1  0.91433992  0.25990717  0.40914752  1
  Te  Te146  1  0.92332390  0.25223478  0.75078829  1
  Te  Te147  1  0.91260567  0.57002179  0.10313128  1
  Te  Te148  1  0.95684194  0.56070330  0.43474511  1
  Te  Te149  1  0.92854915  0.56362067  0.76752777  1
  Te  Te150  1  0.91822455  0.92240909  0.07746022  1
  Te  Te151  1  0.92245443  0.91145643  0.41689949  1
  Te  Te152  1  0.91916950  0.89479013  0.75358359  1
  Te  Te153  1  0.23121395  0.11924387  0.26127209  1
  Te  Te154  1  0.25996038  0.09121946  0.58464818  1
  Te  Te155  1  0.24885133  0.12480602  0.90320505  1
  Te  Te156  1  0.23267014  0.41822563  0.20503648  1
  Te  Te157  1  0.23362948  0.38187229  0.58078380  1
  Te  Te158  1  0.20988417  0.42936725  0.90291919  1
  Te  Te159  1  0.23681827  0.74067677  0.23783575  1
  Te  Te160  1  0.23708158  0.75551557  0.59877408  1
  Te  Te161  1  0.25585036  0.72703945  0.92640962  1
  Te  Te162  1  0.59413316  0.08374116  0.23055829  1
  Te  Te163  1  0.57432001  0.10133299  0.59473289  1
  Te  Te164  1  0.58104838  0.07264593  0.92451417  1
  Te  Te165  1  0.58520197  0.41200822  0.24706634  1
  Te  Te166  1  0.57443388  0.43568881  0.61151515  1
  Te  Te167  1  0.59056444  0.44532078  0.89168994  1
  Te  Te168  1  0.58344340  0.71808636  0.23988776  1
  Te  Te169  1  0.57605130  0.74468261  0.58444016  1
  Te  Te170  1  0.57218295  0.75007820  0.91484238  1
  Te  Te171  1  0.94567672  0.09137435  0.21221356  1
  Te  Te172  1  0.92776106  0.07612808  0.56143118  1
  Te  Te173  1  0.91207572  0.08342748  0.91618522  1
  Te  Te174  1  0.92719832  0.43643077  0.24301036  1
  Te  Te175  1  0.92208320  0.42871606  0.60987506  1
  Te  Te176  1  0.94246011  0.41003635  0.91914869  1
  Te  Te177  1  0.92201930  0.73712267  0.24342975  1
  Te  Te178  1  0.91881894  0.73216542  0.58782057  1
  Te  Te179  1  0.93535685  0.74683931  0.91395264  1
