# generated using pymatgen
data_In2Te3
_symmetry_space_group_name_H-M   'P 1'
_cell_length_a   18.88833545
_cell_length_b   18.89392218
_cell_length_c   18.90401248
_cell_angle_alpha   90.16605781
_cell_angle_beta   89.97554226
_cell_angle_gamma   90.00397977
_symmetry_Int_Tables_number   1
_chemical_formula_structural   In2Te3
_chemical_formula_sum   'In72 Te108'
_cell_volume   6746.33557400
_cell_formula_units_Z   36
loop_
 _symmetry_equiv_pos_site_id
 _symmetry_equiv_pos_as_xyz
  1  'x, y, z'
loop_
 _atom_site_type_symbol
 _atom_site_label
 _atom_site_symmetry_multiplicity
 _atom_site_fract_x
 _atom_site_fract_y
 _atom_site_fract_z
 _atom_site_occupancy
  In  In0  1  0.85677889  0.19965033  0.68829912  1
  In  In1  1  0.29691220  0.18272834  0.49142923  1
  In  In2  1  0.67063586  0.33721535  0.67801466  1
  In  In3  1  0.50976870  0.01457533  0.51602587  1
  In  In4  1  0.01406770  0.19376920  0.51566217  1
  In  In5  1  0.83721377  0.02361676  0.46942119  1
  In  In6  1  0.86510230  0.81313317  0.65692698  1
  In  In7  1  0.33753449  0.51165570  0.82776433  1
  In  In8  1  0.66957064  0.01068307  0.32923991  1
  In  In9  1  0.32176773  0.35342792  0.65821707  1
  In  In10  1  -0.00108985  0.49241422  0.85140566  1
  In  In11  1  0.66901297  0.02052202  0.61281553  1
  In  In12  1  0.31705577  0.01369033  0.65367580  1
  In  In13  1  0.51119295  0.34525794  0.50248501  1
  In  In14  1  -0.00333249  0.84617134  0.85319112  1
  In  In15  1  0.33116719  0.64404042  0.32783729  1
  In  In16  1  0.16140147  0.65229468  0.18196636  1
  In  In17  1  0.52080616  0.49080378  0.31654363  1
  In  In18  1  0.66105865  0.67115901  0.32423310  1
  In  In19  1  0.49894754  0.65463888  0.17179923  1
  In  In20  1  0.01615784  0.48102038  0.48775416  1
  In  In21  1  0.65526090  0.00725410  -0.02471516  1
  In  In22  1  0.00183890  0.35150521  0.00952087  1
  In  In23  1  0.80971766  0.65958854  0.85508325  1
  In  In24  1  0.86673138  0.63878067  0.16186891  1
  In  In25  1  0.32354401  0.80941189  0.47668297  1
  In  In26  1  0.14527589  0.80619156  0.34761541  1
  In  In27  1  0.16336808  0.01118613  0.17001249  1
  In  In28  1  0.28507845  0.47487836  0.48263841  1
  In  In29  1  0.49022756  -0.00580945  0.15966452  1
  In  In30  1  0.34867807  0.82886656  0.83178036  1
  In  In31  1  -0.00681576  0.01688915  0.03276740  1
  In  In32  1  0.14287893  0.47328739  0.01208186  1
  In  In33  1  0.16720852  0.64759069  0.81312824  1
  In  In34  1  0.48012088  0.81971852  0.67803031  1
  In  In35  1  0.17062411  0.83990219  0.64477532  1
  In  In36  1  0.66564876  0.83795928  0.48098189  1
  In  In37  1  0.84092515  0.02351452  0.84882232  1
  In  In38  1  0.63273436  0.83107720  0.83552495  1
  In  In39  1  0.84886484  0.80377929  0.31475979  1
  In  In40  1  0.35714556  0.18315644  0.85906011  1
  In  In41  1  0.49388907  0.49252555  0.65620151  1
  In  In42  1  0.48271294  0.45545880  0.00979670  1
  In  In43  1  0.02886453  0.01697506  0.66059023  1
  In  In44  1  0.68432762  0.34131025  0.00518598  1
  In  In45  1  0.81795344  0.82570477  0.03455162  1
  In  In46  1  0.87974839  0.47249427  0.32831261  1
  In  In47  1  0.84775594  0.50041482  0.65722618  1
  In  In48  1  0.84228680  0.33976492  0.49536155  1
  In  In49  1  0.49322905  0.17029862  0.33668012  1
  In  In50  1  0.69081747  0.65081229  0.65415280  1
  In  In51  1  0.13974617  0.03490275  0.80452054  1
  In  In52  1  0.66437426  0.17907038  0.81816155  1
  In  In53  1  0.51146067  0.01865183  0.83361583  1
  In  In54  1  0.32314257  0.65111205  -0.01130568  1
  In  In55  1  0.70887339  0.20180103  0.17671410  1
  In  In56  1  0.82999363  -0.00132394  0.18970178  1
  In  In57  1  0.48726203  0.64621081  0.50785628  1
  In  In58  1  0.67900442  0.48487903  0.17551400  1
  In  In59  1  0.01299386  0.65466848  0.65038686  1
  In  In60  1  0.31287131  0.01183152  -0.00925356  1
  In  In61  1  0.67195120  0.50734957  0.83712855  1
  In  In62  1  0.31256524  0.33416131  0.31868383  1
  In  In63  1  0.31681499  0.17655049  0.17244277  1
  In  In64  1  0.15057228  0.83127243  0.02755570  1
  In  In65  1  0.14285687  0.34114166  0.18073965  1
  In  In66  1  0.84158537  0.18301554  0.01409340  1
  In  In67  1  0.16798099  0.33373693  0.82242811  1
  In  In68  1  0.31629272  -0.00655993  0.32019383  1
  In  In69  1  0.50200822  0.70896774  0.82722447  1
  In  In70  1  0.51035885  0.80740056  0.00485294  1
  In  In71  1  0.01032138  0.02124754  0.33882812  1
  Te  Te72  1  0.08932927  0.11165259  0.09195375  1
  Te  Te73  1  0.08833046  0.08083600  0.45099412  1
  Te  Te74  1  0.07143276  0.15264929  0.72754483  1
  Te  Te75  1  0.03347570  0.46898639  0.13100528  1
  Te  Te76  1  0.05232332  0.37007650  0.38701438  1
  Te  Te77  1  0.08697895  0.43452195  0.74923920  1
  Te  Te78  1  0.06878454  0.72721871  0.09063757  1
  Te  Te79  1  0.03984296  0.71870641  0.40488559  1
  Te  Te80  1  0.07870238  0.76194936  0.75521987  1
  Te  Te81  1  0.40664723  0.09265056  0.07911281  1
  Te  Te82  1  0.39924965  0.08042457  0.42364241  1
  Te  Te83  1  0.41269703  0.08947142  0.74376356  1
  Te  Te84  1  0.37877205  0.37607223  0.07239350  1
  Te  Te85  1  0.41113841  0.42157838  0.41020075  1
  Te  Te86  1  0.42504004  0.40656636  0.75914111  1
  Te  Te87  1  0.40127514  0.74110953  0.08370909  1
  Te  Te88  1  0.43180952  0.73606806  0.39920245  1
  Te  Te89  1  0.38042542  0.71853656  0.73167077  1
  Te  Te90  1  0.75265863  0.07126594  0.07684579  1
  Te  Te91  1  0.73523039  0.11507320  0.41355116  1
  Te  Te92  1  0.74522591  0.07358562  0.74154471  1
  Te  Te93  1  0.78251368  0.39854342  0.10746836  1
  Te  Te94  1  0.76357841  0.42276581  0.40402879  1
  Te  Te95  1  0.76961351  0.41890068  0.75883469  1
  Te  Te96  1  0.75337276  0.72027099  0.11059265  1
  Te  Te97  1  0.76226252  0.73764028  0.42176879  1
  Te  Te98  1  0.74818664  0.76152211  0.74400645  1
  Te  Te99  1  0.07324446  0.26040078  0.28467911  1
  Te  Te100  1  0.10505705  0.26269276  0.61011396  1
  Te  Te101  1  0.08594484  0.26453143  0.92473955  1
  Te  Te102  1  0.12806089  0.55359936  0.28924870  1
  Te  Te103  1  0.10177777  0.56115269  0.58064714  1
  Te  Te104  1  0.08592523  0.59352397  0.92723921  1
  Te  Te105  1  0.08317637  0.91539174  0.25499183  1
  Te  Te106  1  0.06353240  0.90607732  0.56993275  1
  Te  Te107  1  0.09051679  0.93652857  0.93158257  1
  Te  Te108  1  0.42296547  0.26474876  0.23992880  1
  Te  Te109  1  0.40308588  0.25938383  0.56924999  1
  Te  Te110  1  0.40860370  0.27674441  0.96176392  1
  Te  Te111  1  0.40761735  0.55048474  0.23431034  1
  Te  Te112  1  0.38483665  0.55778604  0.57366707  1
  Te  Te113  1  0.43997895  0.58921218  0.91359618  1
  Te  Te114  1  0.40824116  0.90843016  0.24459425  1
  Te  Te115  1  0.40406707  0.90855452  0.57892905  1
  Te  Te116  1  0.43026690  0.92116688  0.92416281  1
  Te  Te117  1  0.80222894  0.20826868  0.28748729  1
  Te  Te118  1  0.75724550  0.24984498  0.58703221  1
  Te  Te119  1  0.76416789  0.25449185  0.90423005  1
  Te  Te120  1  0.76569074  0.57493131  0.26589869  1
  Te  Te121  1  0.78665892  0.59251898  0.56096661  1
  Te  Te122  1  0.76065162  0.55486306  0.94557485  1
  Te  Te123  1  0.73986523  0.89718154  0.25624925  1
  Te  Te124  1  0.76700494  0.90806783  0.57359638  1
  Te  Te125  1  0.75287477  0.90915042  0.90806795  1
  Te  Te126  1  0.21533265  0.24829491  0.09042996  1
  Te  Te127  1  0.20991055  0.26733526  0.40435698  1
  Te  Te128  1  0.26883600  0.24371178  0.74901256  1
  Te  Te129  1  0.24414142  0.56555867  0.08296633  1
  Te  Te130  1  0.21822400  0.59125271  0.41311175  1
  Te  Te131  1  0.23294440  0.54715429  0.72783975  1
  Te  Te132  1  0.25736646  0.91596690  0.09438053  1
  Te  Te133  1  0.23173662  0.91410780  0.41875192  1
  Te  Te134  1  0.24870880  0.92385121  0.75952108  1
  Te  Te135  1  0.60280389  0.25466864  0.09210012  1
  Te  Te136  1  0.58624847  0.26607134  0.40211929  1
  Te  Te137  1  0.56613387  0.25283863  0.73805938  1
  Te  Te138  1  0.57438315  0.55223385  0.08747932  1
  Te  Te139  1  0.59079320  0.57572111  0.42191523  1
  Te  Te140  1  0.57883235  0.59515401  0.74177354  1
  Te  Te141  1  0.59315804  0.91259814  0.07705640  1
  Te  Te142  1  0.56699064  0.92563553  0.40642831  1
  Te  Te143  1  0.57971858  0.93014231  0.72721249  1
  Te  Te144  1  0.93401129  0.25607384  0.10479710  1
  Te  Te145  1  0.93164712  0.25529758  0.40523280  1
  Te  Te146  1  0.96413134  0.25468755  0.76969489  1
  Te  Te147  1  0.95941206  0.58026307  0.06077234  1
  Te  Te148  1  0.95200457  0.58634328  0.39950554  1
  Te  Te149  1  0.91362145  0.60084826  0.75915704  1
  Te  Te150  1  0.92376309  0.90576127  0.10948403  1
  Te  Te151  1  0.91501266  0.91668155  0.39913949  1
  Te  Te152  1  0.92142665  0.93015361  0.74905111  1
  Te  Te153  1  0.22713837  0.10513506  0.27271337  1
  Te  Te154  1  0.21774130  0.08180264  0.56872473  1
  Te  Te155  1  0.23222763  0.10609345  0.90756782  1
  Te  Te156  1  0.23129577  0.44183605  0.25030148  1
  Te  Te157  1  0.20452628  0.37471983  0.56401470  1
  Te  Te158  1  0.25248984  0.42260798  0.91601189  1
  Te  Te159  1  0.25272076  0.75204667  0.25317045  1
  Te  Te160  1  0.24134272  0.73448999  0.57186611  1
  Te  Te161  1  0.23854518  0.75738977  0.91592435  1
  Te  Te162  1  0.58444896  0.09597662  0.23462456  1
  Te  Te163  1  0.57506240  0.12848036  0.58170094  1
  Te  Te164  1  0.57045783  0.12275198  0.92757963  1
  Te  Te165  1  0.61291269  0.38647996  0.26572314  1
  Te  Te166  1  0.61052311  0.43493859  0.57794938  1
  Te  Te167  1  0.58400095  0.40426003  0.90712271  1
  Te  Te168  1  0.57807240  0.75691851  0.24022521  1
  Te  Te169  1  0.58252301  0.75154646  0.57990371  1
  Te  Te170  1  0.61322555  0.71975896  0.93667819  1
  Te  Te171  1  0.92037041  0.10157612  0.24907056  1
  Te  Te172  1  0.90742416  0.09003360  0.58757804  1
  Te  Te173  1  0.94188119  0.10693778  0.91986946  1
  Te  Te174  1  0.90579837  0.39145524  0.20440920  1
  Te  Te175  1  0.94036423  0.39902090  0.59562393  1
  Te  Te176  1  0.89756012  0.42630725  0.93448676  1
  Te  Te177  1  0.95606387  0.72564177  0.24724874  1
  Te  Te178  1  0.94895903  0.74822145  0.55288880  1
  Te  Te179  1  0.90677670  0.75308390  0.93028580  1
