# generated using pymatgen
data_In2Te3
_symmetry_space_group_name_H-M   'P 1'
_cell_length_a   18.99398240
_cell_length_b   18.97612810
_cell_length_c   18.99377695
_cell_angle_alpha   89.81890780
_cell_angle_beta   89.99693179
_cell_angle_gamma   90.09775070
_symmetry_Int_Tables_number   1
_chemical_formula_structural   In2Te3
_chemical_formula_sum   'In72 Te108'
_cell_volume   6845.92546020
_cell_formula_units_Z   36
loop_
 _symmetry_equiv_pos_site_id
 _symmetry_equiv_pos_as_xyz
  1  'x, y, z'
loop_
 _atom_site_type_symbol
 _atom_site_label
 _atom_site_symmetry_multiplicity
 _atom_site_fract_x
 _atom_site_fract_y
 _atom_site_fract_z
 _atom_site_occupancy
  In  In0  1  0.16222750  0.84254382  0.69395972  1
  In  In1  1  0.31845620  0.82152416  0.18050273  1
  In  In2  1  0.13729809  -0.01210720  0.85999278  1
  In  In3  1  0.33343117  0.01488317  -0.01013281  1
  In  In4  1  0.31511726  0.47537065  0.85037063  1
  In  In5  1  0.36443151  0.63965437  0.67654809  1
  In  In6  1  0.13761417  0.41604073  0.15504792  1
  In  In7  1  0.53355787  0.68566848  0.47665267  1
  In  In8  1  0.00375043  0.18632165  0.18007300  1
  In  In9  1  0.50822001  0.69242444  0.17174256  1
  In  In10  1  0.84972720  0.64342283  0.49674325  1
  In  In11  1  0.84615911  -0.02599514  0.16123471  1
  In  In12  1  0.33305037  0.67615522  0.33767851  1
  In  In13  1  0.85524350  0.36682887  0.87087224  1
  In  In14  1  0.84003426  0.16377558  0.37298816  1
  In  In15  1  0.53435146  0.19851972  0.29118311  1
  In  In16  1  0.16293053  0.17931247  0.31231500  1
  In  In17  1  0.49789225  0.49841134  0.00368082  1
  In  In18  1  -0.08387312  0.76555210  0.09465078  1
  In  In19  1  0.48578394  0.35798564  0.84525209  1
  In  In20  1  0.70717301  0.00632060  0.30614596  1
  In  In21  1  0.30085593  0.21219432  0.81318714  1
  In  In22  1  0.33539639  0.84834388  0.52418570  1
  In  In23  1  -0.00794720  0.80338684  0.86349609  1
  In  In24  1  0.32164058  0.48919968  0.51020567  1
  In  In25  1  0.82702526  0.33758383  0.48872645  1
  In  In26  1  0.69582118  0.18968545  0.84184964  1
  In  In27  1  0.71820472  0.55492912  0.12511278  1
  In  In28  1  0.85530909  0.00782304  0.83704585  1
  In  In29  1  0.67777489  0.17007173  0.16301235  1
  In  In30  1  0.31063437  0.80630982  0.85084618  1
  In  In31  1  0.32925881  0.13544467  0.15961780  1
  In  In32  1  0.70605138  0.81632676  0.49795315  1
  In  In33  1  0.82368184  0.79689566  0.69581981  1
  In  In34  1  0.50863889  -0.02702173  0.13394910  1
  In  In35  1  0.13448419  0.50721331  0.34585688  1
  In  In36  1  0.35893654  -0.01178099  0.38937705  1
  In  In37  1  0.70130015  0.36805318  0.28139035  1
  In  In38  1  0.50885513  0.50130143  0.67367695  1
  In  In39  1  0.49982788  0.66141176  0.84441983  1
  In  In40  1  -0.00650328  0.16960160  0.82272970  1
  In  In41  1  0.88805527  0.39740036  0.13585163  1
  In  In42  1  0.01134616  -0.01282250  0.33380125  1
  In  In43  1  0.67661151  -0.01493352  -0.01197047  1
  In  In44  1  0.52465202  0.32729857  0.49767084  1
  In  In45  1  -0.00730867  0.47892810  0.50050897  1
  In  In46  1  0.49942989  0.32459694  0.14610092  1
  In  In47  1  0.30067780  0.33221503  0.33512184  1
  In  In48  1  0.49960419  0.17553222  0.67592022  1
  In  In49  1  0.82844133  0.54505125  0.70116566  1
  In  In50  1  0.69322378  0.35901014  0.67936126  1
  In  In51  1  0.53215087  0.83621501  0.30674597  1
  In  In52  1  0.49863647  0.51848002  0.34086629  1
  In  In53  1  0.15021254  0.65703188  0.86780843  1
  In  In54  1  0.12837924  0.18744275  -0.00000684  1
  In  In55  1  0.52479930  0.83748567  0.65323260  1
  In  In56  1  0.17056344  0.00862958  0.48498664  1
  In  In57  1  0.14703554  0.70060887  0.51062780  1
  In  In58  1  0.16060577  0.00497851  0.18137216  1
  In  In59  1  0.33464044  0.16356578  0.52034526  1
  In  In60  1  -0.02056342  0.82868775  0.48976465  1
  In  In61  1  0.30284165  0.33476491  -0.00079192  1
  In  In62  1  0.00422161  0.34714671  0.66718519  1
  In  In63  1  0.14560153  0.80699941  0.31148651  1
  In  In64  1  0.15475126  0.50117539  0.66840568  1
  In  In65  1  0.66585998  -0.00218372  0.66220606  1
  In  In66  1  0.07090183  0.59934207  0.09594317  1
  In  In67  1  -0.00254509  0.00544102  0.66129723  1
  In  In68  1  0.51367497  0.82236009  -0.01438518  1
  In  In69  1  0.51334823  0.01167900  0.81489176  1
  In  In70  1  0.50421537  0.00810469  0.48193884  1
  In  In71  1  0.85386923  0.17568292  0.63753889  1
  Te  Te72  1  0.06748041  0.07801950  0.08867238  1
  Te  Te73  1  0.07701956  0.10037815  0.41131476  1
  Te  Te74  1  0.09408757  0.08114410  0.74762661  1
  Te  Te75  1  0.02534474  0.38332343  0.05891965  1
  Te  Te76  1  0.09613416  0.39846763  0.43519244  1
  Te  Te77  1  0.04262167  0.45909216  0.75906310  1
  Te  Te78  1  0.06314144  0.74638056  0.08569225  1
  Te  Te79  1  0.04858674  0.72850437  0.39721778  1
  Te  Te80  1  0.08033178  0.73495879  0.75501546  1
  Te  Te81  1  0.44087692  0.09212087  0.06737110  1
  Te  Te82  1  0.43573596  0.12436176  0.40961111  1
  Te  Te83  1  0.40298092  0.10352534  0.76595988  1
  Te  Te84  1  0.39705985  0.41813205  0.08433515  1
  Te  Te85  1  0.41379883  0.40506368  0.41469517  1
  Te  Te86  1  0.39928413  0.41876851  0.73676157  1
  Te  Te87  1  0.40938963  0.75692828  0.07676229  1
  Te  Te88  1  0.42211827  0.77124834  0.41691002  1
  Te  Te89  1  0.42109026  0.76464699  0.74726929  1
  Te  Te90  1  0.75880054  0.07360493  0.08036675  1
  Te  Te91  1  0.73907609  0.07442581  0.42992022  1
  Te  Te92  1  0.76012816  0.08838611  0.74215715  1
  Te  Te93  1  0.73720954  0.40401106  0.13233222  1
  Te  Te94  1  0.75483930  0.43403888  0.40296210  1
  Te  Te95  1  0.75223496  0.44504448  0.78814249  1
  Te  Te96  1  0.78001897  0.70249590  0.04968030  1
  Te  Te97  1  0.79079888  0.74331359  0.40373673  1
  Te  Te98  1  0.75183012  0.70731467  0.78787931  1
  Te  Te99  1  0.09104011  0.29003761  0.24376544  1
  Te  Te100  1  0.08850645  0.23557587  0.62956409  1
  Te  Te101  1  0.09001548  0.26735412  0.88124292  1
  Te  Te102  1  0.03714008  0.55126243  0.24081157  1
  Te  Te103  1  0.07103909  0.58918090  0.57589088  1
  Te  Te104  1  0.04386026  0.58455674  0.94416506  1
  Te  Te105  1  0.06169118  0.89648430  0.22303304  1
  Te  Te106  1  0.09000763  0.90660072  0.57638396  1
  Te  Te107  1  0.08655938  0.88137621  0.94554773  1
  Te  Te108  1  0.39199967  0.25313329  0.24206479  1
  Te  Te109  1  0.41855243  0.27008528  0.59022081  1
  Te  Te110  1  0.40345888  0.25426120  0.91842208  1
  Te  Te111  1  0.41393145  0.59390760  0.24043494  1
  Te  Te112  1  0.43566963  0.58918955  0.55152806  1
  Te  Te113  1  0.39845933  0.58015922  0.92246767  1
  Te  Te114  1  0.41401084  0.91958017  0.24867862  1
  Te  Te115  1  0.42781274  0.94127935  0.59977177  1
  Te  Te116  1  0.42595286  0.92311576  0.91016587  1
  Te  Te117  1  0.77492381  0.23687046  0.25549467  1
  Te  Te118  1  0.73643446  0.25188242  0.58153743  1
  Te  Te119  1  0.77390904  0.26362108  0.93961680  1
  Te  Te120  1  0.82055971  0.61336092  0.22631596  1
  Te  Te121  1  0.74898731  0.58554710  0.58596833  1
  Te  Te122  1  0.77357576  0.56109825  0.98177334  1
  Te  Te123  1  0.76018402  0.88525727  0.24360256  1
  Te  Te124  1  0.76989296  0.90726870  0.60119640  1
  Te  Te125  1  0.77058512  0.90645461  0.90513805  1
  Te  Te126  1  0.23602324  0.23671411  0.09575135  1
  Te  Te127  1  0.23410885  0.24074796  0.43493037  1
  Te  Te128  1  0.21637537  0.27148713  0.70916920  1
  Te  Te129  1  0.19308638  0.52134669  0.06552737  1
  Te  Te130  1  0.24604117  0.60239027  0.43872020  1
  Te  Te131  1  0.24763806  0.58790741  0.76092783  1
  Te  Te132  1  0.25609957  0.92930659  0.08986742  1
  Te  Te133  1  0.23403992  0.88427719  0.40775703  1
  Te  Te134  1  0.25509351  0.92542535  0.77703649  1
  Te  Te135  1  0.59846419  0.25020310  0.07008682  1
  Te  Te136  1  0.61449352  0.27122856  0.39290359  1
  Te  Te137  1  0.58831570  0.26972728  0.75641649  1
  Te  Te138  1  0.58049718  0.60333161  0.07344597  1
  Te  Te139  1  0.61293774  0.59433243  0.39416501  1
  Te  Te140  1  0.59095076  0.58927143  0.75493925  1
  Te  Te141  1  0.61474325  0.88015326  0.08491025  1
  Te  Te142  1  0.59708022  0.90235926  0.42648372  1
  Te  Te143  1  0.60552855  0.90253984  0.76380622  1
  Te  Te144  1  0.91763069  0.25943944  0.08288977  1
  Te  Te145  1  0.93487476  0.25949328  0.42865439  1
  Te  Te146  1  0.89432753  0.26586829  0.75233585  1
  Te  Te147  1  0.88293682  0.58402544  0.08469047  1
  Te  Te148  1  0.90175108  0.53952161  0.39646981  1
  Te  Te149  1  0.94941432  0.58584620  0.77475300  1
  Te  Te150  1  0.88113873  0.90037333  0.03823880  1
  Te  Te151  1  0.90495498  0.92928489  0.41595529  1
  Te  Te152  1  0.93486821  0.90196216  0.75245409  1
  Te  Te153  1  0.26105487  0.06359539  0.28127512  1
  Te  Te154  1  0.25540786  0.06197638  0.59021113  1
  Te  Te155  1  0.23310602  0.10314313  0.91890490  1
  Te  Te156  1  0.24663893  0.45048271  0.26004187  1
  Te  Te157  1  0.23516022  0.40243383  0.59277494  1
  Te  Te158  1  0.20408500  0.39334398  0.90390917  1
  Te  Te159  1  0.22765313  0.70877290  0.23071077  1
  Te  Te160  1  0.25819990  0.74638660  0.60650106  1
  Te  Te161  1  0.23787388  0.73738273  0.95530400  1
  Te  Te162  1  0.57844352  0.05881779  0.24469551  1
  Te  Te163  1  0.58465471  0.09584463  0.58045043  1
  Te  Te164  1  0.59933998  0.09143488  0.91010147  1
  Te  Te165  1  0.56330005  0.42491853  0.24134209  1
  Te  Te166  1  0.60190106  0.42972984  0.57837546  1
  Te  Te167  1  0.59085600  0.42071683  0.92312079  1
  Te  Te168  1  0.61612015  0.72272694  0.26776749  1
  Te  Te169  1  0.61572485  0.73443537  0.59414832  1
  Te  Te170  1  0.60690040  0.74137485  0.90714450  1
  Te  Te171  1  0.91855730  0.08050791  0.25186463  1
  Te  Te172  1  0.92125415  0.07399742  0.55765268  1
  Te  Te173  1  0.93695898  0.08549490  0.92903150  1
  Te  Te174  1  0.92876696  0.44432240  0.27121797  1
  Te  Te175  1  0.88914288  0.42933814  0.60134728  1
  Te  Te176  1  0.95454652  0.45401320  0.93991017  1
  Te  Te177  1  0.88148821  0.74971641  0.24040559  1
  Te  Te178  1  0.92097114  0.73861338  0.59615582  1
  Te  Te179  1  0.88460915  0.69621201  0.86369415  1
