# generated using pymatgen
data_In2Te3
_symmetry_space_group_name_H-M   'P 1'
_cell_length_a   18.79335306
_cell_length_b   18.79487247
_cell_length_c   18.79441300
_cell_angle_alpha   89.88894976
_cell_angle_beta   90.03494886
_cell_angle_gamma   90.00046540
_symmetry_Int_Tables_number   1
_chemical_formula_structural   In2Te3
_chemical_formula_sum   'In72 Te108'
_cell_volume   6638.52393648
_cell_formula_units_Z   36
loop_
 _symmetry_equiv_pos_site_id
 _symmetry_equiv_pos_as_xyz
  1  'x, y, z'
loop_
 _atom_site_type_symbol
 _atom_site_label
 _atom_site_symmetry_multiplicity
 _atom_site_fract_x
 _atom_site_fract_y
 _atom_site_fract_z
 _atom_site_occupancy
  In  In0  1  0.30931220  -0.02276267  0.01441398  1
  In  In1  1  0.00117521  0.65759702  -0.03058151  1
  In  In2  1  0.32207623  0.15541926  0.18945302  1
  In  In3  1  -0.00507590  0.36911793  -0.00658009  1
  In  In4  1  0.33162705  0.01696778  0.35026398  1
  In  In5  1  0.00205129  0.67138300  0.33943794  1
  In  In6  1  0.16341008  0.83311543  0.00305030  1
  In  In7  1  -0.00050415  0.16507840  0.82559457  1
  In  In8  1  0.15630807  0.00830043  0.49736214  1
  In  In9  1  0.49238095  0.84114396  0.36431207  1
  In  In10  1  0.67494165  0.15737970  0.80149538  1
  In  In11  1  0.51246982  0.17690521  -0.00493768  1
  In  In12  1  0.70556234  0.63363636  -0.03965585  1
  In  In13  1  0.50414592  0.49437190  -0.00421517  1
  In  In14  1  0.17087703  0.68068751  0.19204493  1
  In  In15  1  0.32000610  0.81465276  0.52017346  1
  In  In16  1  0.49948947  0.17824639  0.64480025  1
  In  In17  1  0.66440132  0.84164768  0.18427464  1
  In  In18  1  0.50068214  0.51065032  0.64677728  1
  In  In19  1  0.32603655  0.67602046  0.00430171  1
  In  In20  1  0.68457130  0.69494438  0.37460872  1
  In  In21  1  0.85150621  0.81610270  -0.00757147  1
  In  In22  1  0.00570481  0.33958137  0.34552965  1
  In  In23  1  0.68463992  0.81849427  0.80826340  1
  In  In24  1  0.17334318  0.35186326  0.83011296  1
  In  In25  1  0.66737521  0.34578743  -0.00812038  1
  In  In26  1  0.51338095  0.83220452  0.67195552  1
  In  In27  1  0.82945929  -0.01728515  0.51467073  1
  In  In28  1  0.84301351  0.49717374  0.34152628  1
  In  In29  1  0.01338707  -0.01972784  -0.00323161  1
  In  In30  1  0.48281492  0.00730422  0.18416786  1
  In  In31  1  0.33389734  0.15911075  0.85797627  1
  In  In32  1  0.84245427  0.68137818  0.17303328  1
  In  In33  1  -0.00215474  0.32482157  0.68233614  1
  In  In34  1  0.01300430  0.51631337  0.14105011  1
  In  In35  1  0.50028513  -0.04198076  0.79888471  1
  In  In36  1  0.65846061  0.34688284  0.65313914  1
  In  In37  1  0.31699519  0.49577326  0.18359117  1
  In  In38  1  0.51018154  0.50299728  0.34045933  1
  In  In39  1  0.33148945  0.33975487  0.34019417  1
  In  In40  1  0.15944312  0.16211403  0.65537512  1
  In  In41  1  0.83581043  -0.01627500  0.80908041  1
  In  In42  1  0.65533307  0.50006865  0.17613258  1
  In  In43  1  0.00821514  0.52331546  0.80362794  1
  In  In44  1  0.65900563  0.16284192  0.49122184  1
  In  In45  1  0.01073383  0.17025970  0.19994692  1
  In  In46  1  0.67448991  0.66462582  0.63615368  1
  In  In47  1  0.18154501  0.32715901  0.49279585  1
  In  In48  1  0.82780843  0.33031491  0.48259861  1
  In  In49  1  0.48965097  0.17708359  0.35861421  1
  In  In50  1  0.81558041  0.32420416  0.16868680  1
  In  In51  1  0.86101244  0.32927457  0.82086571  1
  In  In52  1  0.17711283  0.15673028  0.00539616  1
  In  In53  1  0.00316040  0.84234266  0.18813372  1
  In  In54  1  0.82456735  0.15766938  0.01995892  1
  In  In55  1  0.31740512  0.81166200  0.81858949  1
  In  In56  1  0.83205938  0.52663204  0.66604382  1
  In  In57  1  0.31604566  -0.01578267  0.66759184  1
  In  In58  1  0.50459412  0.67433203  0.81016885  1
  In  In59  1  0.34117976  0.33742694  0.01168580  1
  In  In60  1  -0.01522072  -0.01189017  0.65465520  1
  In  In61  1  0.00611415  -0.00029756  0.34133987  1
  In  In62  1  0.34932592  0.33872821  0.65178676  1
  In  In63  1  0.30311844  0.53910104  0.49816016  1
  In  In64  1  0.47915387  0.65542797  0.17235394  1
  In  In65  1  0.01171999  0.79775302  0.52772348  1
  In  In66  1  0.65999310  -0.01524278  0.34556626  1
  In  In67  1  0.49235827  0.81373252  0.01657102  1
  In  In68  1  0.67558353  0.03030386  0.00113429  1
  In  In69  1  0.68900027  0.18795288  0.17233635  1
  In  In70  1  0.01194491  0.52362788  0.52172397  1
  In  In71  1  0.31211380  0.52232707  0.80145793  1
  Te  Te72  1  0.08103368  0.07808240  0.09150184  1
  Te  Te73  1  0.07695428  0.10503181  0.41974628  1
  Te  Te74  1  0.08521228  0.06839571  0.74942938  1
  Te  Te75  1  0.10304254  0.41598720  0.08027868  1
  Te  Te76  1  0.09296661  0.43630628  0.42691963  1
  Te  Te77  1  0.09966025  0.43102667  0.72231198  1
  Te  Te78  1  0.06304709  0.74091180  0.08975670  1
  Te  Te79  1  0.10706586  0.75101355  0.41458133  1
  Te  Te80  1  0.09939216  0.71149491  0.70992209  1
  Te  Te81  1  0.40911989  0.08833228  0.06789066  1
  Te  Te82  1  0.45151745  0.05347367  0.43042540  1
  Te  Te83  1  0.41264002  0.08101067  0.75245060  1
  Te  Te84  1  0.42773022  0.42127513  0.10551235  1
  Te  Te85  1  0.40089063  0.44031154  0.43105967  1
  Te  Te86  1  0.41999136  0.42832517  0.75267351  1
  Te  Te87  1  0.38546552  0.76399267  0.11303842  1
  Te  Te88  1  0.42830173  0.73629357  0.45044317  1
  Te  Te89  1  0.40085731  0.73415437  0.71754894  1
  Te  Te90  1  0.76324972  0.06189404  0.12169259  1
  Te  Te91  1  0.75962366  0.07805924  0.41343513  1
  Te  Te92  1  0.76208238  0.07406385  0.71713851  1
  Te  Te93  1  0.75491739  0.43425795  0.07972967  1
  Te  Te94  1  0.73661256  0.42917187  0.41800343  1
  Te  Te95  1  0.75872953  0.41670292  0.74749170  1
  Te  Te96  1  0.73838690  0.75226814  0.08096317  1
  Te  Te97  1  0.77739514  0.76429757  0.47563074  1
  Te  Te98  1  0.77430016  0.74003414  0.72191549  1
  Te  Te99  1  0.10294664  0.27014402  0.25636490  1
  Te  Te100  1  0.07113684  0.25069276  0.56971191  1
  Te  Te101  1  0.08617229  0.25425485  0.91455196  1
  Te  Te102  1  0.08677866  0.57102978  0.26212670  1
  Te  Te103  1  0.10969445  0.62412046  0.57894048  1
  Te  Te104  1  0.09887174  0.56170229  0.91392006  1
  Te  Te105  1  0.10476319  0.91515688  0.26510961  1
  Te  Te106  1  0.09901161  0.90563869  0.59482128  1
  Te  Te107  1  0.07146120  0.88723685  0.89968849  1
  Te  Te108  1  0.42168294  0.25386426  0.24578049  1
  Te  Te109  1  0.40667654  0.24771899  0.55165355  1
  Te  Te110  1  0.42873669  0.26972206  0.90645402  1
  Te  Te111  1  0.39443691  0.58743528  0.27794025  1
  Te  Te112  1  0.40771801  0.60769538  0.58037091  1
  Te  Te113  1  0.41566226  0.59394471  0.91166668  1
  Te  Te114  1  0.40231660  0.90478525  0.25813293  1
  Te  Te115  1  0.42029335  0.91692616  0.58174452  1
  Te  Te116  1  0.40982004  0.90229291  0.91573209  1
  Te  Te117  1  0.75805938  0.25479758  0.28545793  1
  Te  Te118  1  0.74927848  0.24648729  0.58428467  1
  Te  Te119  1  0.75517384  0.24263702  0.90990918  1
  Te  Te120  1  0.74586071  0.59804230  0.25908206  1
  Te  Te121  1  0.73212792  0.55024894  0.55825446  1
  Te  Te122  1  0.79088743  0.56119467  0.86818465  1
  Te  Te123  1  0.76184783  0.89897199  0.27809166  1
  Te  Te124  1  0.72507691  0.88558340  0.56087859  1
  Te  Te125  1  0.74367466  0.91754474  0.92224957  1
  Te  Te126  1  0.24632073  0.25513269  0.09769764  1
  Te  Te127  1  0.26296192  0.23116604  0.41616323  1
  Te  Te128  1  0.25303920  0.24610585  0.75152744  1
  Te  Te129  1  0.23648692  0.58641848  0.08878740  1
  Te  Te130  1  0.21731998  0.63548451  0.41515517  1
  Te  Te131  1  0.22050608  0.61118530  0.72450859  1
  Te  Te132  1  0.22850732  0.90602013  0.11451005  1
  Te  Te133  1  0.24877704  0.91017848  0.42348463  1
  Te  Te134  1  0.22511640  0.90651536  0.75352872  1
  Te  Te135  1  0.58371922  0.26762712  0.09338910  1
  Te  Te136  1  0.57922988  0.27176227  0.42728297  1
  Te  Te137  1  0.57465335  0.25970424  0.75000053  1
  Te  Te138  1  0.58381404  0.60113260  0.07402752  1
  Te  Te139  1  0.59218283  0.59247490  0.42748599  1
  Te  Te140  1  0.59929762  0.57916730  0.74415968  1
  Te  Te141  1  0.57488031  0.92854873  0.08011014  1
  Te  Te142  1  0.60981412  0.88771703  0.45175608  1
  Te  Te143  1  0.62795215  0.92938850  0.72022280  1
  Te  Te144  1  0.92714333  0.25522118  0.07678055  1
  Te  Te145  1  0.91473509  0.23947902  0.40424735  1
  Te  Te146  1  0.89802998  0.21638114  0.72446695  1
  Te  Te147  1  0.90116594  0.58953036  0.06771904  1
  Te  Te148  1  0.90857703  0.59723885  0.43597034  1
  Te  Te149  1  0.94506048  0.61897506  0.70579340  1
  Te  Te150  1  0.91020827  0.91672397  0.09035059  1
  Te  Te151  1  0.93820225  0.90346063  0.44048991  1
  Te  Te152  1  0.92224443  0.88514399  0.74323647  1
  Te  Te153  1  0.22627033  0.07081438  0.26078890  1
  Te  Te154  1  0.26455450  0.09139090  0.57155688  1
  Te  Te155  1  0.23220466  0.05511566  0.90593987  1
  Te  Te156  1  0.22505951  0.41143323  0.26349894  1
  Te  Te157  1  0.24410406  0.42887261  0.58958367  1
  Te  Te158  1  0.26289774  0.43343677  0.92163168  1
  Te  Te159  1  0.25669850  0.73009286  0.30052768  1
  Te  Te160  1  0.22305911  0.73678011  0.61023035  1
  Te  Te161  1  0.22331245  0.72888114  0.90551103  1
  Te  Te162  1  0.58863158  0.09193885  0.25054524  1
  Te  Te163  1  0.57147040  0.07239511  0.57189709  1
  Te  Te164  1  0.57270729  0.07500414  0.89577537  1
  Te  Te165  1  0.58819937  0.40295540  0.26275701  1
  Te  Te166  1  0.56305220  0.40886021  0.55867422  1
  Te  Te167  1  0.59236468  0.43017022  0.89772202  1
  Te  Te168  1  0.57025416  0.74678238  0.25941860  1
  Te  Te169  1  0.57251220  0.74741206  0.56337902  1
  Te  Te170  1  0.58734610  0.75197555  0.91315333  1
  Te  Te171  1  0.91218537  0.07755424  0.25431347  1
  Te  Te172  1  0.92727624  0.08552144  0.56047998  1
  Te  Te173  1  0.90986115  0.07843823  0.91735031  1
  Te  Te174  1  0.92052067  0.42317731  0.23240055  1
  Te  Te175  1  0.91604266  0.41445990  0.58582580  1
  Te  Te176  1  0.89991206  0.45364741  0.90582053  1
  Te  Te177  1  0.90147574  0.77142576  0.28056752  1
  Te  Te178  1  0.88425546  0.74366699  0.58751091  1
  Te  Te179  1  0.92166447  0.74863157  0.88252086  1
