# generated using pymatgen
data_In2Te3
_symmetry_space_group_name_H-M   'P 1'
_cell_length_a   18.90363472
_cell_length_b   18.87995024
_cell_length_c   18.90536358
_cell_angle_alpha   90.25041560
_cell_angle_beta   89.95114329
_cell_angle_gamma   90.10657130
_symmetry_Int_Tables_number   1
_chemical_formula_structural   In2Te3
_chemical_formula_sum   'In72 Te108'
_cell_volume   6747.23974033
_cell_formula_units_Z   36
loop_
 _symmetry_equiv_pos_site_id
 _symmetry_equiv_pos_as_xyz
  1  'x, y, z'
loop_
 _atom_site_type_symbol
 _atom_site_label
 _atom_site_symmetry_multiplicity
 _atom_site_fract_x
 _atom_site_fract_y
 _atom_site_fract_z
 _atom_site_occupancy
  In  In0  1  0.81811875  0.01805451  0.48236701  1
  In  In1  1  0.17640100  0.16354755  0.01598121  1
  In  In2  1  0.49124351  -0.01167745  0.48561741  1
  In  In3  1  0.84806866  0.35690910  0.82552537  1
  In  In4  1  0.01092368  0.51487929  0.50558010  1
  In  In5  1  0.66923697  0.66525600  0.32693998  1
  In  In6  1  0.34537387  0.50854734  0.15628716  1
  In  In7  1  0.17889468  0.15925541  0.65357171  1
  In  In8  1  0.80685798  0.14824033  0.29151944  1
  In  In9  1  0.49578672  0.00066005  0.84479828  1
  In  In10  1  -0.01137043  0.82653773  0.15929429  1
  In  In11  1  0.50256680  0.67828862  0.17397207  1
  In  In12  1  0.79827743  0.15104807  0.03061250  1
  In  In13  1  -0.00714442  0.84397056  0.85361964  1
  In  In14  1  0.81008607  0.84813381  0.33374157  1
  In  In15  1  0.32597416  0.68520682  0.01823793  1
  In  In16  1  0.48798353  0.32760672  0.83939010  1
  In  In17  1  0.01673356  0.52669981  0.19571637  1
  In  In18  1  0.84571330  0.34947157  0.49760538  1
  In  In19  1  0.33899813  0.84978176  0.82766110  1
  In  In20  1  0.16813285  -0.00596024  0.17471086  1
  In  In21  1  0.69095744  0.31334967  0.01511304  1
  In  In22  1  0.17856692  0.31975524  0.18178069  1
  In  In23  1  0.49967024  0.16707376  0.67036935  1
  In  In24  1  0.12263861  0.40541884  0.82668256  1
  In  In25  1  0.50130856  0.14233604  0.04807744  1
  In  In26  1  0.69283121  0.80954810  0.83254709  1
  In  In27  1  0.84093180  0.83381606  0.00422482  1
  In  In28  1  0.66401133  0.81546559  0.51526906  1
  In  In29  1  0.48269340  0.83196264  0.65776940  1
  In  In30  1  0.49790592  0.38461108  0.30298156  1
  In  In31  1  -0.01907769  -0.00647127  0.32983276  1
  In  In32  1  0.82135607  0.18651052  0.67496063  1
  In  In33  1  0.00167410  0.17528554  0.50901104  1
  In  In34  1  0.49674144  0.85939612  0.30979338  1
  In  In35  1  0.79694714  0.33092577  0.16622507  1
  In  In36  1  0.17112587  -0.01109852  0.85465572  1
  In  In37  1  0.84438065  0.81435795  0.67666621  1
  In  In38  1  -0.01210749  0.17726869  0.86464611  1
  In  In39  1  0.63843887  0.17121783  0.85545173  1
  In  In40  1  0.67550427  0.49998655  0.84191943  1
  In  In41  1  0.69908293  0.34937934  0.64929322  1
  In  In42  1  0.69327764  0.52772786  0.51411556  1
  In  In43  1  0.48709787  0.64722192  0.48813750  1
  In  In44  1  0.50890970  0.68936237  0.82357657  1
  In  In45  1  0.19738151  -0.05204310  0.47825908  1
  In  In46  1  0.15265950  0.64547633  0.82545099  1
  In  In47  1  0.17651122  0.52237258  0.32917436  1
  In  In48  1  0.81794158  0.02427323  0.83686054  1
  In  In49  1  0.16715217  0.14599729  0.34456334  1
  In  In50  1  0.32701429  0.30177345  0.01011058  1
  In  In51  1  0.35157475  0.16473127  0.47507213  1
  In  In52  1  0.01153258  0.67111618  0.65413269  1
  In  In53  1  0.14909589  0.82264690  0.01259406  1
  In  In54  1  0.65701704  0.65999007  -0.00155155  1
  In  In55  1  0.63207149  0.02035197  0.25718087  1
  In  In56  1  0.19299577  0.81430103  0.64657251  1
  In  In57  1  0.31831146  0.14209202  0.82662088  1
  In  In58  1  -0.01171613  0.33215232  0.01311243  1
  In  In59  1  0.83848185  0.66546350  0.16834851  1
  In  In60  1  0.18878367  0.51197028  0.01445504  1
  In  In61  1  0.84255784  0.49929950  0.33973687  1
  In  In62  1  0.30553384  0.34573415  0.65335047  1
  In  In63  1  0.30913754  0.52741677  0.82309488  1
  In  In64  1  0.48648769  0.50143600  0.01238555  1
  In  In65  1  0.03170939  -0.00220994  0.66276562  1
  In  In66  1  0.62740085  -0.00399412  0.64254607  1
  In  In67  1  0.85570014  0.68465513  0.81264760  1
  In  In68  1  0.00309445  0.31451644  0.33315020  1
  In  In69  1  0.33185800  0.69825476  0.31992360  1
  In  In70  1  0.49387991  0.49667083  0.64338125  1
  In  In71  1  0.19173296  0.32837547  0.50005815  1
  Te  Te72  1  0.08244580  0.07928441  0.08927683  1
  Te  Te73  1  0.07715808  0.06453325  0.43704666  1
  Te  Te74  1  0.08614725  0.09353127  0.77083864  1
  Te  Te75  1  0.09745290  0.41510547  0.09659707  1
  Te  Te76  1  0.09034283  0.41047059  0.40944520  1
  Te  Te77  1  0.04124326  0.45898409  0.71844744  1
  Te  Te78  1  0.07195540  0.72517660  0.08955736  1
  Te  Te79  1  0.16825015  0.80637738  0.42292888  1
  Te  Te80  1  0.08423155  0.77277863  0.75622833  1
  Te  Te81  1  0.42757431  0.05328797  0.13866705  1
  Te  Te82  1  0.40840083  0.05860761  0.38153079  1
  Te  Te83  1  0.41077722  0.06266728  0.73447609  1
  Te  Te84  1  0.42061340  0.39109238  0.09232987  1
  Te  Te85  1  0.42478208  0.38910172  0.43154965  1
  Te  Te86  1  0.40643457  0.42071522  0.75439171  1
  Te  Te87  1  0.43221592  0.76928818  0.08011269  1
  Te  Te88  1  0.43197646  0.76719799  0.41393485  1
  Te  Te89  1  0.39291036  0.73750886  0.73864270  1
  Te  Te90  1  0.70458840  0.08798301  0.12904244  1
  Te  Te91  1  0.71912311  0.07666275  0.39042901  1
  Te  Te92  1  0.71689946  0.08606179  0.73986752  1
  Te  Te93  1  0.77151219  0.42831435  0.05806678  1
  Te  Te94  1  0.74036860  0.41548928  0.41382056  1
  Te  Te95  1  0.77147337  0.45200009  0.73345791  1
  Te  Te96  1  0.74280614  0.75091217  0.08608283  1
  Te  Te97  1  0.75808775  0.73636921  0.42636386  1
  Te  Te98  1  0.73245111  0.71037627  0.71879571  1
  Te  Te99  1  0.08019327  0.22047440  0.24295614  1
  Te  Te100  1  0.08645911  0.26572167  0.59400924  1
  Te  Te101  1  0.09929793  0.26306538  0.92614916  1
  Te  Te102  1  0.08255043  0.62554981  0.28258122  1
  Te  Te103  1  0.10425209  0.62512294  0.54678941  1
  Te  Te104  1  0.08341794  0.55851062  0.92197641  1
  Te  Te105  1  0.07768432  0.90192337  0.25827171  1
  Te  Te106  1  0.08153151  0.88995023  0.57188626  1
  Te  Te107  1  0.06573518  0.93514529  0.94998488  1
  Te  Te108  1  0.43692710  0.24930969  0.26966861  1
  Te  Te109  1  0.40860115  0.25586793  0.58716515  1
  Te  Te110  1  0.42430648  0.21571799  0.91899416  1
  Te  Te111  1  0.42397331  0.58454827  0.26163800  1
  Te  Te112  1  0.39383347  0.58348406  0.58307037  1
  Te  Te113  1  0.41683758  0.59750220  0.91781092  1
  Te  Te114  1  0.43170764  0.90474221  0.18530849  1
  Te  Te115  1  0.39820388  0.91207514  0.57021690  1
  Te  Te116  1  0.41282197  0.91904023  0.93392637  1
  Te  Te117  1  0.71122239  0.26215853  0.26943715  1
  Te  Te118  1  0.74720675  0.23975894  0.55520860  1
  Te  Te119  1  0.76723176  0.24187127  0.89635738  1
  Te  Te120  1  0.74732179  0.56674769  0.24223046  1
  Te  Te121  1  0.77542786  0.61519213  0.59804145  1
  Te  Te122  1  0.76500841  0.60086993  0.91050052  1
  Te  Te123  1  0.75512930  0.92870424  0.22165043  1
  Te  Te124  1  0.75176395  0.92139845  0.59283533  1
  Te  Te125  1  0.74546918  0.92164243  0.92247964  1
  Te  Te126  1  0.27392940  0.21599782  0.12333836  1
  Te  Te127  1  0.26419918  0.25592335  0.38881605  1
  Te  Te128  1  0.24175086  0.25368164  0.75895414  1
  Te  Te129  1  0.23939873  0.61151453  0.11852726  1
  Te  Te130  1  0.27643111  0.59412212  0.41137506  1
  Te  Te131  1  0.22470825  0.57822137  0.71471137  1
  Te  Te132  1  0.25005125  0.89374148  0.09580270  1
  Te  Te133  1  0.27531772  0.90203609  0.35351952  1
  Te  Te134  1  0.24607564  0.92964347  0.73748414  1
  Te  Te135  1  0.58235261  0.25711979  0.10205149  1
  Te  Te136  1  0.51655662  0.27315005  0.41022591  1
  Te  Te137  1  0.59498216  0.27377435  0.74124081  1
  Te  Te138  1  0.58780553  0.57112769  0.10034886  1
  Te  Te139  1  0.58821967  0.56685878  0.40825221  1
  Te  Te140  1  0.57390830  0.57064623  0.75389408  1
  Te  Te141  1  0.62432990  0.95349344  0.12429842  1
  Te  Te142  1  0.60160434  0.90957060  0.41568743  1
  Te  Te143  1  0.58697759  0.90148423  0.75678395  1
  Te  Te144  1  0.90385426  0.24053663  0.09745906  1
  Te  Te145  1  0.90206585  0.22783288  0.40697023  1
  Te  Te146  1  0.93500955  0.25833918  0.74652918  1
  Te  Te147  1  0.92389121  0.57186993  0.09285069  1
  Te  Te148  1  0.92974670  0.59279495  0.41090921  1
  Te  Te149  1  0.94661620  0.57947752  0.75445672  1
  Te  Te150  1  0.89458813  0.92795598  0.10547782  1
  Te  Te151  1  0.91035740  0.90851789  0.43466981  1
  Te  Te152  1  0.91351390  0.93317145  0.75758636  1
  Te  Te153  1  0.26335471  0.05557075  0.27468658  1
  Te  Te154  1  0.25313123  0.07508178  0.55444261  1
  Te  Te155  1  0.26880716  0.06236953  0.94584020  1
  Te  Te156  1  0.26485721  0.42214734  0.25323482  1
  Te  Te157  1  0.23388345  0.44786197  0.57724071  1
  Te  Te158  1  0.26908113  0.41528996  0.92594895  1
  Te  Te159  1  0.27042202  0.80304591  0.23301689  1
  Te  Te160  1  0.24327992  0.73242685  0.53310752  1
  Te  Te161  1  0.24309603  0.74838105  0.90648170  1
  Te  Te162  1  0.51429293  0.11439051  0.27232536  1
  Te  Te163  1  0.57419872  0.10465122  0.55339361  1
  Te  Te164  1  0.59119618  0.06323576  0.94659401  1
  Te  Te165  1  0.61825224  0.37464028  0.21137408  1
  Te  Te166  1  0.59303219  0.41559996  0.56408897  1
  Te  Te167  1  0.58232529  0.40997272  0.92681034  1
  Te  Te168  1  0.60464621  0.76873571  0.24071532  1
  Te  Te169  1  0.57015772  0.72632010  0.59214380  1
  Te  Te170  1  0.57943080  0.77156859  0.93004310  1
  Te  Te171  1  0.92137276  0.08181359  0.22943721  1
  Te  Te172  1  0.91305241  0.08245956  0.59703445  1
  Te  Te173  1  0.90884895  0.07819032  0.94628664  1
  Te  Te174  1  0.92201989  0.40461540  0.24298275  1
  Te  Te175  1  0.92891417  0.42444109  0.59357398  1
  Te  Te176  1  0.92103836  0.43170384  0.92905782  1
  Te  Te177  1  0.91049176  0.75297205  0.26938617  1
  Te  Te178  1  0.90476524  0.73232442  0.56944715  1
  Te  Te179  1  0.93317950  0.73326143  0.93616541  1
