# generated using pymatgen
data_In2Te3
_symmetry_space_group_name_H-M   'P 1'
_cell_length_a   18.79573445
_cell_length_b   18.78727645
_cell_length_c   18.78897378
_cell_angle_alpha   89.99794933
_cell_angle_beta   90.03925315
_cell_angle_gamma   89.94944335
_symmetry_Int_Tables_number   1
_chemical_formula_structural   In2Te3
_chemical_formula_sum   'In72 Te108'
_cell_volume   6634.77066346
_cell_formula_units_Z   36
loop_
 _symmetry_equiv_pos_site_id
 _symmetry_equiv_pos_as_xyz
  1  'x, y, z'
loop_
 _atom_site_type_symbol
 _atom_site_label
 _atom_site_symmetry_multiplicity
 _atom_site_fract_x
 _atom_site_fract_y
 _atom_site_fract_z
 _atom_site_occupancy
  In  In0  1  0.51785364  0.16379755  0.00670459  1
  In  In1  1  0.82432390  0.49961797  0.65797017  1
  In  In2  1  0.34528852  -0.01843132  0.00197025  1
  In  In3  1  0.18370159  0.46868537  0.30109145  1
  In  In4  1  0.33812875  0.16385137  0.82731918  1
  In  In5  1  -0.01384421  0.18659009  0.48226686  1
  In  In6  1  0.50334600  -0.01831844  0.85520785  1
  In  In7  1  0.00064391  0.67991069  0.67300510  1
  In  In8  1  0.35766460  0.64488518  0.32157330  1
  In  In9  1  0.31685940  -0.01917555  0.66297259  1
  In  In10  1  0.01024933  0.14498551  0.16681024  1
  In  In11  1  0.81399299  0.84908751  -0.00208841  1
  In  In12  1  0.65013953  0.50546511  0.84527428  1
  In  In13  1  0.83900713  0.02655531  0.16834516  1
  In  In14  1  0.00364420  0.64911593  0.35458931  1
  In  In15  1  0.65892247  0.18696695  0.49071890  1
  In  In16  1  0.20209471  0.34406717  0.18070624  1
  In  In17  1  -0.01584949  0.33190998  0.33882896  1
  In  In18  1  0.21521332  0.80640121  -0.02693112  1
  In  In19  1  0.81092000  0.16642609  -0.00506324  1
  In  In20  1  0.00837591  0.46266575  0.17259075  1
  In  In21  1  0.66925654  0.18173498  0.15008591  1
  In  In22  1  -0.00858439  0.32914141  -0.01247145  1
  In  In23  1  0.66806077  0.82086749  0.82965631  1
  In  In24  1  0.49219877  0.20129247  0.31369267  1
  In  In25  1  0.67843823  -0.00213079  0.68477136  1
  In  In26  1  0.17042366  0.67194965  0.51617000  1
  In  In27  1  0.17960007  0.33073076  0.50238746  1
  In  In28  1  0.36268258  0.36693701  0.01880229  1
  In  In29  1  -0.01291644  0.50928482  0.51644097  1
  In  In30  1  0.82277072  0.17925200  0.66893060  1
  In  In31  1  0.47623723  -0.00359321  0.51245899  1
  In  In32  1  0.34698289  0.00167529  0.31944152  1
  In  In33  1  0.50277984  0.81376915  0.32463339  1
  In  In34  1  0.51518661  -0.00882165  0.14676145  1
  In  In35  1  -0.00913259  -0.02637637  0.66456381  1
  In  In36  1  -0.00072632  0.49829168  0.82365415  1
  In  In37  1  0.33258653  0.67091965  0.68930409  1
  In  In38  1  0.51096921  0.67275873  0.49973388  1
  In  In39  1  0.02263376  0.83603612  0.18479619  1
  In  In40  1  0.82073752  0.68131573  0.51990349  1
  In  In41  1  0.51418606  0.34683153  0.82438632  1
  In  In42  1  0.50643540  0.47550027  0.32366740  1
  In  In43  1  0.80572187  -0.00787638  0.51625616  1
  In  In44  1  0.81487162  0.34341101  0.17549588  1
  In  In45  1  0.32945354  0.49252080  0.47891938  1
  In  In46  1  -0.00961901  0.65814912  -0.01061360  1
  In  In47  1  0.15407458  0.18409320  0.00896552  1
  In  In48  1  0.63278500  0.81837263  0.15079539  1
  In  In49  1  0.51588607  0.49239185  0.65626361  1
  In  In50  1  0.18107345  0.81255799  0.33942089  1
  In  In51  1  0.67720537  0.47217405  0.49520804  1
  In  In52  1  0.00351964  0.83272449  0.82274883  1
  In  In53  1  -0.01766945  -0.01035763  0.31642137  1
  In  In54  1  0.79886298  0.53159944  0.00563415  1
  In  In55  1  0.15142831  0.34248976  0.84601083  1
  In  In56  1  0.16295112  0.14975419  0.65783747  1
  In  In57  1  0.18914236  0.66283595  0.14688446  1
  In  In58  1  0.19063192  0.16831271  0.33453322  1
  In  In59  1  0.81879077  0.32237255  0.83396202  1
  In  In60  1  0.68124218  -0.00207269  0.32771611  1
  In  In61  1  0.50592150  0.18375655  0.66510844  1
  In  In62  1  0.49029249  0.66213247  0.85688118  1
  In  In63  1  0.63845591  0.50892537  0.14847653  1
  In  In64  1  0.82729689  0.84536996  0.35555224  1
  In  In65  1  0.35545808  0.34552976  0.67104332  1
  In  In66  1  0.16382963  -0.00686177  0.50878482  1
  In  In67  1  0.66594243  0.83289447  0.51601875  1
  In  In68  1  0.17754758  0.52688395  -0.02037266  1
  In  In69  1  0.16643429  -0.01184494  0.82541678  1
  In  In70  1  0.81168540  0.66319086  0.18127135  1
  In  In71  1  -0.00619237  0.01839292  -0.01339120  1
  Te  Te72  1  0.10623636  0.06083668  0.08654674  1
  Te  Te73  1  0.08495749  0.08788238  0.41303430  1
  Te  Te74  1  0.06777186  0.07704847  0.75125251  1
  Te  Te75  1  0.10305448  0.41074132  0.06414431  1
  Te  Te76  1  0.08334873  0.42443954  0.41572546  1
  Te  Te77  1  0.08102408  0.41155514  0.73707131  1
  Te  Te78  1  0.08460123  0.74897502  0.07437022  1
  Te  Te79  1  0.07190901  0.75990204  0.43316933  1
  Te  Te80  1  0.10416835  0.77257519  0.73024742  1
  Te  Te81  1  0.41269855  0.08842020  0.08867206  1
  Te  Te82  1  0.42593561  0.09640129  0.40991162  1
  Te  Te83  1  0.42127436  0.07058534  0.74100329  1
  Te  Te84  1  0.42030299  0.46315495  0.11711411  1
  Te  Te85  1  0.43763362  0.40242007  0.43527232  1
  Te  Te86  1  0.41569263  0.44918060  0.76413620  1
  Te  Te87  1  0.46490539  0.71776685  0.04841752  1
  Te  Te88  1  0.40362056  0.75090851  0.42185692  1
  Te  Te89  1  0.41736944  0.76410105  0.77221436  1
  Te  Te90  1  0.72736548  0.06262757  0.07240439  1
  Te  Te91  1  0.75914501  0.09476558  0.41416819  1
  Te  Te92  1  0.75416742  0.09246212  0.76873472  1
  Te  Te93  1  0.73272905  0.41117354  0.06540037  1
  Te  Te94  1  0.76883237  0.39481351  0.41022447  1
  Te  Te95  1  0.73293109  0.41825005  0.75076084  1
  Te  Te96  1  0.73745763  0.73727422  0.07103689  1
  Te  Te97  1  0.73054601  0.74326996  0.40879715  1
  Te  Te98  1  0.75468495  0.71587099  0.77475376  1
  Te  Te99  1  0.08407530  0.25898363  0.24132274  1
  Te  Te100  1  0.07691181  0.25451517  0.58534854  1
  Te  Te101  1  0.06088616  0.22818408  0.89697518  1
  Te  Te102  1  0.08385073  0.58618931  0.23945213  1
  Te  Te103  1  0.09224930  0.57596446  0.60495949  1
  Te  Te104  1  0.08851142  0.60966283  0.88343709  1
  Te  Te105  1  0.11174454  0.93067681  0.26157691  1
  Te  Te106  1  0.10877205  0.89902410  0.61061048  1
  Te  Te107  1  0.08848406  0.90762643  0.93162902  1
  Te  Te108  1  0.36886192  0.26541468  0.25969643  1
  Te  Te109  1  0.41448665  0.25258665  0.57337845  1
  Te  Te110  1  0.41865499  0.25556048  0.91709898  1
  Te  Te111  1  0.45080742  0.58014664  0.22335414  1
  Te  Te112  1  0.41032744  0.58091410  0.57677438  1
  Te  Te113  1  0.39267550  0.60478132  0.95821230  1
  Te  Te114  1  0.42251326  0.90149359  0.22888810  1
  Te  Te115  1  0.40765204  0.89016915  0.58643613  1
  Te  Te116  1  0.39169826  0.88762363  0.89352810  1
  Te  Te117  1  0.74627888  0.24361507  0.25930636  1
  Te  Te118  1  0.73167010  0.26859185  0.59164009  1
  Te  Te119  1  0.72352928  0.26771224  0.93255961  1
  Te  Te120  1  0.72888654  0.56615834  0.25230604  1
  Te  Te121  1  0.72272718  0.58960453  0.58923679  1
  Te  Te122  1  0.74113728  0.61690132  0.89619365  1
  Te  Te123  1  0.75268138  0.90546184  0.22930118  1
  Te  Te124  1  0.76525587  0.88786127  0.61880251  1
  Te  Te125  1  0.75019862  0.92947489  0.89258153  1
  Te  Te126  1  0.27007339  0.25438068  0.07579056  1
  Te  Te127  1  0.27390152  0.27401064  0.40054704  1
  Te  Te128  1  0.24458358  0.25172534  0.74410994  1
  Te  Te129  1  0.27644825  0.55453298  0.09302642  1
  Te  Te130  1  0.23210823  0.58906131  0.39860015  1
  Te  Te131  1  0.24577869  0.59339297  0.78012344  1
  Te  Te132  1  0.26313365  0.88945819  0.08471151  1
  Te  Te133  1  0.26092142  0.91752748  0.41744524  1
  Te  Te134  1  0.26412282  0.89098621  0.77096206  1
  Te  Te135  1  0.55487497  0.26887390  0.10826301  1
  Te  Te136  1  0.58409758  0.28020197  0.40076617  1
  Te  Te137  1  0.59938529  0.24460587  0.76015876  1
  Te  Te138  1  0.57668024  0.61433393  0.05804143  1
  Te  Te139  1  0.58533455  0.57149551  0.41554204  1
  Te  Te140  1  0.57795405  0.59919587  0.74567207  1
  Te  Te141  1  0.57266403  0.90257056  0.04165651  1
  Te  Te142  1  0.58167856  0.91897897  0.41279490  1
  Te  Te143  1  0.57179483  0.90550244  0.74133345  1
  Te  Te144  1  0.91475852  0.24697836  0.09168310  1
  Te  Te145  1  0.87929332  0.28634369  0.43903261  1
  Te  Te146  1  0.92013516  0.26016003  0.74846918  1
  Te  Te147  1  0.92253556  0.57519110  0.09861648  1
  Te  Te148  1  0.88757837  0.58052936  0.42427860  1
  Te  Te149  1  0.90218946  0.59231707  0.75210924  1
  Te  Te150  1  0.92599551  0.91767057  0.09341202  1
  Te  Te151  1  0.92586113  0.92328450  0.44005192  1
  Te  Te152  1  0.89852291  0.92156946  0.76745554  1
  Te  Te153  1  0.25740293  0.08449178  0.23417007  1
  Te  Te154  1  0.26662492  0.09283846  0.56398172  1
  Te  Te155  1  0.24634780  0.08387648  0.92009607  1
  Te  Te156  1  0.32012850  0.41560399  0.25129250  1
  Te  Te157  1  0.25048806  0.42935208  0.59500151  1
  Te  Te158  1  0.26487258  0.41991949  0.91044519  1
  Te  Te159  1  0.27649595  0.74782387  0.23776622  1
  Te  Te160  1  0.26895969  0.75723905  0.58396709  1
  Te  Te161  1  0.27573796  0.69038568  0.89826707  1
  Te  Te162  1  0.57965548  0.08339567  0.25270247  1
  Te  Te163  1  0.59353236  0.07217779  0.57776529  1
  Te  Te164  1  0.58860914  0.09415360  0.89770127  1
  Te  Te165  1  0.58621045  0.39049166  0.22876143  1
  Te  Te166  1  0.58466878  0.38812944  0.57772766  1
  Te  Te167  1  0.55334830  0.43800904  0.93420056  1
  Te  Te168  1  0.58775653  0.71904213  0.25044039  1
  Te  Te169  1  0.58284449  0.74919124  0.60373755  1
  Te  Te170  1  0.57371426  0.76539489  0.93838072  1
  Te  Te171  1  0.90507092  0.11423323  0.27420344  1
  Te  Te172  1  0.92004720  0.08448952  0.57677647  1
  Te  Te173  1  0.89730140  0.08951487  0.90207738  1
  Te  Te174  1  0.89478951  0.43723697  0.26932719  1
  Te  Te175  1  0.91821638  0.40445527  0.59324804  1
  Te  Te176  1  0.90303980  0.43826704  0.92889405  1
  Te  Te177  1  0.91934177  0.75274859  0.26179764  1
  Te  Te178  1  0.92007936  0.76787156  0.58513257  1
  Te  Te179  1  0.90391115  0.75490498  0.91288881  1
