# generated using pymatgen
data_In2Te3
_symmetry_space_group_name_H-M   'P 1'
_cell_length_a   18.78973832
_cell_length_b   18.77842566
_cell_length_c   18.78167097
_cell_angle_alpha   90.02052310
_cell_angle_beta   89.99417829
_cell_angle_gamma   89.98978409
_symmetry_Int_Tables_number   1
_chemical_formula_structural   In2Te3
_chemical_formula_sum   'In72 Te108'
_cell_volume   6626.95622856
_cell_formula_units_Z   36
loop_
 _symmetry_equiv_pos_site_id
 _symmetry_equiv_pos_as_xyz
  1  'x, y, z'
loop_
 _atom_site_type_symbol
 _atom_site_label
 _atom_site_symmetry_multiplicity
 _atom_site_fract_x
 _atom_site_fract_y
 _atom_site_fract_z
 _atom_site_occupancy
  In  In0  1  0.51598276  0.53888695  0.67308403  1
  In  In1  1  0.67804109  0.65642846  0.35027142  1
  In  In2  1  0.85366182  -0.00058181  0.16780442  1
  In  In3  1  0.66733469  0.01479408  0.67928228  1
  In  In4  1  0.17314786  -0.02076317  0.83242650  1
  In  In5  1  0.00534706  0.52082185  0.53069132  1
  In  In6  1  -0.00460254  0.53374606  0.78721303  1
  In  In7  1  0.16185223  0.34510257  0.50691113  1
  In  In8  1  -0.00426478  0.33545499  -0.00106970  1
  In  In9  1  0.65874676  0.00090709  -0.03558851  1
  In  In10  1  0.16101261  0.49643982  -0.01917579  1
  In  In11  1  0.67262052  0.18697616  0.16793347  1
  In  In12  1  0.66535802  0.50810007  0.51984668  1
  In  In13  1  0.01825089  0.81794771  0.49296184  1
  In  In14  1  -0.00829264  0.67866287  -0.00528908  1
  In  In15  1  0.00299981  0.32873670  0.34918869  1
  In  In16  1  0.20379050  -0.02296612  0.12862934  1
  In  In17  1  0.83268413  0.83322094  0.66735729  1
  In  In18  1  0.50493580  0.00807099  0.50227801  1
  In  In19  1  0.83423860  0.18372933  -0.00730889  1
  In  In20  1  0.31243242  0.34859261  0.65066217  1
  In  In21  1  0.82354468  0.66792416  0.18737910  1
  In  In22  1  0.16531735  0.16965705  0.00316842  1
  In  In23  1  0.67247087  0.82650188  0.82252756  1
  In  In24  1  0.65824932  0.66484435  -0.00767059  1
  In  In25  1  0.47218197  -0.00308614  0.16651348  1
  In  In26  1  0.00974784  0.80054138  0.80542015  1
  In  In27  1  0.33215634  0.15108017  0.15455149  1
  In  In28  1  0.16214002  0.16861520  0.32486668  1
  In  In29  1  -0.00108702  0.82840348  0.15970871  1
  In  In30  1  0.81663392  0.50425773  -0.00892991  1
  In  In31  1  0.51146986  0.18013118  0.68388889  1
  In  In32  1  0.50095389  -0.00121018  0.85357094  1
  In  In33  1  -0.00224775  -0.00099042  0.65947211  1
  In  In34  1  0.83257318  0.65153941  0.51302956  1
  In  In35  1  0.79938055  0.19305995  0.65589663  1
  In  In36  1  0.50830054  0.66571434  0.49341427  1
  In  In37  1  0.17033192  0.81933992  0.34492463  1
  In  In38  1  -0.00049565  0.16590338  0.84124914  1
  In  In39  1  0.32010346  0.18255735  0.81588812  1
  In  In40  1  0.01056248  0.35270620  0.66296587  1
  In  In41  1  0.65104222  -0.01174937  0.34263534  1
  In  In42  1  0.15386704  -0.00012843  0.50171324  1
  In  In43  1  0.34847712  0.13727861  0.50251669  1
  In  In44  1  0.84055532  0.32130457  0.15964273  1
  In  In45  1  0.64345551  0.33711398  -0.01000565  1
  In  In46  1  0.51261056  0.33944474  0.82442020  1
  In  In47  1  0.83293614  0.00216121  0.51754254  1
  In  In48  1  0.32403718  0.34456218  0.33020923  1
  In  In49  1  0.81642347  0.49979206  0.35725917  1
  In  In50  1  0.31909014  0.67254247  0.67083793  1
  In  In51  1  0.49371842  0.64205911  0.16058956  1
  In  In52  1  0.33980047  0.33430021  0.00571422  1
  In  In53  1  0.00975012  0.00122879  0.34171632  1
  In  In54  1  0.30954869  -0.02536531  0.67483875  1
  In  In55  1  0.52449407  0.36720079  0.18483017  1
  In  In56  1  0.02000412  0.51554884  0.18680266  1
  In  In57  1  0.00819571  0.00492675  0.00415921  1
  In  In58  1  0.33195746  0.68531905  -0.02155362  1
  In  In59  1  0.32196864  0.81325815  0.50877129  1
  In  In60  1  0.49920733  0.35071639  0.48194801  1
  In  In61  1  0.17193895  0.66626989  0.17038681  1
  In  In62  1  0.49963630  0.18622765  0.35015645  1
  In  In63  1  0.81522900  0.36923232  0.81273435  1
  In  In64  1  0.33471789  0.48642034  0.17747310  1
  In  In65  1  0.49383740  0.83729369  0.00186631  1
  In  In66  1  0.50344546  0.78555637  0.66237058  1
  In  In67  1  0.66783350  0.80282167  0.15196392  1
  In  In68  1  0.33965409  0.51986683  0.83839934  1
  In  In69  1  0.83210421  0.19164909  0.34679630  1
  In  In70  1  0.47656593  0.84193052  0.33409404  1
  In  In71  1  0.83519758  0.80028524  0.31613171  1
  Te  Te72  1  0.09361850  0.07960475  0.10521585  1
  Te  Te73  1  0.07061972  0.10720689  0.43267899  1
  Te  Te74  1  0.08924415  0.08048123  0.75175620  1
  Te  Te75  1  0.08812175  0.41761687  0.08908107  1
  Te  Te76  1  0.07975997  0.43955928  0.42098029  1
  Te  Te77  1  0.09677200  0.43351626  0.75164913  1
  Te  Te78  1  0.09933282  0.75708530  0.07032662  1
  Te  Te79  1  0.09967855  0.71470035  0.42316835  1
  Te  Te80  1  0.10078274  0.70721116  0.73266621  1
  Te  Te81  1  0.41585936  0.07820065  0.05799991  1
  Te  Te82  1  0.41778701  0.06230083  0.38885279  1
  Te  Te83  1  0.41030462  0.07649361  0.73814560  1
  Te  Te84  1  0.43536434  0.42986726  0.07618111  1
  Te  Te85  1  0.39778294  0.44545634  0.41590372  1
  Te  Te86  1  0.41466164  0.42323589  0.73745205  1
  Te  Te87  1  0.41044428  0.75177928  0.09608475  1
  Te  Te88  1  0.39997806  0.73043081  0.40671630  1
  Te  Te89  1  0.41741495  0.73120065  0.76739779  1
  Te  Te90  1  0.75357622  0.08583892  0.08512134  1
  Te  Te91  1  0.74824754  0.08019735  0.41621347  1
  Te  Te92  1  0.76772460  0.08951358  0.75555676  1
  Te  Te93  1  0.74150790  0.40946651  0.08344880  1
  Te  Te94  1  0.75768838  0.40298185  0.45707930  1
  Te  Te95  1  0.71420480  0.44515186  0.73537622  1
  Te  Te96  1  0.77434809  0.74394122  0.06405358  1
  Te  Te97  1  0.75100217  0.75794923  0.43668159  1
  Te  Te98  1  0.75634455  0.72983519  0.74476850  1
  Te  Te99  1  0.08235719  0.26156141  0.24419795  1
  Te  Te100  1  0.08911349  0.24795359  0.59101238  1
  Te  Te101  1  0.09585273  0.26543305  0.90638780  1
  Te  Te102  1  0.12451563  0.57230776  0.27621011  1
  Te  Te103  1  0.09625212  0.60574224  0.61258194  1
  Te  Te104  1  0.08337557  0.59890810  0.90161462  1
  Te  Te105  1  0.09141167  0.91669815  0.24383473  1
  Te  Te106  1  0.09546034  0.89814839  0.59887147  1
  Te  Te107  1  0.06801089  0.90206669  0.91119770  1
  Te  Te108  1  0.41724389  0.25739280  0.24199253  1
  Te  Te109  1  0.41769317  0.25160506  0.57848130  1
  Te  Te110  1  0.42145389  0.24778852  0.90965133  1
  Te  Te111  1  0.40807565  0.58112660  0.26387868  1
  Te  Te112  1  0.40559351  0.58190085  0.57621237  1
  Te  Te113  1  0.43326949  0.59003374  0.92806111  1
  Te  Te114  1  0.38267701  0.90168990  0.23522312  1
  Te  Te115  1  0.41697712  0.90926112  0.58463057  1
  Te  Te116  1  0.39603091  0.91497223  0.91860887  1
  Te  Te117  1  0.73709990  0.28221330  0.26724402  1
  Te  Te118  1  0.73899061  0.27641844  0.55078864  1
  Te  Te119  1  0.74393883  0.26309011  0.90192602  1
  Te  Te120  1  0.72977440  0.55887380  0.24111843  1
  Te  Te121  1  0.77344057  0.55819657  0.61959172  1
  Te  Te122  1  0.74860609  0.59342478  0.89495874  1
  Te  Te123  1  0.75194499  0.91425748  0.24771971  1
  Te  Te124  1  0.73029504  0.91170011  0.58473042  1
  Te  Te125  1  0.75704534  0.90612846  0.91390731  1
  Te  Te126  1  0.24265394  0.26175858  0.09841535  1
  Te  Te127  1  0.25985420  0.24259980  0.42712143  1
  Te  Te128  1  0.22686384  0.25554420  0.72760514  1
  Te  Te129  1  0.25656594  0.57674679  0.06940780  1
  Te  Te130  1  0.28301053  0.53898332  0.46028191  1
  Te  Te131  1  0.23148596  0.59322977  0.76485287  1
  Te  Te132  1  0.26093117  0.88953344  0.02366641  1
  Te  Te133  1  0.25570475  0.92189820  0.42148259  1
  Te  Te134  1  0.24728875  0.86918450  0.76002427  1
  Te  Te135  1  0.56263584  0.24953023  0.08455377  1
  Te  Te136  1  0.60268609  0.25498531  0.43057643  1
  Te  Te137  1  0.61449994  0.26712001  0.74296842  1
  Te  Te138  1  0.60004867  0.56962453  0.08954483  1
  Te  Te139  1  0.57435540  0.55265516  0.40137231  1
  Te  Te140  1  0.61161303  0.55405821  0.78623543  1
  Te  Te141  1  0.59359697  0.92162552  0.09020694  1
  Te  Te142  1  0.58048839  0.89107795  0.43687095  1
  Te  Te143  1  0.56604606  0.91427861  0.74125729  1
  Te  Te144  1  0.94085682  0.22764147  0.09232007  1
  Te  Te145  1  0.91484272  0.26156021  0.44685827  1
  Te  Te146  1  0.91158657  0.25958752  0.75790324  1
  Te  Te147  1  0.91803903  0.57600052  0.08613860  1
  Te  Te148  1  0.92521358  0.58986800  0.41014647  1
  Te  Te149  1  0.88096365  0.60288939  0.72656882  1
  Te  Te150  1  0.90727444  0.90253440  0.06379238  1
  Te  Te151  1  0.91343163  0.91032868  0.41799553  1
  Te  Te152  1  0.91589069  0.92062312  0.75981592  1
  Te  Te153  1  0.24881640  0.06770995  0.25066468  1
  Te  Te154  1  0.23987719  0.08538399  0.59608429  1
  Te  Te155  1  0.25302001  0.08419241  0.91336837  1
  Te  Te156  1  0.22350687  0.42202318  0.25395401  1
  Te  Te157  1  0.23326172  0.46041965  0.58092269  1
  Te  Te158  1  0.25486812  0.40585019  0.90163367  1
  Te  Te159  1  0.26226762  0.75607186  0.24716379  1
  Te  Te160  1  0.21920709  0.72125887  0.56670198  1
  Te  Te161  1  0.24318040  0.78236531  0.91016298  1
  Te  Te162  1  0.58269787  0.08858413  0.24753770  1
  Te  Te163  1  0.59400083  0.10409791  0.57741313  1
  Te  Te164  1  0.58610832  0.10990466  0.89989674  1
  Te  Te165  1  0.59829268  0.44271570  0.28506508  1
  Te  Te166  1  0.57256500  0.41502982  0.59951241  1
  Te  Te167  1  0.58002783  0.44535316  0.90806953  1
  Te  Te168  1  0.58363065  0.74714906  0.26478706  1
  Te  Te169  1  0.60837682  0.70699177  0.59557095  1
  Te  Te170  1  0.56685198  0.74801839  0.90243076  1
  Te  Te171  1  0.92254282  0.09713793  0.26062413  1
  Te  Te172  1  0.91584114  0.10543942  0.58894194  1
  Te  Te173  1  0.90371630  0.07242500  0.91442829  1
  Te  Te174  1  0.91101972  0.42353249  0.25099387  1
  Te  Te175  1  0.90784214  0.42216574  0.58156178  1
  Te  Te176  1  0.92578041  0.43357082  0.90535659  1
  Te  Te177  1  0.95134593  0.72141604  0.25719485  1
  Te  Te178  1  0.92951740  0.74182967  0.59097525  1
  Te  Te179  1  0.90587103  0.73531214  0.88890440  1
