# generated using pymatgen
data_In2Te3
_symmetry_space_group_name_H-M   'P 1'
_cell_length_a   18.76069576
_cell_length_b   18.76358427
_cell_length_c   18.75449446
_cell_angle_alpha   90.02765062
_cell_angle_beta   90.02218408
_cell_angle_gamma   90.00480686
_symmetry_Int_Tables_number   1
_chemical_formula_structural   In2Te3
_chemical_formula_sum   'In72 Te108'
_cell_volume   6601.91638933
_cell_formula_units_Z   36
loop_
 _symmetry_equiv_pos_site_id
 _symmetry_equiv_pos_as_xyz
  1  'x, y, z'
loop_
 _atom_site_type_symbol
 _atom_site_label
 _atom_site_symmetry_multiplicity
 _atom_site_fract_x
 _atom_site_fract_y
 _atom_site_fract_z
 _atom_site_occupancy
  In  In0  1  0.84845436  0.65019059  0.82402222  1
  In  In1  1  0.66224011  0.37618033  0.31320786  1
  In  In2  1  0.67037186  0.50721028  0.83825337  1
  In  In3  1  0.01528876  0.84308907  0.83166937  1
  In  In4  1  0.84655197  0.82611185  0.01861245  1
  In  In5  1  0.31301073  0.17540081  0.52053262  1
  In  In6  1  0.84680577  0.33600927  0.16339024  1
  In  In7  1  0.68332188  0.67851092  0.01214650  1
  In  In8  1  0.69437860  0.83564951  0.86319007  1
  In  In9  1  0.13342561  0.14869732  0.34327526  1
  In  In10  1  0.49478859  0.01295201  0.81476705  1
  In  In11  1  0.46115861  0.80712450  0.32714545  1
  In  In12  1  0.30404791  0.17486508  0.15777258  1
  In  In13  1  0.48829141  0.14997379  0.68360637  1
  In  In14  1  0.17645495  0.34077376  0.52474947  1
  In  In15  1  0.67203405  0.15941399  0.15425171  1
  In  In16  1  0.17234035  0.16370146  0.66856561  1
  In  In17  1  0.32657426  0.00932404  0.67259640  1
  In  In18  1  0.66782019  0.49798229  0.48870528  1
  In  In19  1  -0.01590491  0.15431300  0.86371866  1
  In  In20  1  0.88014518  0.80775531  0.31331824  1
  In  In21  1  0.16541957  0.52271106  0.31704219  1
  In  In22  1  0.67044934  0.82646573  0.13972631  1
  In  In23  1  0.30662648  0.48577872  0.84746155  1
  In  In24  1  0.47475665  0.64432407  0.18054340  1
  In  In25  1  0.45942279  0.64321032  0.84062684  1
  In  In26  1  0.00238613  0.50124062  0.84643070  1
  In  In27  1  0.29768510  0.65024162  0.02177194  1
  In  In28  1  0.16670980  0.35791597  0.18434348  1
  In  In29  1  0.14277404  0.83273197  0.00981563  1
  In  In30  1  0.15846796  0.51293795  0.65875701  1
  In  In31  1  0.00484601  0.34732794  0.01297930  1
  In  In32  1  0.00159293  0.63707861  0.02971390  1
  In  In33  1  0.68804788  0.17611413  0.85214091  1
  In  In34  1  0.53256887  0.82164730  0.65475758  1
  In  In35  1  0.31581538  0.35479098  0.66742666  1
  In  In36  1  0.65950073  0.50387734  0.16969921  1
  In  In37  1  0.49035608  0.33870214  0.83247780  1
  In  In38  1  0.16689215  0.81912401  0.68383129  1
  In  In39  1  0.14456341  0.16114030  0.01894289  1
  In  In40  1  0.84304748  0.66168009  0.50272787  1
  In  In41  1  0.66136454  0.67214150  0.66271521  1
  In  In42  1  0.47717351  0.35651014  0.47166112  1
  In  In43  1  -0.00217377  -0.01258808  0.66726979  1
  In  In44  1  0.68811729  -0.00793034  0.00888937  1
  In  In45  1  0.01723540  0.33599877  0.66897253  1
  In  In46  1  0.65682666  0.82124405  0.52157486  1
  In  In47  1  0.30780231  -0.02203720  0.33546888  1
  In  In48  1  0.34261132  0.65137619  0.64998376  1
  In  In49  1  0.01017328  0.79913877  0.48661183  1
  In  In50  1  0.48972357  0.19447454  -0.00007106  1
  In  In51  1  0.68670940  0.01470659  0.65182437  1
  In  In52  1  0.31254712  0.81255017  0.20941235  1
  In  In53  1  0.51234037  0.82250467  0.00413784  1
  In  In54  1  0.66882313  0.00282464  0.32135111  1
  In  In55  1  0.31827532  0.83150974  0.84710343  1
  In  In56  1  0.67165922  0.32732485  -0.01758450  1
  In  In57  1  -0.00195095  0.33461890  0.31498671  1
  In  In58  1  0.30566549  0.82900459  0.47015806  1
  In  In59  1  0.48039221  0.19769705  0.32266922  1
  In  In60  1  0.31600517  0.36473803  0.32185580  1
  In  In61  1  0.67370558  0.36742587  0.67628751  1
  In  In62  1  0.68415610  0.65735459  0.33016034  1
  In  In63  1  0.67238395  0.16041033  0.49668712  1
  In  In64  1  0.83801406  0.33698768  0.49129771  1
  In  In65  1  0.85773449  0.16322623  0.67679063  1
  In  In66  1  0.00399735  0.50941475  0.49008283  1
  In  In67  1  0.85891714  0.15965797  0.30798608  1
  In  In68  1  0.46924852  -0.02497921  0.47936796  1
  In  In69  1  0.86165454  -0.03817399  0.49134357  1
  In  In70  1  0.85456113  -0.00436657  0.15558744  1
  In  In71  1  0.30815309  0.01430663  0.01142097  1
  Te  Te72  1  0.07446596  0.04048059  0.08094039  1
  Te  Te73  1  0.05245178  0.05012323  0.41539314  1
  Te  Te74  1  0.07412866  0.08616538  0.75591289  1
  Te  Te75  1  0.08508809  0.44894100  0.09419703  1
  Te  Te76  1  0.10047554  0.40790789  0.40852652  1
  Te  Te77  1  0.10824919  0.41339742  0.76190668  1
  Te  Te78  1  0.09389779  0.73020010  0.11046116  1
  Te  Te79  1  0.10684412  0.76051403  0.37869056  1
  Te  Te80  1  0.07182841  0.72942546  0.75372182  1
  Te  Te81  1  0.41491537  0.09302506  0.08825188  1
  Te  Te82  1  0.40151947  0.09348347  0.41121423  1
  Te  Te83  1  0.37931061  0.10786883  0.78080002  1
  Te  Te84  1  0.45213902  0.40088098  0.12404741  1
  Te  Te85  1  0.40454995  0.46055492  0.39625471  1
  Te  Te86  1  0.41659875  0.43855900  0.74425132  1
  Te  Te87  1  0.40422040  0.75070327  0.08455654  1
  Te  Te88  1  0.39967710  0.71902311  0.42838863  1
  Te  Te89  1  0.41467827  0.76066318  0.74982582  1
  Te  Te90  1  0.78359603  0.10505794  0.06551641  1
  Te  Te91  1  0.77209314  0.06975477  0.41423116  1
  Te  Te92  1  0.76765767  0.07641319  0.76448938  1
  Te  Te93  1  0.75001308  0.41856658  0.07954482  1
  Te  Te94  1  0.77698784  0.43803237  0.39599039  1
  Te  Te95  1  0.77165237  0.42460025  0.76803266  1
  Te  Te96  1  0.78607670  0.72519725  0.11837518  1
  Te  Te97  1  0.75848292  0.76444971  0.41134059  1
  Te  Te98  1  0.75807118  0.75140408  0.75135531  1
  Te  Te99  1  0.07996727  0.23975017  0.22697624  1
  Te  Te100  1  0.07754685  0.23524253  0.57057040  1
  Te  Te101  1  0.08434960  0.25746514  0.91509349  1
  Te  Te102  1  0.06540389  0.60457657  0.24538228  1
  Te  Te103  1  0.09006344  0.60387174  0.56455850  1
  Te  Te104  1  0.09906539  0.57195414  0.93620696  1
  Te  Te105  1  0.06841774  0.94505719  0.19612539  1
  Te  Te106  1  0.08557056  0.89806191  0.58032474  1
  Te  Te107  1  0.07658852  0.93903922  0.92898664  1
  Te  Te108  1  0.40465905  0.28228842  0.21704176  1
  Te  Te109  1  0.42625711  0.25614457  0.58475243  1
  Te  Te110  1  0.38947380  0.27457904  0.92296797  1
  Te  Te111  1  0.36566246  0.58917208  0.26501020  1
  Te  Te112  1  0.45082250  0.59294317  0.57032900  1
  Te  Te113  1  0.40097187  0.55960561  0.95177977  1
  Te  Te114  1  0.41825834  0.92614515  0.24365908  1
  Te  Te115  1  0.40149399  0.89941091  0.59249826  1
  Te  Te116  1  0.42218948  0.92033523  0.92035832  1
  Te  Te117  1  0.74145942  0.24813245  0.26232380  1
  Te  Te118  1  0.75602479  0.25224292  0.59401786  1
  Te  Te119  1  0.78829531  0.26261038  0.91785362  1
  Te  Te120  1  0.77339692  0.58127648  0.23509706  1
  Te  Te121  1  0.75392446  0.57339362  0.59154623  1
  Te  Te122  1  0.76746337  0.57928091  0.93345462  1
  Te  Te123  1  0.76089557  0.90836860  0.24353296  1
  Te  Te124  1  0.76738914  0.89878189  0.59463126  1
  Te  Te125  1  0.80117133  0.93498472  0.91744566  1
  Te  Te126  1  0.24134163  0.28396680  0.06850017  1
  Te  Te127  1  0.24700923  0.24925847  0.40291634  1
  Te  Te128  1  0.23879995  0.26485747  0.75416194  1
  Te  Te129  1  0.20600177  0.55458653  0.09159632  1
  Te  Te130  1  0.25309216  0.61191332  0.39854623  1
  Te  Te131  1  0.24767230  0.59370878  0.75565852  1
  Te  Te132  1  0.25138163  0.90186605  0.09519780  1
  Te  Te133  1  0.19503586  0.89535380  0.39021098  1
  Te  Te134  1  0.23450869  0.93062472  0.76696586  1
  Te  Te135  1  0.58312928  0.26974088  0.09596442  1
  Te  Te136  1  0.59037371  0.26683861  0.41541230  1
  Te  Te137  1  0.59262823  0.24499186  0.74848781  1
  Te  Te138  1  0.57469705  0.59191371  0.07501336  1
  Te  Te139  1  0.58155687  0.57025413  0.39067821  1
  Te  Te140  1  0.57154190  0.58492463  0.75068754  1
  Te  Te141  1  0.57189020  0.93359338  0.09143562  1
  Te  Te142  1  0.58502813  0.90532999  0.40696766  1
  Te  Te143  1  0.60328706  0.91881638  0.75966142  1
  Te  Te144  1  0.94146045  0.24240227  0.09952352  1
  Te  Te145  1  0.93113884  0.24113104  0.41703390  1
  Te  Te146  1  0.92387094  0.26480703  0.76648716  1
  Te  Te147  1  0.89373508  0.58601809  0.11812686  1
  Te  Te148  1  0.92254175  0.59249951  0.39881975  1
  Te  Te149  1  0.94762490  0.58532634  0.73529489  1
  Te  Te150  1  0.95674508  0.89758095  0.09723825  1
  Te  Te151  1  0.96018307  0.92374582  0.38119601  1
  Te  Te152  1  0.90721482  0.90887201  0.75335487  1
  Te  Te153  1  0.22926567  0.07502139  0.24674264  1
  Te  Te154  1  0.22922773  0.05776965  0.56401818  1
  Te  Te155  1  0.22848833  0.09229234  0.91708154  1
  Te  Te156  1  0.28572743  0.47042890  0.20035236  1
  Te  Te157  1  0.26993689  0.45357859  0.56173452  1
  Te  Te158  1  0.26919022  0.39385978  0.95616537  1
  Te  Te159  1  0.22451421  0.71390167  0.28176167  1
  Te  Te160  1  0.23971523  0.73743899  0.57620994  1
  Te  Te161  1  0.22417090  0.73585398  0.91629831  1
  Te  Te162  1  0.57066784  0.09231340  0.24845685  1
  Te  Te163  1  0.56047570  0.06088953  0.57627691  1
  Te  Te164  1  0.58570115  0.08444938  0.92403506  1
  Te  Te165  1  0.53803678  0.43857058  0.24106355  1
  Te  Te166  1  0.57041600  0.42260608  0.58184810  1
  Te  Te167  1  0.57151925  0.42867936  0.92550626  1
  Te  Te168  1  0.58204329  0.74866645  0.24045657  1
  Te  Te169  1  0.55541302  0.70503693  0.54594164  1
  Te  Te170  1  0.58055675  0.73445550  0.89842737  1
  Te  Te171  1  0.95840372  0.07151114  0.23788938  1
  Te  Te172  1  0.92429776  0.08062053  0.56800717  1
  Te  Te173  1  0.89828107  0.07023429  0.94840594  1
  Te  Te174  1  0.93032967  0.43771702  0.23359585  1
  Te  Te175  1  0.92073671  0.42294541  0.58697108  1
  Te  Te176  1  0.90714243  0.42651140  0.93298708  1
  Te  Te177  1  0.97373850  0.73175012  0.22581357  1
  Te  Te178  1  0.92373485  0.74574394  0.59339688  1
  Te  Te179  1  0.92961780  0.73744812  0.92529458  1
