# generated using pymatgen
data_In2Te3
_symmetry_space_group_name_H-M   'P 1'
_cell_length_a   18.97040746
_cell_length_b   18.97851914
_cell_length_c   18.96976119
_cell_angle_alpha   89.84459137
_cell_angle_beta   89.91061546
_cell_angle_gamma   89.85995987
_symmetry_Int_Tables_number   1
_chemical_formula_structural   In2Te3
_chemical_formula_sum   'In72 Te108'
_cell_volume   6829.63393094
_cell_formula_units_Z   36
loop_
 _symmetry_equiv_pos_site_id
 _symmetry_equiv_pos_as_xyz
  1  'x, y, z'
loop_
 _atom_site_type_symbol
 _atom_site_label
 _atom_site_symmetry_multiplicity
 _atom_site_fract_x
 _atom_site_fract_y
 _atom_site_fract_z
 _atom_site_occupancy
  In  In0  1  -0.00688576  0.31523090  0.68092927  1
  In  In1  1  0.14294979  0.47923511  -0.00795265  1
  In  In2  1  0.83924185  0.33360109  0.13473636  1
  In  In3  1  0.00144614  0.51569321  0.19364106  1
  In  In4  1  -0.00159373  0.68968273  0.33684093  1
  In  In5  1  0.46232931  0.66359307  0.84200974  1
  In  In6  1  0.01751867  0.15577575  0.18840244  1
  In  In7  1  0.65038374  0.79770119  0.49922141  1
  In  In8  1  0.16800853  0.15618888  -0.00926821  1
  In  In9  1  0.15154535  -0.01994391  0.48924843  1
  In  In10  1  0.35105278  0.13454903  0.50909690  1
  In  In11  1  0.49595513  0.50150855  0.69115326  1
  In  In12  1  0.51853510  -0.01316697  0.47866859  1
  In  In13  1  0.35268219  -0.01202450  0.02631324  1
  In  In14  1  -0.00347623  0.84534882  0.83031614  1
  In  In15  1  0.50524306  0.33560435  0.17865727  1
  In  In16  1  0.32186046  0.84144083  0.48338308  1
  In  In17  1  0.50284766  0.17850278  0.36035953  1
  In  In18  1  0.15688316  -0.00091680  0.17902351  1
  In  In19  1  0.67466229  0.00861973  0.66387014  1
  In  In20  1  0.51650829  -0.02029733  0.17271594  1
  In  In21  1  0.69552913  0.29733554  -0.02972096  1
  In  In22  1  0.31558664  0.17299741  0.81229079  1
  In  In23  1  0.02686466  0.52142469  0.51954429  1
  In  In24  1  0.00340751  0.30660486  -0.03036687  1
  In  In25  1  0.17804590  0.66093675  0.51339324  1
  In  In26  1  0.48869321  0.64736709  0.51796483  1
  In  In27  1  0.34499472  0.33777615  0.38289175  1
  In  In28  1  0.49156482  0.51205558  0.34819753  1
  In  In29  1  0.34015437  -0.01747879  0.68191402  1
  In  In30  1  0.83146827  0.83811347  -0.00390900  1
  In  In31  1  0.14448780  0.49820921  0.39625626  1
  In  In32  1  0.00340941  0.67983767  0.68127676  1
  In  In33  1  0.83094420  0.02221045  0.82468633  1
  In  In34  1  0.65758974  0.64851255  -0.01842857  1
  In  In35  1  0.16559279  0.85963651  0.67708752  1
  In  In36  1  0.16494834  0.84047231  -0.02082494  1
  In  In37  1  0.82940320  0.01905817  0.13716850  1
  In  In38  1  0.66250014  0.48744320  0.16170643  1
  In  In39  1  0.32146728  0.49721980  0.82875612  1
  In  In40  1  0.68527682  0.81076823  0.81470854  1
  In  In41  1  0.82412149  0.66448362  0.14392375  1
  In  In42  1  0.32530586  0.66936284  0.33930031  1
  In  In43  1  -0.00534549  0.48544069  0.81700226  1
  In  In44  1  0.16540952  0.14522775  0.35133577  1
  In  In45  1  0.69637006  -0.00275548  0.33194360  1
  In  In46  1  0.16410717  0.82548368  0.31064341  1
  In  In47  1  0.50434752  -0.00268994  0.83939475  1
  In  In48  1  0.64971967  0.14313316  0.13113923  1
  In  In49  1  0.48975493  0.14280967  -0.01170715  1
  In  In50  1  0.82649489  0.17528293  0.33020001  1
  In  In51  1  0.34408496  0.33580538  -0.00559813  1
  In  In52  1  0.16061190  0.67734286  0.13642453  1
  In  In53  1  0.49283868  0.81192008  0.09939322  1
  In  In54  1  0.01064950  0.66164170  -0.01955951  1
  In  In55  1  0.52486799  0.34393061  0.57753711  1
  In  In56  1  0.70677143  0.31432026  0.35288813  1
  In  In57  1  0.86253894  0.01031535  0.50784330  1
  In  In58  1  0.01120195  0.04809909  0.68701693  1
  In  In59  1  0.67471249  0.19401277  0.56368005  1
  In  In60  1  -0.00484464  0.36915586  0.37775151  1
  In  In61  1  0.30704529  0.50439091  0.20437643  1
  In  In62  1  0.17209655  0.31512341  0.18424595  1
  In  In63  1  0.47542571  0.80103473  0.68845959  1
  In  In64  1  0.68859388  0.48857518  0.81473813  1
  In  In65  1  0.30871314  0.34996909  0.65165190  1
  In  In66  1  0.81723343  0.84185879  0.32809820  1
  In  In67  1  0.82218334  0.81789812  0.64819133  1
  In  In68  1  0.81674999  0.52990692  0.31910677  1
  In  In69  1  0.85211033  0.36379285  0.50875097  1
  In  In70  1  0.53697033  0.47373952  -0.04125574  1
  In  In71  1  0.81858794  0.64109157  0.52836722  1
  Te  Te72  1  0.07357736  0.07286632  0.07397011  1
  Te  Te73  1  0.06127677  0.07616861  0.42541487  1
  Te  Te74  1  0.10485146  0.13584392  0.75923242  1
  Te  Te75  1  0.07591432  0.40940810  0.11149097  1
  Te  Te76  1  0.10400246  0.37024892  0.49392360  1
  Te  Te77  1  0.09164399  0.40629939  0.73986147  1
  Te  Te78  1  0.06048457  0.76828817  0.07428004  1
  Te  Te79  1  0.09481502  0.75834690  0.43024998  1
  Te  Te80  1  0.10279174  0.75512513  0.76714502  1
  Te  Te81  1  0.42505907  0.08919108  0.11382983  1
  Te  Te82  1  0.41549811  0.05864491  0.39329133  1
  Te  Te83  1  0.42655311  0.08812346  0.74499024  1
  Te  Te84  1  0.39520688  0.41591467  0.11308766  1
  Te  Te85  1  0.44664384  0.41724247  0.45604333  1
  Te  Te86  1  0.40968416  0.39585572  0.75722910  1
  Te  Te87  1  0.37239646  0.76822041  0.01283477  1
  Te  Te88  1  0.42361562  0.75017810  0.42001371  1
  Te  Te89  1  0.36685598  0.75687013  0.77725973  1
  Te  Te90  1  0.75108108  0.09710062  0.03867501  1
  Te  Te91  1  0.74809535  0.09572507  0.43536075  1
  Te  Te92  1  0.71861186  0.10278427  0.76814246  1
  Te  Te93  1  0.74345037  0.41829773  0.05451333  1
  Te  Te94  1  0.74973704  0.44096196  0.42277744  1
  Te  Te95  1  0.78360872  0.43252174  0.71353261  1
  Te  Te96  1  0.72806164  0.75237420  0.06850773  1
  Te  Te97  1  0.75968753  0.73010168  0.41935177  1
  Te  Te98  1  0.76867421  0.71528575  0.73945029  1
  Te  Te99  1  0.06510826  0.26608909  0.28310002  1
  Te  Te100  1  0.03893121  0.24579192  0.55903528  1
  Te  Te101  1  0.10018492  0.23502004  0.88057196  1
  Te  Te102  1  0.10357824  0.59363496  0.27208381  1
  Te  Te103  1  0.11260848  0.58326112  0.62780428  1
  Te  Te104  1  0.09999077  0.58146907  0.89086996  1
  Te  Te105  1  0.06331945  0.91025773  0.24905366  1
  Te  Te106  1  0.05756698  0.93109915  0.60022785  1
  Te  Te107  1  0.09025209  0.93698307  0.89561299  1
  Te  Te108  1  0.41107365  0.25832101  0.26922012  1
  Te  Te109  1  0.40698224  0.24498663  0.59287252  1
  Te  Te110  1  0.41907344  0.24483951  0.90043458  1
  Te  Te111  1  0.42148964  0.59624536  0.24242958  1
  Te  Te112  1  0.39213433  0.58833664  0.62280334  1
  Te  Te113  1  0.41085365  0.55585368  0.93649078  1
  Te  Te114  1  0.42858731  0.87281354  0.22999304  1
  Te  Te115  1  0.43209737  0.90479158  0.57602109  1
  Te  Te116  1  0.42082942  0.90453593  0.92224692  1
  Te  Te117  1  0.74266935  0.24469665  0.21605508  1
  Te  Te118  1  0.77058309  0.29905988  0.62034239  1
  Te  Te119  1  0.81714238  0.24459234  0.90238633  1
  Te  Te120  1  0.71642394  0.60768402  0.23683177  1
  Te  Te121  1  0.74312128  0.54705920  0.61393409  1
  Te  Te122  1  0.75865816  0.56478059  0.91828158  1
  Te  Te123  1  0.74515000  0.91602932  0.21544721  1
  Te  Te124  1  0.73688652  0.91105521  0.56085565  1
  Te  Te125  1  0.74442610  0.91826024  0.90067365  1
  Te  Te126  1  0.25495802  0.24454567  0.07969296  1
  Te  Te127  1  0.25456761  0.23033195  0.44061018  1
  Te  Te128  1  0.22995166  0.23222431  0.70449803  1
  Te  Te129  1  0.23848828  0.56144978  0.08038038  1
  Te  Te130  1  0.27543136  0.56652742  0.44040549  1
  Te  Te131  1  0.27515306  0.58099850  0.71883412  1
  Te  Te132  1  0.24320224  0.90870310  0.09227387  1
  Te  Te133  1  0.25025584  0.92759326  0.38425939  1
  Te  Te134  1  0.24075485  0.93471426  0.77852517  1
  Te  Te135  1  0.57293747  0.26417684  0.06391433  1
  Te  Te136  1  0.59664128  0.26221676  0.44438130  1
  Te  Te137  1  0.60777937  0.26705059  0.67471444  1
  Te  Te138  1  0.56715456  0.56758535  0.07522253  1
  Te  Te139  1  0.58263997  0.60729575  0.41111902  1
  Te  Te140  1  0.57913131  0.59153499  0.77650370  1
  Te  Te141  1  0.56900836  0.92778207  0.04671245  1
  Te  Te142  1  0.59887171  0.89368294  0.39049383  1
  Te  Te143  1  0.58399816  0.90591850  0.73575070  1
  Te  Te144  1  0.93460110  0.23021227  0.08210808  1
  Te  Te145  1  0.91503922  0.24623072  0.43266319  1
  Te  Te146  1  0.90943031  0.23506335  0.77686889  1
  Te  Te147  1  0.92517287  0.57386673  0.07696453  1
  Te  Te148  1  0.92548957  0.58023823  0.41527859  1
  Te  Te149  1  0.91299579  0.59849251  0.76314078  1
  Te  Te150  1  0.91940906  0.93791278  0.05438132  1
  Te  Te151  1  0.91341135  0.91386715  0.41129362  1
  Te  Te152  1  0.89841686  0.91626276  0.73522716  1
  Te  Te153  1  0.24319437  0.10308289  0.23650260  1
  Te  Te154  1  0.24728168  0.05334674  0.58321406  1
  Te  Te155  1  0.27637300  0.07632592  0.92315896  1
  Te  Te156  1  0.23113582  0.40655334  0.29474372  1
  Te  Te157  1  0.23832881  0.42870141  0.54829058  1
  Te  Te158  1  0.23658921  0.39573025  0.90637182  1
  Te  Te159  1  0.26191299  0.74729177  0.22446651  1
  Te  Te160  1  0.25372610  0.76526871  0.59298173  1
  Te  Te161  1  0.25470005  0.73357472  0.93148199  1
  Te  Te162  1  0.59479941  0.09746236  0.26790429  1
  Te  Te163  1  0.56840927  0.08182065  0.58238185  1
  Te  Te164  1  0.59508783  0.10239911  0.89248019  1
  Te  Te165  1  0.59663546  0.40808042  0.27467114  1
  Te  Te166  1  0.60404264  0.47034247  0.59087136  1
  Te  Te167  1  0.60613284  0.37100282  0.87182736  1
  Te  Te168  1  0.54825633  0.78170191  0.23103671  1
  Te  Te169  1  0.58269617  0.72299513  0.61158913  1
  Te  Te170  1  0.57752287  0.74859662  0.90077782  1
  Te  Te171  1  0.90987817  0.07353574  0.25665167  1
  Te  Te172  1  0.89575561  0.10313342  0.61464211  1
  Te  Te173  1  0.92595052  0.12108961  0.88179940  1
  Te  Te174  1  0.89459522  0.41355609  0.25426059  1
  Te  Te175  1  0.93114010  0.44691757  0.60686032  1
  Te  Te176  1  0.91940994  0.41610296  0.92372791  1
  Te  Te177  1  0.90605425  0.75291483  0.23599604  1
  Te  Te178  1  0.92562350  0.74168538  0.56601661  1
  Te  Te179  1  0.90922015  0.74530708  0.90436027  1
