# generated using pymatgen
data_In2Te3
_symmetry_space_group_name_H-M   'P 1'
_cell_length_a   18.99227733
_cell_length_b   18.94858648
_cell_length_c   18.98689507
_cell_angle_alpha   89.99561196
_cell_angle_beta   90.00788087
_cell_angle_gamma   89.97842184
_symmetry_Int_Tables_number   1
_chemical_formula_structural   In2Te3
_chemical_formula_sum   'In72 Te108'
_cell_volume   6832.94265153
_cell_formula_units_Z   36
loop_
 _symmetry_equiv_pos_site_id
 _symmetry_equiv_pos_as_xyz
  1  'x, y, z'
loop_
 _atom_site_type_symbol
 _atom_site_label
 _atom_site_symmetry_multiplicity
 _atom_site_fract_x
 _atom_site_fract_y
 _atom_site_fract_z
 _atom_site_occupancy
  In  In0  1  0.67862237  0.33636577  0.66451977  1
  In  In1  1  0.33223897  0.49519720  0.47923768  1
  In  In2  1  0.51001940  0.79961009  0.32231453  1
  In  In3  1  0.88765883  0.49961009  0.68999398  1
  In  In4  1  0.32283274  0.83367130  0.14875013  1
  In  In5  1  0.52272401  -0.00198289  0.84642263  1
  In  In6  1  0.51537186  0.67559311  0.49576265  1
  In  In7  1  0.33074354  0.35304248  0.67601142  1
  In  In8  1  0.15521054  0.34467463  0.16041700  1
  In  In9  1  0.16587954  0.33087382  0.84368058  1
  In  In10  1  0.30048653  0.04172026  0.35664304  1
  In  In11  1  0.12357638  0.21027379  0.64959282  1
  In  In12  1  0.66934483  -0.00192651  0.35023810  1
  In  In13  1  0.32892015  0.80862420  0.81070982  1
  In  In14  1  0.14571128  0.65843669  0.87805923  1
  In  In15  1  0.83977914  0.68760868  0.51144321  1
  In  In16  1  0.00624806  0.32762331  0.34971093  1
  In  In17  1  0.32389948  0.00727123  0.01001000  1
  In  In18  1  0.84923842  0.34854630  0.51195166  1
  In  In19  1  0.14374974  0.50683053  0.67408128  1
  In  In20  1  0.46187636  0.01363642  0.17974687  1
  In  In21  1  0.16966170  0.84374972  0.33788396  1
  In  In22  1  0.83812257  0.81327939  -0.03383510  1
  In  In23  1  0.68699428  0.64145185  0.32371453  1
  In  In24  1  0.16565432  0.65595017  0.51166121  1
  In  In25  1  0.84511974  0.32950322  0.85418290  1
  In  In26  1  0.32977247  0.49301654  0.83922555  1
  In  In27  1  0.33489867  -0.01559567  0.65412994  1
  In  In28  1  -0.01178722  0.80737290  0.15767693  1
  In  In29  1  0.86297428  0.16067815  -0.01238292  1
  In  In30  1  0.87843683  0.81166239  0.71194272  1
  In  In31  1  0.52306869  0.17038498  0.66433452  1
  In  In32  1  0.65055577  0.20403310  0.15038186  1
  In  In33  1  0.65574273  0.84203170  0.52802449  1
  In  In34  1  0.31297944  0.16664159  0.16522047  1
  In  In35  1  0.00393962  0.00471826  0.34793606  1
  In  In36  1  -0.00840133  -0.00544771  0.68205281  1
  In  In37  1  0.84839647  0.17183855  0.69088518  1
  In  In38  1  0.83914831  0.50110501  -0.00177681  1
  In  In39  1  0.13902572  0.16677965  0.00504623  1
  In  In40  1  0.82784201  0.01299397  0.51503858  1
  In  In41  1  0.47852932  0.01034997  0.52544657  1
  In  In42  1  0.51789177  0.19538999  0.31559722  1
  In  In43  1  0.12307142  -0.00572121  0.85708589  1
  In  In44  1  0.68311053  0.82633446  0.81995012  1
  In  In45  1  0.83482478  0.49409882  0.32257797  1
  In  In46  1  0.35612966  0.17658029  0.84357376  1
  In  In47  1  0.48067355  0.81294626  -0.00816125  1
  In  In48  1  0.50866511  0.34569607  0.82165942  1
  In  In49  1  0.68178595  0.00728645  0.69582385  1
  In  In50  1  0.68775285  0.50787215  0.51118208  1
  In  In51  1  0.46616575  0.37034113  0.14805490  1
  In  In52  1  0.01048922  0.65512803  0.33812319  1
  In  In53  1  0.15848420  -0.00173257  0.51156928  1
  In  In54  1  0.64763298  0.52480310  0.80454255  1
  In  In55  1  0.84267278  0.84460824  0.34244945  1
  In  In56  1  0.82776608  0.32357322  0.15424924  1
  In  In57  1  -0.00927488  0.16942067  0.16273802  1
  In  In58  1  0.33267331  0.64314136  -0.00128775  1
  In  In59  1  0.67280422  0.65226238  0.00381182  1
  In  In60  1  0.66061862  0.83329181  0.12492476  1
  In  In61  1  0.31581250  0.19979950  0.49033958  1
  In  In62  1  0.51641563  0.59169382  0.16012720  1
  In  In63  1  0.32910303  0.66638444  0.30489470  1
  In  In64  1  0.00016986  0.49584994  0.12682452  1
  In  In65  1  0.66159998  0.02984453  0.01008291  1
  In  In66  1  0.51425496  0.34893091  0.48677989  1
  In  In67  1  0.85164231  -0.01054857  0.17131285  1
  In  In68  1  0.34262556  0.65248402  0.66667687  1
  In  In69  1  0.16587599  0.81485332  0.68739702  1
  In  In70  1  0.18711729  0.41806256  0.35840798  1
  In  In71  1  0.15529468  0.64358829  0.11436806  1
  Te  Te72  1  0.05244555  0.07083556  0.07289960  1
  Te  Te73  1  0.09558641  0.09238991  0.42014998  1
  Te  Te74  1  0.09307036  0.08843124  0.74235723  1
  Te  Te75  1  0.10395775  0.42586125  0.04641175  1
  Te  Te76  1  0.06660866  0.42999661  0.44119902  1
  Te  Te77  1  0.07511320  0.39764202  0.74542893  1
  Te  Te78  1  0.06971576  0.74562282  0.04924147  1
  Te  Te79  1  0.08307637  0.75549445  0.42499715  1
  Te  Te80  1  0.07827825  0.77186594  0.80113930  1
  Te  Te81  1  0.41862545  0.10832377  0.07069145  1
  Te  Te82  1  0.42657487  0.10143452  0.41269242  1
  Te  Te83  1  0.42826113  0.08043639  0.74354250  1
  Te  Te84  1  0.39670530  0.46691215  0.05611815  1
  Te  Te85  1  0.40471943  0.39374983  0.40181090  1
  Te  Te86  1  0.43169807  0.44587532  0.73562855  1
  Te  Te87  1  0.42200077  0.72675405  0.10140815  1
  Te  Te88  1  0.40430649  0.74219354  0.41502257  1
  Te  Te89  1  0.43620695  0.72147750  0.75975120  1
  Te  Te90  1  0.76634134  0.09346803  0.09903610  1
  Te  Te91  1  0.76110506  0.09197110  0.41136596  1
  Te  Te92  1  0.76367160  0.09125908  0.78568558  1
  Te  Te93  1  0.74867141  0.43423018  0.09601577  1
  Te  Te94  1  0.74706759  0.40972082  0.41279096  1
  Te  Te95  1  0.76710853  0.42264476  0.75098007  1
  Te  Te96  1  0.77060146  0.73971832  0.08215069  1
  Te  Te97  1  0.73422935  0.75954386  0.41859719  1
  Te  Te98  1  0.76472718  0.72519685  0.74945317  1
  Te  Te99  1  0.08882959  0.24318987  0.25084482  1
  Te  Te100  1  0.06689348  0.30024827  0.54852259  1
  Te  Te101  1  0.06294770  0.23720010  0.89836569  1
  Te  Te102  1  0.08177938  0.57702678  0.23101874  1
  Te  Te103  1  0.05931755  0.60494544  0.60090455  1
  Te  Te104  1  0.03828131  0.55828087  0.90416126  1
  Te  Te105  1  0.06331050  0.90626535  0.24948752  1
  Te  Te106  1  0.07955260  0.90294693  0.59827557  1
  Te  Te107  1  0.07060055  0.87307790  0.91761916  1
  Te  Te108  1  0.40492482  0.25851899  0.24228570  1
  Te  Te109  1  0.42094824  0.25728005  0.59314224  1
  Te  Te110  1  0.40524877  0.29377911  0.91301554  1
  Te  Te111  1  0.43379588  0.56372670  0.28050906  1
  Te  Te112  1  0.42522826  0.57447603  0.56719129  1
  Te  Te113  1  0.43081132  0.57035086  0.91668950  1
  Te  Te114  1  0.40766066  0.89629017  0.25873635  1
  Te  Te115  1  0.42965943  0.89113716  0.59403958  1
  Te  Te116  1  0.40622797  0.91728183  0.90726790  1
  Te  Te117  1  0.73455649  0.26620864  0.25103826  1
  Te  Te118  1  0.76224515  0.24112417  0.58593779  1
  Te  Te119  1  0.75920001  0.25446689  0.94500532  1
  Te  Te120  1  0.74465028  0.55321777  0.21996527  1
  Te  Te121  1  0.78651284  0.57606245  0.60112575  1
  Te  Te122  1  0.75394986  0.58142154  0.89823434  1
  Te  Te123  1  0.73909851  0.90452247  0.24011052  1
  Te  Te124  1  0.76583987  0.90827260  0.60778663  1
  Te  Te125  1  0.72972115  0.91940180  0.93323395  1
  Te  Te126  1  0.24248581  0.25730369  0.06775098  1
  Te  Te127  1  0.24032816  0.27774472  0.39587534  1
  Te  Te128  1  0.25207080  0.24273270  0.74202616  1
  Te  Te129  1  0.27958890  0.55416953  0.10979461  1
  Te  Te130  1  0.23458604  0.58345076  0.39761983  1
  Te  Te131  1  0.23617574  0.59707881  0.76370226  1
  Te  Te132  1  0.22909851  0.92466951  0.08356676  1
  Te  Te133  1  0.26323415  0.91720976  0.43234539  1
  Te  Te134  1  0.24173625  0.92988688  0.76093150  1
  Te  Te135  1  0.56004031  0.28529542  0.07229364  1
  Te  Te136  1  0.59640770  0.24400594  0.42795270  1
  Te  Te137  1  0.60891793  0.24434246  0.76265730  1
  Te  Te138  1  0.57705801  0.54213056  0.03483204  1
  Te  Te139  1  0.58918536  0.57069945  0.41376978  1
  Te  Te140  1  0.57687718  0.62498945  0.72441881  1
  Te  Te141  1  0.54688704  0.92349857  0.08076633  1
  Te  Te142  1  0.56625538  0.90976087  0.41865651  1
  Te  Te143  1  0.57859183  0.90479468  0.74112137  1
  Te  Te144  1  0.93649930  0.27080017  0.06471892  1
  Te  Te145  1  0.90785554  0.24792542  0.42222673  1
  Te  Te146  1  0.94280184  0.24070124  0.78339513  1
  Te  Te147  1  0.91818128  0.60301737  0.07088887  1
  Te  Te148  1  0.90846605  0.58154201  0.42288316  1
  Te  Te149  1  0.95115979  0.59821299  0.78256415  1
  Te  Te150  1  0.91448108  0.90611614  0.06455695  1
  Te  Te151  1  0.92437461  0.91658429  0.44385636  1
  Te  Te152  1  0.90492221  0.93726401  0.79020087  1
  Te  Te153  1  0.23343046  0.06190771  0.23018243  1
  Te  Te154  1  0.25664460  0.09443689  0.58215845  1
  Te  Te155  1  0.24624211  0.09239592  0.90990408  1
  Te  Te156  1  0.25420425  0.43126751  0.22929421  1
  Te  Te157  1  0.24181054  0.42979348  0.58317086  1
  Te  Te158  1  0.22229895  0.44033850  0.92701401  1
  Te  Te159  1  0.21915544  0.74464005  0.22949550  1
  Te  Te160  1  0.25841184  0.75034714  0.58610413  1
  Te  Te161  1  0.25518541  0.75357912  0.93005978  1
  Te  Te162  1  0.58674549  0.07385807  0.24199604  1
  Te  Te163  1  0.60436052  0.07418535  0.58046040  1
  Te  Te164  1  0.57370366  0.10939928  0.92508430  1
  Te  Te165  1  0.55371923  0.45920412  0.22905747  1
  Te  Te166  1  0.58548026  0.43062014  0.59293743  1
  Te  Te167  1  0.60024039  0.42756729  0.90527329  1
  Te  Te168  1  0.60022560  0.72892711  0.22385128  1
  Te  Te169  1  0.60960013  0.72073219  0.60396699  1
  Te  Te170  1  0.59069320  0.74658609  0.91545053  1
  Te  Te171  1  0.90934585  0.09158098  0.26586540  1
  Te  Te172  1  0.93167661  0.09658788  0.58697167  1
  Te  Te173  1  0.89758644  0.06297373  0.88350950  1
  Te  Te174  1  0.93396452  0.41095633  0.24184063  1
  Te  Te175  1  0.95234313  0.38129005  0.61880635  1
  Te  Te176  1  0.93964901  0.43334470  0.90841558  1
  Te  Te177  1  0.90379733  0.73314767  0.26061983  1
  Te  Te178  1  0.94555441  0.74181821  0.59922300  1
  Te  Te179  1  0.89474115  0.72408823  0.86107058  1
