# generated using pymatgen
data_In2Te3
_symmetry_space_group_name_H-M   'P 1'
_cell_length_a   18.79736166
_cell_length_b   18.80234550
_cell_length_c   18.80060920
_cell_angle_alpha   89.83873854
_cell_angle_beta   89.90375622
_cell_angle_gamma   89.92199058
_symmetry_Int_Tables_number   1
_chemical_formula_structural   In2Te3
_chemical_formula_sum   'In72 Te108'
_cell_volume   6644.74188599
_cell_formula_units_Z   36
loop_
 _symmetry_equiv_pos_site_id
 _symmetry_equiv_pos_as_xyz
  1  'x, y, z'
loop_
 _atom_site_type_symbol
 _atom_site_label
 _atom_site_symmetry_multiplicity
 _atom_site_fract_x
 _atom_site_fract_y
 _atom_site_fract_z
 _atom_site_occupancy
  In  In0  1  0.51174487  0.48825034  0.31115569  1
  In  In1  1  0.52111777  0.67788970  0.54088387  1
  In  In2  1  0.15735627  0.50267652  -0.00143859  1
  In  In3  1  0.50871225  0.33403004  0.83432490  1
  In  In4  1  0.15438412  0.18489817  0.34969808  1
  In  In5  1  -0.01434092  0.83706151  0.50901177  1
  In  In6  1  0.83113359  0.84768236  0.33302167  1
  In  In7  1  0.13829346  0.18491251  0.00681755  1
  In  In8  1  0.02769882  0.50859056  0.17712890  1
  In  In9  1  0.53377917  0.82706653  0.65745630  1
  In  In10  1  0.55089775  -0.00543025  0.48017526  1
  In  In11  1  0.52380773  0.17439160  0.34778988  1
  In  In12  1  0.33607843  0.63856023  0.01623917  1
  In  In13  1  0.34666999  0.82879229  0.80607551  1
  In  In14  1  0.32773664  0.67025233  0.68595942  1
  In  In15  1  0.81933067  0.18636874  0.62752048  1
  In  In16  1  0.83021084  0.18583372  -0.00378864  1
  In  In17  1  0.35925386  0.01533743  0.33025597  1
  In  In18  1  0.67451226  0.48645533  0.48684785  1
  In  In19  1  0.52474308  0.86266262  0.35975464  1
  In  In20  1  0.52259891  -0.01287847  0.20902367  1
  In  In21  1  0.34891388  0.85720027  0.48205938  1
  In  In22  1  0.50193174  0.65747251  0.15134204  1
  In  In23  1  0.29504524  0.46808078  0.19781850  1
  In  In24  1  0.66064412  0.80481447  0.83304735  1
  In  In25  1  -0.01599862  0.83413523  0.15769812  1
  In  In26  1  0.31391887  0.66712381  0.35019343  1
  In  In27  1  -0.04089384  0.15864244  0.47923750  1
  In  In28  1  0.16871144  0.64574516  0.84024274  1
  In  In29  1  0.15416507  0.82842295  -0.00294304  1
  In  In30  1  0.84579392  0.51547106  0.34997025  1
  In  In31  1  0.15094926  0.33663106  0.48632432  1
  In  In32  1  0.81225651  0.47377128  0.68397718  1
  In  In33  1  -0.03341974  0.17442144  0.19594834  1
  In  In34  1  0.15914594  0.17178032  0.67127263  1
  In  In35  1  0.33473696  0.50680314  0.82669619  1
  In  In36  1  0.53043674  0.32761232  0.16746373  1
  In  In37  1  0.67728363  0.84005189  0.17817012  1
  In  In38  1  0.81509799  0.31628181  0.17637556  1
  In  In39  1  0.67913268  0.63539482  -0.02228728  1
  In  In40  1  0.84434850  0.46259760  -0.01914962  1
  In  In41  1  -0.00199898  0.68314461  -0.00527055  1
  In  In42  1  0.34142091  0.34479873  -0.00064158  1
  In  In43  1  0.50816767  0.50849909  0.68388537  1
  In  In44  1  -0.02597040  0.64308107  0.65078756  1
  In  In45  1  0.67874814  0.17532801  0.84141440  1
  In  In46  1  0.16342216  0.63313696  0.51263944  1
  In  In47  1  0.82645294  0.64909933  0.17426957  1
  In  In48  1  0.67336138  0.00603695  0.01812789  1
  In  In49  1  0.50146820  -0.02073778  0.82490851  1
  In  In50  1  0.50409242  0.33904532  0.50908980  1
  In  In51  1  0.67725392  0.65022772  0.66400994  1
  In  In52  1  0.16418016  0.82374204  0.33156727  1
  In  In53  1  0.18446933  0.82517841  0.67775765  1
  In  In54  1  0.68420702  0.67288166  0.34610954  1
  In  In55  1  0.15136147  -0.00926828  0.17330328  1
  In  In56  1  -0.01850954  0.02708092  0.65480180  1
  In  In57  1  0.31630457  0.18457619  0.81616449  1
  In  In58  1  0.52573125  0.17662749  0.03590712  1
  In  In59  1  0.84415388  0.00578313  0.82706360  1
  In  In60  1  0.30808466  0.48605483  0.50061045  1
  In  In61  1  0.34032042  0.17549531  0.16100916  1
  In  In62  1  0.52065277  0.47958329  -0.00908303  1
  In  In63  1  -0.00393583  0.84540505  0.82457299  1
  In  In64  1  -0.01224743  0.32378984  0.34094016  1
  In  In65  1  0.50958339  0.15650529  0.63534523  1
  In  In66  1  0.14809537  0.03427860  0.50623864  1
  In  In67  1  0.85269779  0.83860424  0.00543899  1
  In  In68  1  -0.00766465  0.34937525  0.66596859  1
  In  In69  1  -0.00286415  0.18000410  0.82340989  1
  In  In70  1  0.30724933  -0.00143214  0.66089486  1
  In  In71  1  0.32869073  0.00667139  -0.01187310  1
  Te  Te72  1  0.06298491  0.09066454  0.10132684  1
  Te  Te73  1  0.05603746  0.07667284  0.39272414  1
  Te  Te74  1  0.08360446  0.07087214  0.75765588  1
  Te  Te75  1  0.08639609  0.40762337  0.08715074  1
  Te  Te76  1  0.04074040  0.42709111  0.43619993  1
  Te  Te77  1  0.05044900  0.41802119  0.78235057  1
  Te  Te78  1  0.09033864  0.73758969  0.10250321  1
  Te  Te79  1  0.08813951  0.74746778  0.43948125  1
  Te  Te80  1  0.08303702  0.73578957  0.74799161  1
  Te  Te81  1  0.42443088  0.06735516  0.09251113  1
  Te  Te82  1  0.43334081  0.08765919  0.43889915  1
  Te  Te83  1  0.41125543  0.08036230  0.74987969  1
  Te  Te84  1  0.41818689  0.42832575  0.10047415  1
  Te  Te85  1  0.41778902  0.42208658  0.41277418  1
  Te  Te86  1  0.40986431  0.40553435  0.74081198  1
  Te  Te87  1  0.41084110  0.74818567  0.07935756  1
  Te  Te88  1  0.43337379  0.74445104  0.42307289  1
  Te  Te89  1  0.45106725  0.73357691  0.74976455  1
  Te  Te90  1  0.75227287  0.10401012  0.09472897  1
  Te  Te91  1  0.78701784  0.12996176  0.38278894  1
  Te  Te92  1  0.75609838  0.09216411  0.73975195  1
  Te  Te93  1  0.74415712  0.40712619  0.07830010  1
  Te  Te94  1  0.77143878  0.40064183  0.41131767  1
  Te  Te95  1  0.73494374  0.39439998  0.78481465  1
  Te  Te96  1  0.74971179  0.74671461  0.07922874  1
  Te  Te97  1  0.78877659  0.73682907  0.42634568  1
  Te  Te98  1  0.75549430  0.75578369  0.73259021  1
  Te  Te99  1  0.08836735  0.26681441  0.24041124  1
  Te  Te100  1  0.05822702  0.23374456  0.57032583  1
  Te  Te101  1  0.07207616  0.27900230  0.90807567  1
  Te  Te102  1  0.07703349  0.59073696  0.28764538  1
  Te  Te103  1  0.07227634  0.54902370  0.59286074  1
  Te  Te104  1  0.05492047  0.57174154  0.90605045  1
  Te  Te105  1  0.05897656  0.91369884  0.26668453  1
  Te  Te106  1  0.09365938  0.92216745  0.59544052  1
  Te  Te107  1  0.06168717  0.92219161  0.93132024  1
  Te  Te108  1  0.42630587  0.25570377  0.25544123  1
  Te  Te109  1  0.41219447  0.25715942  0.59148257  1
  Te  Te110  1  0.42188087  0.23764995  0.92665789  1
  Te  Te111  1  0.40512434  0.58284529  0.25051684  1
  Te  Te112  1  0.40690434  0.57897895  0.58140600  1
  Te  Te113  1  0.43397461  0.58033496  0.91477359  1
  Te  Te114  1  0.40930898  0.89504118  0.25515527  1
  Te  Te115  1  0.42514002  0.92326992  0.59623999  1
  Te  Te116  1  0.41769346  0.89928331  0.92309919  1
  Te  Te117  1  0.74573871  0.20469464  0.24925919  1
  Te  Te118  1  0.70944677  0.26070856  0.56321646  1
  Te  Te119  1  0.77136234  0.28188549  0.89340811  1
  Te  Te120  1  0.73097461  0.56179676  0.25350572  1
  Te  Te121  1  0.76671661  0.57515143  0.56789226  1
  Te  Te122  1  0.78755911  0.57474366  0.89558219  1
  Te  Te123  1  0.77763127  0.93967163  0.22572408  1
  Te  Te124  1  0.68444117  0.93823029  0.52774132  1
  Te  Te125  1  0.74952108  0.92007452  0.91598923  1
  Te  Te126  1  0.24359155  0.26594804  0.08648231  1
  Te  Te127  1  0.26276843  0.27075665  0.40642809  1
  Te  Te128  1  0.22606010  0.27851610  0.74773364  1
  Te  Te129  1  0.23224431  0.57754653  0.10935202  1
  Te  Te130  1  0.21770011  0.55462839  0.39238824  1
  Te  Te131  1  0.22962055  0.56127230  0.72871636  1
  Te  Te132  1  0.24806213  0.91530379  0.08303530  1
  Te  Te133  1  0.23888756  0.93994901  0.41647615  1
  Te  Te134  1  0.23505142  0.92921474  0.77751518  1
  Te  Te135  1  0.62397174  0.28531886  0.05727737  1
  Te  Te136  1  0.61175759  0.25578651  0.43922005  1
  Te  Te137  1  0.58557632  0.24226950  0.74032259  1
  Te  Te138  1  0.60301395  0.56108821  0.09044182  1
  Te  Te139  1  0.57311197  0.58390823  0.42311667  1
  Te  Te140  1  0.59600281  0.58789744  0.77083105  1
  Te  Te141  1  0.57579808  0.91071031  0.08703594  1
  Te  Te142  1  0.65234745  0.94368199  0.37433113  1
  Te  Te143  1  0.61394853  0.92703971  0.73995518  1
  Te  Te144  1  0.92681417  0.26798211  0.08101009  1
  Te  Te145  1  0.86834246  0.26194424  0.41448395  1
  Te  Te146  1  0.89458846  0.25538576  0.73985226  1
  Te  Te147  1  0.91663110  0.57772525  0.07401098  1
  Te  Te148  1  0.97336193  0.57240749  0.40039652  1
  Te  Te149  1  0.89052595  0.57917800  0.75761760  1
  Te  Te150  1  0.91073845  0.94361475  0.08974923  1
  Te  Te151  1  0.90225546  0.93317153  0.43291756  1
  Te  Te152  1  0.90389581  0.91217922  0.72200784  1
  Te  Te153  1  0.24623666  0.09192756  0.25202493  1
  Te  Te154  1  0.26156962  0.11277828  0.57048660  1
  Te  Te155  1  0.23328896  0.10203876  0.91716492  1
  Te  Te156  1  0.22583138  0.37553186  0.28862271  1
  Te  Te157  1  0.22948305  0.40209928  0.59373831  1
  Te  Te158  1  0.24321677  0.41464045  0.90685070  1
  Te  Te159  1  0.25587003  0.75064449  0.24346025  1
  Te  Te160  1  0.26422081  0.75322389  0.56801404  1
  Te  Te161  1  0.25922260  0.74433212  0.91108065  1
  Te  Te162  1  0.59952354  0.11149918  0.23389515  1
  Te  Te163  1  0.62855736  0.09708618  0.56561922  1
  Te  Te164  1  0.57539604  0.08133847  0.91474075  1
  Te  Te165  1  0.61226284  0.38701573  0.27503814  1
  Te  Te166  1  0.59920014  0.41836825  0.60276916  1
  Te  Te167  1  0.61598175  0.42762144  0.88604245  1
  Te  Te168  1  0.58175996  0.74694467  0.25769254  1
  Te  Te169  1  0.63326398  0.77855243  0.55114317  1
  Te  Te170  1  0.58303853  0.74107048  0.93985684  1
  Te  Te171  1  0.88738720  0.07978939  0.27953243  1
  Te  Te172  1  0.87027596  0.05749308  0.55615706  1
  Te  Te173  1  0.92533224  0.08859609  0.92384952  1
  Te  Te174  1  0.91108538  0.41988349  0.23986960  1
  Te  Te175  1  0.89532098  0.41546727  0.57558380  1
  Te  Te176  1  0.94431037  0.39298585  0.89020163  1
  Te  Te177  1  0.91453872  0.73951156  0.25594494  1
  Te  Te178  1  0.89294015  0.74986374  0.58584216  1
  Te  Te179  1  0.90172021  0.74684423  0.89463236  1
