# generated using pymatgen
data_In2Te3
_symmetry_space_group_name_H-M   'P 1'
_cell_length_a   18.79680887
_cell_length_b   18.79716186
_cell_length_c   18.79689344
_cell_angle_alpha   90.02378655
_cell_angle_beta   89.92801703
_cell_angle_gamma   89.95829166
_symmetry_Int_Tables_number   1
_chemical_formula_structural   In2Te3
_chemical_formula_sum   'In72 Te108'
_cell_volume   6641.43597637
_cell_formula_units_Z   36
loop_
 _symmetry_equiv_pos_site_id
 _symmetry_equiv_pos_as_xyz
  1  'x, y, z'
loop_
 _atom_site_type_symbol
 _atom_site_label
 _atom_site_symmetry_multiplicity
 _atom_site_fract_x
 _atom_site_fract_y
 _atom_site_fract_z
 _atom_site_occupancy
  In  In0  1  0.32095565  0.00761497  0.65544127  1
  In  In1  1  0.66744860  0.01896426  0.31275160  1
  In  In2  1  0.02022164  0.15235164  0.47451455  1
  In  In3  1  0.80195953  0.49682555  0.29941311  1
  In  In4  1  0.48065685  0.00504329  0.48720828  1
  In  In5  1  0.80874799  0.30507138  0.14441871  1
  In  In6  1  0.33361386  0.66971278  -0.00102422  1
  In  In7  1  0.54775921  0.50183067  0.32848900  1
  In  In8  1  0.15187895  0.32690520  0.49078596  1
  In  In9  1  -0.01193992  0.16395588  0.83956108  1
  In  In10  1  -0.01064247  0.65489885  0.33564895  1
  In  In11  1  0.52303528  0.66310890  0.19234115  1
  In  In12  1  0.66045511  0.68680013  0.01331753  1
  In  In13  1  0.81532592  0.47706692  0.01258444  1
  In  In14  1  0.82339757  0.82931432  0.34303425  1
  In  In15  1  0.16201808  0.32100112  0.83209581  1
  In  In16  1  0.35300909  0.86548684  0.15237529  1
  In  In17  1  -0.01973626  0.48179309  0.86410043  1
  In  In18  1  0.52842537  0.01640545  0.13489428  1
  In  In19  1  0.14759853  0.15162751  0.66559687  1
  In  In20  1  0.83691150  0.68703330  0.83106059  1
  In  In21  1  0.34447594  0.48469179  0.13335292  1
  In  In22  1  0.16975557  0.67110603  0.52646729  1
  In  In23  1  0.00732600  0.84831332  0.51258560  1
  In  In24  1  0.34205798  0.49863521  0.51080019  1
  In  In25  1  0.82301907  0.49124927  0.66208548  1
  In  In26  1  0.35989365  0.34256565  0.66085536  1
  In  In27  1  -0.01727890  0.17275178  0.17103940  1
  In  In28  1  0.12501908  0.70002758  0.83516410  1
  In  In29  1  0.83916578  0.67322522  0.48718924  1
  In  In30  1  0.51955647  0.67320344  0.86907155  1
  In  In31  1  0.34167055  0.14304298  0.16910973  1
  In  In32  1  0.85247101  0.14904581  0.66980782  1
  In  In33  1  0.83522706  0.01829033  0.50149618  1
  In  In34  1  0.51440436  0.17818084  0.66460718  1
  In  In35  1  0.34566879  0.84295665  0.47246030  1
  In  In36  1  0.66474040  0.33040521  0.67911219  1
  In  In37  1  0.80400740  0.00472828  0.87320594  1
  In  In38  1  0.15065372  0.46653516  0.02356436  1
  In  In39  1  0.14680135  0.85272206  -0.00236044  1
  In  In40  1  0.67668588  0.68946925  0.67945243  1
  In  In41  1  0.14608398  0.52020380  0.68098077  1
  In  In42  1  0.68965181  0.32269389  0.32674641  1
  In  In43  1  0.47066420  0.49765915  0.66467629  1
  In  In44  1  0.34816718  0.66550922  0.64797827  1
  In  In45  1  0.50167374  0.34075365  0.50359255  1
  In  In46  1  0.33919453  0.48306741  0.78354357  1
  In  In47  1  0.32306066  0.30988963  0.32175986  1
  In  In48  1  -0.02740907  0.83965597  0.84138838  1
  In  In49  1  0.84934426  0.33673267  0.48565513  1
  In  In50  1  -0.01767267  0.85197589  0.15661687  1
  In  In51  1  0.34785922  0.32766624  -0.01149064  1
  In  In52  1  0.66119772  0.49017587  0.84072206  1
  In  In53  1  0.15047958  0.66784967  0.20208415  1
  In  In54  1  0.66656624  0.16863618  0.48653608  1
  In  In55  1  0.84019755  0.02285484  0.14866474  1
  In  In56  1  -0.02534382  0.65534278  -0.00577842  1
  In  In57  1  0.35969727  0.67144930  0.35064194  1
  In  In58  1  0.50642524  0.47446824  -0.01046479  1
  In  In59  1  0.52332129  0.84610324  -0.00716934  1
  In  In60  1  0.16266257  -0.01294698  0.16752803  1
  In  In61  1  0.00872881  0.66976161  0.65572514  1
  In  In62  1  0.16718781  0.15413416  0.00333308  1
  In  In63  1  0.67830956  -0.00334197  0.69829723  1
  In  In64  1  0.33686349  0.16379823  0.84966653  1
  In  In65  1  0.17618093  0.84657053  0.33037749  1
  In  In66  1  0.53699416  0.01819866  0.85205114  1
  In  In67  1  0.67595078  0.82838351  0.50237113  1
  In  In68  1  0.33960058  -0.00545908  0.31812321  1
  In  In69  1  0.14771630  0.48648542  0.34123728  1
  In  In70  1  0.34997958  0.85160230  0.81624969  1
  In  In71  1  0.13720210  0.32181114  0.17143820  1
  Te  Te72  1  0.06923665  0.07178933  0.08372954  1
  Te  Te73  1  0.12568319  0.07368018  0.40671340  1
  Te  Te74  1  0.08078068  0.07044328  0.76972245  1
  Te  Te75  1  0.04003936  0.40785166  0.09900296  1
  Te  Te76  1  0.05240628  0.39490573  0.40443322  1
  Te  Te77  1  0.06688279  0.41325072  0.75541655  1
  Te  Te78  1  0.08044157  0.74524366  0.08553019  1
  Te  Te79  1  0.08670391  0.74523813  0.41274585  1
  Te  Te80  1  0.08418707  0.78971897  0.71823539  1
  Te  Te81  1  0.41852181  0.08194444  0.05882312  1
  Te  Te82  1  0.41556692  0.09652424  0.39360368  1
  Te  Te83  1  0.42903383  0.08047833  0.74795286  1
  Te  Te84  1  0.44722692  0.38013862  0.09655198  1
  Te  Te85  1  0.41339983  0.41736944  0.40323390  1
  Te  Te86  1  0.45406379  0.38429771  0.77223274  1
  Te  Te87  1  0.43611556  0.74638850  0.08256534  1
  Te  Te88  1  0.45340450  0.77458553  0.39616391  1
  Te  Te89  1  0.43037581  0.73520353  0.75958193  1
  Te  Te90  1  0.73288707  0.09992425  0.07128819  1
  Te  Te91  1  0.76882928  0.10272840  0.39488908  1
  Te  Te92  1  0.74476592  0.11088479  0.77272838  1
  Te  Te93  1  0.71200356  0.41368416  0.10086420  1
  Te  Te94  1  0.73831339  0.42478367  0.42752039  1
  Te  Te95  1  0.76574046  0.40137520  0.77088280  1
  Te  Te96  1  0.74497458  0.72371251  0.13212125  1
  Te  Te97  1  0.72485583  0.72494848  0.40008684  1
  Te  Te98  1  0.77413671  0.78542776  0.74027831  1
  Te  Te99  1  0.07632740  0.23365891  0.27117305  1
  Te  Te100  1  0.06312005  0.25256537  0.58992594  1
  Te  Te101  1  0.07668112  0.25699228  0.93647247  1
  Te  Te102  1  0.05499930  0.55635809  0.23824349  1
  Te  Te103  1  0.06534630  0.56477917  0.55827624  1
  Te  Te104  1  0.09463573  0.57537588  0.92212233  1
  Te  Te105  1  0.06205373  0.92382728  0.26457041  1
  Te  Te106  1  0.10261921  0.90117174  0.60863825  1
  Te  Te107  1  0.06784625  0.93397975  0.90414433  1
  Te  Te108  1  0.42529054  0.24521877  0.23673490  1
  Te  Te109  1  0.41134832  0.23457508  0.56621480  1
  Te  Te110  1  0.44201903  0.23386192  0.92472618  1
  Te  Te111  1  0.41059156  0.56819329  0.24519867  1
  Te  Te112  1  0.45031166  0.60542176  0.54715529  1
  Te  Te113  1  0.40878077  0.56829068  0.91242084  1
  Te  Te114  1  0.45542646  0.92523439  0.24366969  1
  Te  Te115  1  0.42088844  0.90954896  0.58930049  1
  Te  Te116  1  0.42397283  0.93505926  0.92090406  1
  Te  Te117  1  0.73476648  0.21148208  0.23692448  1
  Te  Te118  1  0.75448921  0.24695443  0.58426981  1
  Te  Te119  1  0.72250874  0.22704083  0.97350067  1
  Te  Te120  1  0.72023404  0.60472276  0.23604161  1
  Te  Te121  1  0.74558432  0.59308448  0.58208048  1
  Te  Te122  1  0.74774484  0.59345656  0.91584140  1
  Te  Te123  1  0.76051689  0.92300588  0.24052746  1
  Te  Te124  1  0.75971950  0.92266265  0.58984332  1
  Te  Te125  1  0.70914896  0.91672843  0.94774095  1
  Te  Te126  1  0.25184893  0.25641997  0.08520442  1
  Te  Te127  1  0.24954268  0.23642167  0.42622976  1
  Te  Te128  1  0.26027869  0.24961848  0.73972227  1
  Te  Te129  1  0.23791313  0.59241069  0.08993159  1
  Te  Te130  1  0.24534398  0.58817477  0.41325849  1
  Te  Te131  1  0.24469631  0.61073406  0.75273852  1
  Te  Te132  1  0.26004044  0.93873344  0.05890634  1
  Te  Te133  1  0.23505682  0.94464934  0.43011876  1
  Te  Te134  1  0.24142986  0.93037444  0.75496881  1
  Te  Te135  1  0.61318614  0.20656617  0.07235250  1
  Te  Te136  1  0.57225419  0.25163806  0.40280876  1
  Te  Te137  1  0.60633551  0.22779240  0.76906547  1
  Te  Te138  1  0.57914161  0.57477637  0.07963621  1
  Te  Te139  1  0.55868576  0.60063048  0.43227992  1
  Te  Te140  1  0.57514060  0.58133244  0.75311542  1
  Te  Te141  1  0.62621115  0.91113471  0.08173837  1
  Te  Te142  1  0.59878669  0.93335193  0.41836380  1
  Te  Te143  1  0.56861372  0.91403449  0.75144873  1
  Te  Te144  1  0.90299017  0.22534829  0.05422113  1
  Te  Te145  1  0.92151359  0.23822929  0.40128719  1
  Te  Te146  1  0.91497482  0.25589730  0.74938956  1
  Te  Te147  1  0.90515782  0.56891526  0.08884327  1
  Te  Te148  1  0.90007551  0.55909375  0.40946885  1
  Te  Te149  1  0.92688819  0.58752177  0.75786884  1
  Te  Te150  1  0.90709033  0.92598170  0.05514769  1
  Te  Te151  1  0.91981774  0.92409809  0.41409782  1
  Te  Te152  1  0.88157209  0.93014679  0.76703311  1
  Te  Te153  1  0.22872580  0.08992864  0.25900498  1
  Te  Te154  1  0.24458773  0.09841079  0.56632304  1
  Te  Te155  1  0.23208370  0.07232077  0.89767812  1
  Te  Te156  1  0.24572941  0.42281841  0.23935176  1
  Te  Te157  1  0.23966314  0.42346668  0.59619581  1
  Te  Te158  1  0.25275933  0.42489642  0.90976957  1
  Te  Te159  1  0.26976639  0.76471755  0.23841381  1
  Te  Te160  1  0.26167444  0.77470529  0.58466358  1
  Te  Te161  1  0.25149667  0.76438422  0.91280928  1
  Te  Te162  1  0.58459595  0.11563754  0.23429507  1
  Te  Te163  1  0.59433168  0.07376379  0.58293489  1
  Te  Te164  1  0.62067777  0.09533337  0.95308187  1
  Te  Te165  1  0.60481850  0.40636636  0.23198118  1
  Te  Te166  1  0.58947212  0.42848249  0.58987527  1
  Te  Te167  1  0.61234680  0.38591550  0.93462126  1
  Te  Te168  1  0.63265523  0.75062431  0.23856923  1
  Te  Te169  1  0.58095907  0.76754461  0.59873160  1
  Te  Te170  1  0.62632463  0.78013428  0.89190952  1
  Te  Te171  1  0.92135043  0.07235496  0.26142704  1
  Te  Te172  1  0.95019815  0.06656035  0.58737215  1
  Te  Te173  1  0.89601455  0.10275606  0.94206648  1
  Te  Te174  1  0.88646623  0.39117492  0.24080512  1
  Te  Te175  1  0.92340591  0.41459607  0.58833591  1
  Te  Te176  1  0.89410397  0.38214853  0.92917571  1
  Te  Te177  1  0.91165636  0.74795301  0.24473525  1
  Te  Te178  1  0.90587092  0.76203783  0.58913586  1
  Te  Te179  1  0.88583957  0.77152612  0.94983989  1
