# generated using pymatgen
data_In2Te3
_symmetry_space_group_name_H-M   'P 1'
_cell_length_a   18.75246409
_cell_length_b   18.73892090
_cell_length_c   18.75017097
_cell_angle_alpha   89.99878561
_cell_angle_beta   90.08917398
_cell_angle_gamma   90.01277469
_symmetry_Int_Tables_number   1
_chemical_formula_structural   In2Te3
_chemical_formula_sum   'In72 Te108'
_cell_volume   6588.81958310
_cell_formula_units_Z   36
loop_
 _symmetry_equiv_pos_site_id
 _symmetry_equiv_pos_as_xyz
  1  'x, y, z'
loop_
 _atom_site_type_symbol
 _atom_site_label
 _atom_site_symmetry_multiplicity
 _atom_site_fract_x
 _atom_site_fract_y
 _atom_site_fract_z
 _atom_site_occupancy
  In  In0  1  0.65924715  0.12423462  0.18884077  1
  In  In1  1  0.32440573  0.15854829  0.82724035  1
  In  In2  1  0.02341122  0.30068598  0.32364369  1
  In  In3  1  0.84358975  0.14970158  0.32282052  1
  In  In4  1  0.35508007  0.15782380  0.47734535  1
  In  In5  1  0.16524044  0.50710437  0.66493999  1
  In  In6  1  0.32339692  0.66857555  0.32554945  1
  In  In7  1  0.65173059  0.67981242  0.67086273  1
  In  In8  1  0.49505243  0.51212353  -0.01145102  1
  In  In9  1  0.32931716  0.85550176  0.51536961  1
  In  In10  1  0.48555124  0.66423880  0.15590347  1
  In  In11  1  0.48932240  0.32648431  0.19172799  1
  In  In12  1  0.49704476  -0.02373794  0.20135788  1
  In  In13  1  0.63930787  0.48544032  0.49975336  1
  In  In14  1  0.17424646  0.70410768  0.50521996  1
  In  In15  1  0.65965394  -0.00295925  0.32943111  1
  In  In16  1  0.83854505  0.48997955  0.68002074  1
  In  In17  1  0.48948714  0.84940758  0.34153836  1
  In  In18  1  0.85743376  0.31060911  0.14641852  1
  In  In19  1  0.30926359  0.32228197  0.02298425  1
  In  In20  1  0.87040529  0.00472602  0.16408911  1
  In  In21  1  0.32654695  0.83577671  0.82670322  1
  In  In22  1  0.65624890  0.16148775  0.57618246  1
  In  In23  1  0.49253813  0.00506856  0.80792830  1
  In  In24  1  0.51383614  0.33378348  0.82024013  1
  In  In25  1  0.15598540  0.68260028  0.15323562  1
  In  In26  1  0.51756287  0.17084841  -0.00192645  1
  In  In27  1  0.64446097  0.30884887  0.34475363  1
  In  In28  1  0.85161862  0.85508431  0.68257568  1
  In  In29  1  0.19140339  0.33171869  0.49015575  1
  In  In30  1  0.64194764  0.64285462  0.34953419  1
  In  In31  1  -0.00083605  0.14516146  0.50292457  1
  In  In32  1  0.86881064  0.82365539  0.33549731  1
  In  In33  1  -0.01073842  0.48414360  0.82478488  1
  In  In34  1  0.84321938  0.69485217  0.16254919  1
  In  In35  1  0.87746729  0.16874073  -0.02019217  1
  In  In36  1  0.01211945  0.85249631  0.50067366  1
  In  In37  1  0.68861176  0.81344938  0.15603286  1
  In  In38  1  0.17192691  0.49120824  0.01234843  1
  In  In39  1  0.13481255  0.15564905  -0.03537033  1
  In  In40  1  0.84730848  -0.00327866  0.50704796  1
  In  In41  1  0.01521652  0.48314563  0.15896561  1
  In  In42  1  0.14994985  -0.01412848  0.17697975  1
  In  In43  1  0.48540502  0.33507834  0.50881706  1
  In  In44  1  0.34918714  0.50141217  0.82841038  1
  In  In45  1  0.85928277  0.85694669  -0.02479121  1
  In  In46  1  0.66223398  0.34510282  -0.01218277  1
  In  In47  1  0.15071198  0.15165211  0.69401363  1
  In  In48  1  -0.01925527  0.47286489  0.53433257  1
  In  In49  1  0.48459771  0.81319165  -0.00887260  1
  In  In50  1  0.82836637  0.50989931  -0.04492412  1
  In  In51  1  0.33132694  0.00193924  0.67762386  1
  In  In52  1  0.32674062  0.15284130  0.19496132  1
  In  In53  1  0.64860496  0.48405129  0.16077086  1
  In  In54  1  0.36509438  0.51052088  0.51953041  1
  In  In55  1  0.49078508  0.67410998  0.81195636  1
  In  In56  1  0.80219287  0.48338831  0.33644550  1
  In  In57  1  0.65872302  0.85278653  0.82454814  1
  In  In58  1  0.31511730  0.01031274  0.02432966  1
  In  In59  1  0.00444562  0.67516957  0.68941571  1
  In  In60  1  0.69038100  0.15618902  0.78959238  1
  In  In61  1  0.16330821  0.00018413  0.49192248  1
  In  In62  1  -0.01534970  0.69450761  0.34475459  1
  In  In63  1  0.65216375  0.82915776  0.51861904  1
  In  In64  1  -0.00265262  0.68375180  0.00056272  1
  In  In65  1  0.17396759  0.67397195  0.83227594  1
  In  In66  1  0.81752758  0.67047430  0.48858068  1
  In  In67  1  0.30517099  0.50279647  0.18284515  1
  In  In68  1  0.68494796  -0.01173115  0.00058658  1
  In  In69  1  0.83899445  0.32823448  0.82168937  1
  In  In70  1  -0.00461522  0.31299058  0.68665389  1
  In  In71  1  0.17793038  0.49217965  0.32517835  1
  Te  Te72  1  0.07297843  0.06294321  0.06826730  1
  Te  Te73  1  0.09441587  0.09661569  0.40007009  1
  Te  Te74  1  0.05983763  0.07921201  0.78916268  1
  Te  Te75  1  0.08251016  0.38347463  0.06812576  1
  Te  Te76  1  0.07479086  0.41859496  0.42099077  1
  Te  Te77  1  0.09892154  0.40347283  0.75644044  1
  Te  Te78  1  0.10468533  0.77778845  0.04687424  1
  Te  Te79  1  0.10337033  0.78296978  0.39541484  1
  Te  Te80  1  0.09605175  0.77257755  0.75070136  1
  Te  Te81  1  0.43374759  0.08623006  0.09348511  1
  Te  Te82  1  0.43293641  0.06343759  0.39456465  1
  Te  Te83  1  0.43190264  0.11994036  0.72704492  1
  Te  Te84  1  0.41880786  0.41786321  0.08350081  1
  Te  Te85  1  0.40001579  0.41355142  0.41405899  1
  Te  Te86  1  0.42546532  0.41653001  0.73367083  1
  Te  Te87  1  0.39774027  0.76937308  0.10138904  1
  Te  Te88  1  0.40468466  0.75167365  0.42395444  1
  Te  Te89  1  0.41805491  0.77318866  0.72902034  1
  Te  Te90  1  0.76502375  0.09222736  0.08029024  1
  Te  Te91  1  0.74795015  0.08267125  0.42199022  1
  Te  Te92  1  0.78908699  0.07552650  0.71702754  1
  Te  Te93  1  0.76390292  0.41904650  0.08404791  1
  Te  Te94  1  0.74293201  0.38716854  0.43724090  1
  Te  Te95  1  0.73784974  0.41193418  0.75425936  1
  Te  Te96  1  0.76387241  0.74646852  0.04195951  1
  Te  Te97  1  0.73684966  0.76914779  0.40112546  1
  Te  Te98  1  0.75565082  0.75605109  0.75255655  1
  Te  Te99  1  0.12598992  0.26891282  0.22427725  1
  Te  Te100  1  0.08783784  0.25344924  0.57716223  1
  Te  Te101  1  0.05845383  0.27967379  0.93622007  1
  Te  Te102  1  0.07501975  0.59068731  0.25631307  1
  Te  Te103  1  0.07156557  0.59586684  0.57394960  1
  Te  Te104  1  0.08068378  0.57337024  0.91550179  1
  Te  Te105  1  0.06318327  0.89542379  0.25890287  1
  Te  Te106  1  0.08340774  0.93534792  0.59943834  1
  Te  Te107  1  0.04681073  0.94547589  0.88689161  1
  Te  Te108  1  0.39229658  0.25865516  0.28010103  1
  Te  Te109  1  0.40492855  0.23898022  0.59148245  1
  Te  Te110  1  0.41673418  0.25539349  0.92152129  1
  Te  Te111  1  0.41951661  0.57005665  0.25707396  1
  Te  Te112  1  0.45645001  0.60356882  0.59082196  1
  Te  Te113  1  0.40107024  0.61151172  0.92218297  1
  Te  Te114  1  0.37843955  0.90859972  0.25884441  1
  Te  Te115  1  0.43169741  0.94564954  0.58095718  1
  Te  Te116  1  0.42028823  0.93678237  0.92430204  1
  Te  Te117  1  0.74803054  0.25169292  0.24548940  1
  Te  Te118  1  0.76139550  0.26198745  0.58331230  1
  Te  Te119  1  0.74587927  0.23632439  0.92095065  1
  Te  Te120  1  0.75233048  0.59764187  0.24530719  1
  Te  Te121  1  0.74493342  0.57671702  0.58255142  1
  Te  Te122  1  0.72286574  0.60318865  0.92785798  1
  Te  Te123  1  0.76284950  0.92001588  0.24248357  1
  Te  Te124  1  0.74510150  0.92293282  0.59472517  1
  Te  Te125  1  0.76944971  0.94337402  0.88314311  1
  Te  Te126  1  0.23464305  0.20539607  0.08214347  1
  Te  Te127  1  0.24728105  0.22986601  0.39950739  1
  Te  Te128  1  0.23627623  0.25476888  0.75792126  1
  Te  Te129  1  0.26052209  0.59857904  0.07561860  1
  Te  Te130  1  0.24128886  0.58248365  0.43526565  1
  Te  Te131  1  0.26632440  0.59541461  0.73726659  1
  Te  Te132  1  0.22686358  0.90317469  0.07531411  1
  Te  Te133  1  0.26741000  0.93625958  0.40455086  1
  Te  Te134  1  0.23097883  0.92255470  0.75164817  1
  Te  Te135  1  0.59364422  0.25598092  0.10075127  1
  Te  Te136  1  0.58117995  0.22562037  0.45220083  1
  Te  Te137  1  0.59505149  0.25015045  0.72429960  1
  Te  Te138  1  0.59588239  0.59655085  0.07288221  1
  Te  Te139  1  0.54018107  0.58344346  0.44066394  1
  Te  Te140  1  0.56859058  0.57311868  0.73335514  1
  Te  Te141  1  0.58437366  0.91056048  0.08553197  1
  Te  Te142  1  0.57194732  0.93568255  0.43956478  1
  Te  Te143  1  0.57980558  0.92276768  0.71586270  1
  Te  Te144  1  0.95612804  0.20844566  0.10252701  1
  Te  Te145  1  0.91770030  0.24620716  0.41707660  1
  Te  Te146  1  0.91064305  0.21294921  0.75838627  1
  Te  Te147  1  0.91737711  0.57808316  0.08573137  1
  Te  Te148  1  0.90723138  0.57137109  0.41385655  1
  Te  Te149  1  0.90069133  0.59713914  0.77034763  1
  Te  Te150  1  0.95495524  0.94067386  0.05744237  1
  Te  Te151  1  0.94022123  0.94430815  0.39807013  1
  Te  Te152  1  0.96465775  0.91544466  0.75694270  1
  Te  Te153  1  0.24057486  0.05883277  0.27372891  1
  Te  Te154  1  0.24740794  0.09690395  0.58753784  1
  Te  Te155  1  0.23772221  0.05834729  0.90131845  1
  Te  Te156  1  0.23343607  0.38272001  0.23553610  1
  Te  Te157  1  0.26539533  0.41641460  0.59363515  1
  Te  Te158  1  0.25391182  0.41073064  0.91064699  1
  Te  Te159  1  0.24043138  0.76162605  0.24679958  1
  Te  Te160  1  0.26016634  0.76160098  0.60955536  1
  Te  Te161  1  0.24538642  0.76307162  0.92879189  1
  Te  Te162  1  0.54043488  0.10235230  0.28727679  1
  Te  Te163  1  0.56772584  0.04868977  0.60997307  1
  Te  Te164  1  0.59552575  0.08116527  0.90277166  1
  Te  Te165  1  0.57181796  0.42765740  0.27818009  1
  Te  Te166  1  0.57176598  0.40959439  0.60695383  1
  Te  Te167  1  0.59519432  0.44395347  0.89486615  1
  Te  Te168  1  0.58067609  0.75420211  0.25109731  1
  Te  Te169  1  0.54826946  0.73524327  0.57401985  1
  Te  Te170  1  0.59238373  0.74427560  0.90955659  1
  Te  Te171  1  0.95782786  0.09501881  0.24575230  1
  Te  Te172  1  0.90771206  0.08825251  0.61167999  1
  Te  Te173  1  0.94345046  0.06211418  0.89692662  1
  Te  Te174  1  0.91554191  0.40929655  0.25774977  1
  Te  Te175  1  0.88140114  0.36578417  0.59043352  1
  Te  Te176  1  0.93025387  0.38884007  0.93175226  1
  Te  Te177  1  0.95920174  0.78776748  0.21083120  1
  Te  Te178  1  0.91455209  0.75213926  0.57442642  1
  Te  Te179  1  0.92598554  0.75362030  0.89159760  1
