# generated using pymatgen
data_In2Te3
_symmetry_space_group_name_H-M   'P 1'
_cell_length_a   18.90030710
_cell_length_b   18.89902373
_cell_length_c   18.90665769
_cell_angle_alpha   90.01720243
_cell_angle_beta   90.26019580
_cell_angle_gamma   89.85725255
_symmetry_Int_Tables_number   1
_chemical_formula_structural   In2Te3
_chemical_formula_sum   'In72 Te108'
_cell_volume   6753.31718986
_cell_formula_units_Z   36
loop_
 _symmetry_equiv_pos_site_id
 _symmetry_equiv_pos_as_xyz
  1  'x, y, z'
loop_
 _atom_site_type_symbol
 _atom_site_label
 _atom_site_symmetry_multiplicity
 _atom_site_fract_x
 _atom_site_fract_y
 _atom_site_fract_z
 _atom_site_occupancy
  In  In0  1  0.17438157  0.34216947  0.50253683  1
  In  In1  1  0.82038870  0.01207704  0.82445189  1
  In  In2  1  0.46693906  0.47192947  0.35588849  1
  In  In3  1  0.66020141  0.33467917  0.32951149  1
  In  In4  1  0.31795042  0.36902388  0.65662065  1
  In  In5  1  0.84236000  0.01659742  0.16457369  1
  In  In6  1  0.64536920  0.50143851  0.51827214  1
  In  In7  1  0.34555517  0.51467201  0.84318253  1
  In  In8  1  0.00522941  0.50730381  0.49862213  1
  In  In9  1  0.50557451  0.64053163  0.17071478  1
  In  In10  1  -0.01452033  0.16335907  0.83034533  1
  In  In11  1  0.00337422  0.67966774  -0.00839990  1
  In  In12  1  0.50379175  0.82372421  -0.00765494  1
  In  In13  1  0.47523067  0.33838937  0.81667156  1
  In  In14  1  0.84028530  0.86075573  -0.02768453  1
  In  In15  1  0.66116620  0.34078281  -0.01148640  1
  In  In16  1  0.20022554  -0.02627437  0.49183797  1
  In  In17  1  0.69536642  0.65445774  0.33933226  1
  In  In18  1  0.82640932  0.67728999  0.50758516  1
  In  In19  1  0.17992130  0.16246256  0.02220659  1
  In  In20  1  0.14085286  0.34639072  0.82222717  1
  In  In21  1  0.66084809  0.49578266  0.79915869  1
  In  In22  1  0.49257918  0.32573810  0.16294816  1
  In  In23  1  -0.00344646  0.83861161  0.83551275  1
  In  In24  1  0.33438705  0.83528808  0.19645441  1
  In  In25  1  0.31707370  0.82743296  0.84276762  1
  In  In26  1  0.83539825  0.81631883  0.66138611  1
  In  In27  1  0.03312446  0.67404356  0.37435024  1
  In  In28  1  0.02599241  0.84216081  0.19687835  1
  In  In29  1  0.17602899  0.68170849  0.50371730  1
  In  In30  1  0.85282693  0.16289792  0.32993846  1
  In  In31  1  0.51146664  0.16674701  0.36568555  1
  In  In32  1  0.83950666  0.48155991  0.30862235  1
  In  In33  1  0.79919749  0.31303995  0.52914949  1
  In  In34  1  0.49224191  -0.01805709  0.14833158  1
  In  In35  1  0.32945783  -0.00786997  0.01269394  1
  In  In36  1  0.51507254  0.17676363  0.65732912  1
  In  In37  1  0.81222797  0.00517221  0.51154988  1
  In  In38  1  0.35211812  0.64652023  0.65432008  1
  In  In39  1  -0.02520119  0.53263903  0.80320075  1
  In  In40  1  -0.02544237  0.15350275  0.49745253  1
  In  In41  1  0.50046671  0.68322731  0.50393110  1
  In  In42  1  0.65072426  -0.01626851  0.35031777  1
  In  In43  1  0.16812292  0.68199762  0.84308363  1
  In  In44  1  0.32551673  0.49680828  0.17212286  1
  In  In45  1  0.01724087  -0.00745472  -0.00951407  1
  In  In46  1  -0.00539853  0.32872486  0.02264698  1
  In  In47  1  0.15288330  0.82960658  0.66080816  1
  In  In48  1  0.81288965  0.34100010  0.82245467  1
  In  In49  1  0.67300131  0.84501199  0.16265586  1
  In  In50  1  -0.01062141  0.34432336  0.67817169  1
  In  In51  1  0.00441602  -0.00817544  0.35099714  1
  In  In52  1  0.32648929  0.16420946  0.84941301  1
  In  In53  1  0.00908514  0.47951494  0.15486437  1
  In  In54  1  0.33906133  -0.02576886  0.66685335  1
  In  In55  1  0.83830484  0.66803602  0.17178706  1
  In  In56  1  0.82883587  0.81944744  0.36697182  1
  In  In57  1  0.65473146  0.66792348  -0.01465492  1
  In  In58  1  0.34449838  0.18236975  0.52203934  1
  In  In59  1  0.50483400  0.84045337  0.65075504  1
  In  In60  1  0.49575033  0.83709670  0.33457688  1
  In  In61  1  0.17541027  0.50925607  0.33410446  1
  In  In62  1  0.14310781  0.19826629  0.31092154  1
  In  In63  1  0.18909084  0.66186861  0.17709338  1
  In  In64  1  0.33676805  0.32636416  0.00473238  1
  In  In65  1  0.33348804  0.15512458  0.19051469  1
  In  In66  1  0.50434297  0.65584159  0.83151281  1
  In  In67  1  0.68104489  0.15332980  0.16488055  1
  In  In68  1  0.82687148  0.47488481  -0.01310559  1
  In  In69  1  0.66658054  0.17042515  0.83387254  1
  In  In70  1  0.14640686  0.16292127  0.68821611  1
  In  In71  1  0.52093468  -0.00319217  0.79962548  1
  Te  Te72  1  0.10400813  0.05759398  0.09028336  1
  Te  Te73  1  0.09266424  0.09667265  0.42325875  1
  Te  Te74  1  0.07177316  0.06443494  0.76456199  1
  Te  Te75  1  0.10251640  0.41875386  0.06098653  1
  Te  Te76  1  0.07916823  0.41284345  0.40614011  1
  Te  Te77  1  0.08559944  0.45071243  0.72741319  1
  Te  Te78  1  0.08954920  0.74796473  0.09541301  1
  Te  Te79  1  0.10973258  0.79257338  0.42295044  1
  Te  Te80  1  0.06570491  0.73788407  0.74484496  1
  Te  Te81  1  0.41867764  0.09590291  0.07926905  1
  Te  Te82  1  0.41434531  0.08428096  0.43633513  1
  Te  Te83  1  0.41138415  0.09734055  0.73795685  1
  Te  Te84  1  0.42461770  0.42804109  0.07412063  1
  Te  Te85  1  0.37544117  0.37997002  0.42304419  1
  Te  Te86  1  0.42506611  0.45081505  0.72896174  1
  Te  Te87  1  0.42920745  0.75502157  0.10424431  1
  Te  Te88  1  0.40395913  0.75808946  0.41933117  1
  Te  Te89  1  0.41411444  0.75996950  0.74824845  1
  Te  Te90  1  0.74969692  0.07050131  0.06469645  1
  Te  Te91  1  0.74302627  0.09193264  0.40566937  1
  Te  Te92  1  0.74056947  0.09602336  0.72685034  1
  Te  Te93  1  0.75849105  0.39416723  0.08645367  1
  Te  Te94  1  0.74968695  0.42059873  0.42036620  1
  Te  Te95  1  0.74211865  0.40762941  0.71240555  1
  Te  Te96  1  0.75682025  0.75310186  0.07391365  1
  Te  Te97  1  0.71250990  0.76343242  0.44354684  1
  Te  Te98  1  0.78692016  0.71689991  0.75875356  1
  Te  Te99  1  0.05654504  0.26461179  0.20468512  1
  Te  Te100  1  0.07527037  0.25447253  0.58680110  1
  Te  Te101  1  0.09327905  0.23572802  0.91455551  1
  Te  Te102  1  0.06645543  0.58988396  0.25008965  1
  Te  Te103  1  0.06698360  0.61402757  0.57933104  1
  Te  Te104  1  0.07870024  0.57686070  0.91030441  1
  Te  Te105  1  0.11259026  0.94090131  0.26293709  1
  Te  Te106  1  0.09346216  0.94182879  0.58601780  1
  Te  Te107  1  0.09731752  0.88409850  0.93206256  1
  Te  Te108  1  0.42202572  0.24879954  0.27210786  1
  Te  Te109  1  0.42145272  0.31583822  0.55610890  1
  Te  Te110  1  0.43341085  0.24048613  0.92495479  1
  Te  Te111  1  0.40522366  0.58422183  0.26923011  1
  Te  Te112  1  0.42371108  0.56736332  0.55374901  1
  Te  Te113  1  0.41541464  0.60512431  0.93522225  1
  Te  Te114  1  0.41031691  0.94732737  0.26966364  1
  Te  Te115  1  0.43141157  0.93393823  0.55969527  1
  Te  Te116  1  0.42341805  0.92565369  0.90689500  1
  Te  Te117  1  0.75910308  0.25304790  0.24810825  1
  Te  Te118  1  0.73374664  0.19494459  0.59315949  1
  Te  Te119  1  0.76413534  0.24509225  0.92784488  1
  Te  Te120  1  0.74104593  0.56400623  0.22460635  1
  Te  Te121  1  0.75511081  0.57609399  0.58886809  1
  Te  Te122  1  0.74431320  0.57142954  0.90497058  1
  Te  Te123  1  0.76854841  0.91874515  0.26413043  1
  Te  Te124  1  0.73646612  0.90517975  0.59155500  1
  Te  Te125  1  0.73198610  0.91365625  0.89004517  1
  Te  Te126  1  0.25331338  0.26087650  0.11188491  1
  Te  Te127  1  0.25064422  0.24372665  0.41597434  1
  Te  Te128  1  0.25719224  0.26198790  0.74936734  1
  Te  Te129  1  0.24776998  0.57708453  0.07431785  1
  Te  Te130  1  0.25613060  0.57153279  0.44216326  1
  Te  Te131  1  0.24963393  0.59009637  0.75127060  1
  Te  Te132  1  0.24861536  0.91394789  0.10548410  1
  Te  Te133  1  0.25523808  0.86396658  0.41057138  1
  Te  Te134  1  0.23223548  0.92047856  0.75833458  1
  Te  Te135  1  0.58785591  0.24216819  0.08110615  1
  Te  Te136  1  0.58609696  0.27125317  0.44363146  1
  Te  Te137  1  0.59212002  0.27355432  0.74579081  1
  Te  Te138  1  0.59784849  0.57235856  0.08002725  1
  Te  Te139  1  0.57965787  0.57898006  0.40253916  1
  Te  Te140  1  0.58073923  0.59472281  0.71987130  1
  Te  Te141  1  0.60033664  0.92591193  0.05717517  1
  Te  Te142  1  0.56876778  0.90759213  0.44379372  1
  Te  Te143  1  0.61449822  0.92396578  0.71036037  1
  Te  Te144  1  0.94443124  0.22347960  0.10938877  1
  Te  Te145  1  0.90628440  0.26798049  0.42626139  1
  Te  Te146  1  0.89594279  0.24200764  0.73706522  1
  Te  Te147  1  0.91276975  0.58032066  0.07139066  1
  Te  Te148  1  0.90411303  0.58354494  0.40247112  1
  Te  Te149  1  0.86909861  0.59600217  0.71762397  1
  Te  Te150  1  0.92154459  0.90162521  0.09669961  1
  Te  Te151  1  0.91840735  0.91133016  0.44558033  1
  Te  Te152  1  0.91512710  0.92554857  0.74324114  1
  Te  Te153  1  0.23002347  0.08542257  0.26853641  1
  Te  Te154  1  0.24579858  0.08690692  0.59765087  1
  Te  Te155  1  0.23690122  0.06453491  0.91372440  1
  Te  Te156  1  0.23942758  0.40797210  0.25046074  1
  Te  Te157  1  0.23796741  0.45935509  0.56861272  1
  Te  Te158  1  0.25472726  0.40701901  0.90448487  1
  Te  Te159  1  0.24794285  0.74853862  0.28270306  1
  Te  Te160  1  0.27143581  0.76138567  0.59443225  1
  Te  Te161  1  0.25917031  0.74019672  0.94406866  1
  Te  Te162  1  0.57915903  0.07292855  0.24652305  1
  Te  Te163  1  0.61337476  0.09973820  0.58234162  1
  Te  Te164  1  0.56792194  0.08776090  0.90429525  1
  Te  Te165  1  0.56825057  0.42542269  0.25015473  1
  Te  Te166  1  0.58139721  0.37685447  0.56243806  1
  Te  Te167  1  0.57062999  0.42569869  0.90086199  1
  Te  Te168  1  0.59872573  0.74907860  0.25217588  1
  Te  Te169  1  0.59301662  0.72557109  0.61362948  1
  Te  Te170  1  0.59553909  0.76661084  0.88525116  1
  Te  Te171  1  0.95115808  0.08798841  0.24200789  1
  Te  Te172  1  0.91063584  0.07342001  0.59949644  1
  Te  Te173  1  0.90896309  0.08080113  0.93181048  1
  Te  Te174  1  0.93528266  0.38794998  0.24535115  1
  Te  Te175  1  0.90768561  0.41627749  0.57353440  1
  Te  Te176  1  0.93309388  0.40883563  0.89591294  1
  Te  Te177  1  0.92250303  0.75064486  0.26771518  1
  Te  Te178  1  0.93453613  0.75699260  0.56726558  1
  Te  Te179  1  0.89644910  0.73826790  0.90000362  1
