# generated using pymatgen
data_In2Te3
_symmetry_space_group_name_H-M   'P 1'
_cell_length_a   18.92135223
_cell_length_b   18.91738630
_cell_length_c   18.91733756
_cell_angle_alpha   89.87582994
_cell_angle_beta   89.98995062
_cell_angle_gamma   89.95546514
_symmetry_Int_Tables_number   1
_chemical_formula_structural   In2Te3
_chemical_formula_sum   'In72 Te108'
_cell_volume   6771.30161009
_cell_formula_units_Z   36
loop_
 _symmetry_equiv_pos_site_id
 _symmetry_equiv_pos_as_xyz
  1  'x, y, z'
loop_
 _atom_site_type_symbol
 _atom_site_label
 _atom_site_symmetry_multiplicity
 _atom_site_fract_x
 _atom_site_fract_y
 _atom_site_fract_z
 _atom_site_occupancy
  In  In0  1  0.00582567  0.29192279  0.68925391  1
  In  In1  1  0.52413110  0.03221668  0.18352389  1
  In  In2  1  0.66381423  0.47744441  0.47196178  1
  In  In3  1  0.01193335  0.68081706  0.00423166  1
  In  In4  1  0.82703098  0.31742176  0.16505485  1
  In  In5  1  0.00656142  0.85031023  0.85148793  1
  In  In6  1  0.15054232  0.50146256  0.36287965  1
  In  In7  1  0.34734842  0.50120641  0.14354885  1
  In  In8  1  0.84631338  0.83346582  0.30616880  1
  In  In9  1  0.67693870  0.66792286  -0.00382559  1
  In  In10  1  0.84113722  0.47393155  -0.02752840  1
  In  In11  1  0.15722974  0.00714502  0.50509151  1
  In  In12  1  0.84509504  0.65339735  0.82962108  1
  In  In13  1  0.67167082  0.30153183  -0.02342263  1
  In  In14  1  0.16146993  0.17403236  0.32858360  1
  In  In15  1  0.85339637  0.01312776  0.86631354  1
  In  In16  1  0.32842380  0.00114139  0.33165525  1
  In  In17  1  0.64605661  0.83100775  0.51585751  1
  In  In18  1  0.16430585  0.67305532  0.84058059  1
  In  In19  1  0.67405345  0.03946988  -0.01852554  1
  In  In20  1  0.15883003  0.12183696  0.70254964  1
  In  In21  1  0.49093297  0.84769489  0.68052552  1
  In  In22  1  0.51734597  0.17944729  0.00842401  1
  In  In23  1  0.67909993  0.85615798  0.85369089  1
  In  In24  1  0.34784231  0.16248983  0.17899041  1
  In  In25  1  0.34201108  0.34258351  0.00496096  1
  In  In26  1  0.34439487  0.33871329  0.65670527  1
  In  In27  1  0.82106583  0.17504793  0.66778716  1
  In  In28  1  0.15776900  0.33917635  0.52212151  1
  In  In29  1  0.67558483  -0.00591086  0.66264723  1
  In  In30  1  0.83807569  0.67148727  0.48687324  1
  In  In31  1  0.81052930  0.48470971  0.33247296  1
  In  In32  1  0.48649737  0.85879079  0.34750398  1
  In  In33  1  -0.00881077  0.49781530  0.15386083  1
  In  In34  1  -0.00667699  0.68147748  0.32715549  1
  In  In35  1  0.66268793  0.64952526  0.32317466  1
  In  In36  1  0.84528055  0.44197389  0.73689305  1
  In  In37  1  0.32998286  0.68502979  -0.01862737  1
  In  In38  1  0.33338442  0.81888627  0.49753699  1
  In  In39  1  0.30227250  -0.01945081  0.00613177  1
  In  In40  1  0.17517782  0.31815543  0.85490463  1
  In  In41  1  0.81817114  0.03884646  0.47538193  1
  In  In42  1  -0.00481880  0.85173829  0.51107914  1
  In  In43  1  0.15621705  0.87165995  0.24242415  1
  In  In44  1  -0.01024651  0.47131599  0.52383876  1
  In  In45  1  0.51461609  0.32854929  0.50976464  1
  In  In46  1  0.32958659  0.67220020  0.66335566  1
  In  In47  1  0.16948660  0.66902997  0.49811029  1
  In  In48  1  0.17603086  0.49413734  0.67550297  1
  In  In49  1  0.49177240  0.50030551  0.66528330  1
  In  In50  1  0.66430153  0.64346971  0.65203532  1
  In  In51  1  0.34300730  0.14487220  0.81133678  1
  In  In52  1  0.34871468  0.32587780  0.31531504  1
  In  In53  1  0.50268924  0.49425019  0.32982151  1
  In  In54  1  -0.02137452  0.17154816  0.48143627  1
  In  In55  1  0.14763558  0.35477769  0.16614975  1
  In  In56  1  0.52374757  0.32063619  0.81707603  1
  In  In57  1  0.49191712  0.65228177  0.82713382  1
  In  In58  1  0.83663215  0.81015222  0.67381623  1
  In  In59  1  0.15034973  0.70617402  0.16280522  1
  In  In60  1  0.50627618  0.67707064  0.15012522  1
  In  In61  1  0.34945780  0.17304476  0.51555671  1
  In  In62  1  0.67750643  0.53013961  0.16583803  1
  In  In63  1  0.14363556  0.50570204  0.00798293  1
  In  In64  1  0.67606957  0.84378178  0.14986316  1
  In  In65  1  0.68434641  0.31366364  0.32557075  1
  In  In66  1  0.15228733  0.16728234  0.01396431  1
  In  In67  1  -0.01727853  0.16285095  0.15002414  1
  In  In68  1  0.17257588  0.87917934  0.71530994  1
  In  In69  1  0.84929909  0.00629800  0.13804493  1
  In  In70  1  0.47804685  0.84872547  -0.00031414  1
  In  In71  1  0.51199499  0.01820364  0.49424774  1
  Te  Te72  1  0.07169917  0.06151367  0.08255407  1
  Te  Te73  1  0.07006046  0.07792628  0.40302482  1
  Te  Te74  1  0.05303631  0.07775423  0.79640071  1
  Te  Te75  1  0.05033545  0.39586433  0.05673595  1
  Te  Te76  1  0.06157497  0.38937025  0.41604326  1
  Te  Te77  1  0.08843857  0.40277183  0.75647566  1
  Te  Te78  1  0.11427890  0.78476760  0.04060591  1
  Te  Te79  1  0.08012890  0.76481351  0.41827272  1
  Te  Te80  1  0.07744439  0.76010618  0.75163570  1
  Te  Te81  1  0.41440684  0.07809655  0.07200553  1
  Te  Te82  1  0.42012889  0.09938173  0.40224897  1
  Te  Te83  1  0.40498563  0.05024797  0.71948627  1
  Te  Te84  1  0.43899864  0.39543374  0.10173230  1
  Te  Te85  1  0.41756213  0.40955734  0.42249700  1
  Te  Te86  1  0.41169259  0.41829430  0.76464293  1
  Te  Te87  1  0.39518151  0.76399416  0.09436896  1
  Te  Te88  1  0.42199948  0.74375891  0.40891586  1
  Te  Te89  1  0.40206836  0.75885272  0.76590142  1
  Te  Te90  1  0.76139337  0.11335084  0.07594491  1
  Te  Te91  1  0.71216538  0.10856211  0.40059964  1
  Te  Te92  1  0.75558356  0.07193520  0.76432775  1
  Te  Te93  1  0.74891283  0.42186959  0.08290743  1
  Te  Te94  1  0.77563334  0.38093517  0.43921467  1
  Te  Te95  1  0.72467559  0.36292390  0.79141838  1
  Te  Te96  1  0.76232334  0.74493250  0.08591133  1
  Te  Te97  1  0.74219537  0.75729397  0.40673231  1
  Te  Te98  1  0.72220552  0.74832275  0.75348577  1
  Te  Te99  1  0.06498960  0.25577260  0.24581763  1
  Te  Te100  1  0.09124702  0.21768262  0.58422498  1
  Te  Te101  1  0.06777936  0.24401792  0.92031461  1
  Te  Te102  1  0.08144768  0.58063811  0.24428744  1
  Te  Te103  1  0.08481640  0.57477595  0.58460981  1
  Te  Te104  1  0.06254594  0.57842415  0.90207766  1
  Te  Te105  1  0.02530758  0.94167067  0.23503980  1
  Te  Te106  1  0.07309047  0.93641448  0.60994532  1
  Te  Te107  1  0.09408150  0.96558045  0.89349037  1
  Te  Te108  1  0.44824528  0.24863920  0.24140922  1
  Te  Te109  1  0.44671626  0.23620673  0.61259351  1
  Te  Te110  1  0.40856933  0.24775311  0.90490764  1
  Te  Te111  1  0.42109128  0.58923163  0.24315316  1
  Te  Te112  1  0.41218286  0.58691032  0.57807150  1
  Te  Te113  1  0.41689336  0.57951689  0.93014526  1
  Te  Te114  1  0.42059298  0.93064829  0.23273427  1
  Te  Te115  1  0.41894669  0.92247566  0.56943606  1
  Te  Te116  1  0.39620401  0.92666461  0.90385961  1
  Te  Te117  1  0.79694359  0.21900843  0.27803581  1
  Te  Te118  1  0.70281667  0.23031481  0.59821997  1
  Te  Te119  1  0.77249233  0.24899764  0.88082472  1
  Te  Te120  1  0.78422382  0.60536998  0.24336279  1
  Te  Te121  1  0.75689704  0.56712656  0.56094023  1
  Te  Te122  1  0.74239777  0.56847711  0.90190053  1
  Te  Te123  1  0.75374939  0.93484068  0.24101182  1
  Te  Te124  1  0.76615476  0.90507318  0.57433869  1
  Te  Te125  1  0.77047875  0.91911836  0.95405211  1
  Te  Te126  1  0.24900423  0.26001671  0.09953784  1
  Te  Te127  1  0.25076801  0.25424753  0.42355379  1
  Te  Te128  1  0.24661068  0.25038075  0.73310875  1
  Te  Te129  1  0.23802789  0.59429086  0.08718247  1
  Te  Te130  1  0.25602461  0.58959001  0.41119602  1
  Te  Te131  1  0.25996583  0.58220612  0.76504235  1
  Te  Te132  1  0.22577006  0.90667764  0.10901893  1
  Te  Te133  1  0.23967138  0.91403940  0.41799229  1
  Te  Te134  1  0.29103472  0.95612175  0.76262387  1
  Te  Te135  1  0.62577718  0.22720243  0.09763784  1
  Te  Te136  1  0.58523593  0.24421781  0.41078515  1
  Te  Te137  1  0.62770917  0.25197272  0.73417697  1
  Te  Te138  1  0.57480133  0.57500499  0.06295347  1
  Te  Te139  1  0.57194749  0.58944812  0.42806986  1
  Te  Te140  1  0.59478413  0.56254357  0.76041213  1
  Te  Te141  1  0.58363458  0.93649379  0.07008441  1
  Te  Te142  1  0.60381470  0.93053826  0.40913311  1
  Te  Te143  1  0.58049746  0.93396074  0.76769323  1
  Te  Te144  1  0.88793621  0.23420359  0.05866900  1
  Te  Te145  1  0.87561270  0.24614701  0.41079240  1
  Te  Te146  1  0.90739254  0.22471353  0.78047821  1
  Te  Te147  1  0.90858670  0.58179716  0.06068394  1
  Te  Te148  1  0.92661698  0.57003544  0.41274514  1
  Te  Te149  1  0.90815522  0.57541365  0.72436897  1
  Te  Te150  1  0.94754190  0.89540955  0.11401029  1
  Te  Te151  1  0.90446589  0.92442445  0.41451221  1
  Te  Te152  1  0.90497905  0.91479703  0.75622050  1
  Te  Te153  1  0.23547349  0.07810759  0.23747921  1
  Te  Te154  1  0.25953784  0.07700623  0.59122920  1
  Te  Te155  1  0.24743860  0.09421891  0.91816528  1
  Te  Te156  1  0.24815683  0.42672859  0.25546579  1
  Te  Te157  1  0.26546367  0.43462306  0.56851854  1
  Te  Te158  1  0.24843759  0.43170305  0.92491234  1
  Te  Te159  1  0.24152409  0.75528543  0.26657636  1
  Te  Te160  1  0.22993533  0.77461692  0.60393853  1
  Te  Te161  1  0.23452561  0.77880846  0.91705546  1
  Te  Te162  1  0.62264716  0.08791757  0.27373212  1
  Te  Te163  1  0.60334957  0.09734795  0.58226335  1
  Te  Te164  1  0.57357006  0.10302113  0.89618985  1
  Te  Te165  1  0.60737326  0.42249708  0.24800079  1
  Te  Te166  1  0.60105718  0.41772616  0.59622882  1
  Te  Te167  1  0.57099473  0.39873099  0.93070924  1
  Te  Te168  1  0.58575757  0.76005938  0.25061517  1
  Te  Te169  1  0.55843387  0.73822731  0.59537085  1
  Te  Te170  1  0.57356841  0.75746817  0.91949728  1
  Te  Te171  1  0.91266537  0.07908546  0.25286991  1
  Te  Te172  1  0.91310750  0.08138272  0.58523128  1
  Te  Te173  1  0.97362623  0.05098403  0.94854872  1
  Te  Te174  1  0.91414590  0.40987367  0.25035909  1
  Te  Te175  1  0.90906237  0.37577769  0.60686452  1
  Te  Te176  1  0.91391859  0.40543782  0.86486120  1
  Te  Te177  1  0.93943640  0.76191188  0.21269582  1
  Te  Te178  1  0.93430387  0.73369389  0.58628188  1
  Te  Te179  1  0.90690186  0.75578254  0.92075257  1
