# generated using pymatgen
data_In2Te3
_symmetry_space_group_name_H-M   'P 1'
_cell_length_a   18.95415249
_cell_length_b   18.93774655
_cell_length_c   18.94540194
_cell_angle_alpha   89.97070429
_cell_angle_beta   89.73558661
_cell_angle_gamma   90.11999089
_symmetry_Int_Tables_number   1
_chemical_formula_structural   In2Te3
_chemical_formula_sum   'In72 Te108'
_cell_volume   6800.34361365
_cell_formula_units_Z   36
loop_
 _symmetry_equiv_pos_site_id
 _symmetry_equiv_pos_as_xyz
  1  'x, y, z'
loop_
 _atom_site_type_symbol
 _atom_site_label
 _atom_site_symmetry_multiplicity
 _atom_site_fract_x
 _atom_site_fract_y
 _atom_site_fract_z
 _atom_site_occupancy
  In  In0  1  0.32673701  0.32154233  0.70772835  1
  In  In1  1  0.33928526  0.82275364  0.83948939  1
  In  In2  1  0.51728538  0.00265582  0.14842675  1
  In  In3  1  0.50163868  0.16416179  0.32066548  1
  In  In4  1  0.47341044  0.51769363  -0.04342300  1
  In  In5  1  0.65399561  0.82674298  0.82344981  1
  In  In6  1  0.48704173  0.68371885  0.16864217  1
  In  In7  1  0.68059303  0.47390827  0.51111555  1
  In  In8  1  0.18184003  0.81272022  0.67421602  1
  In  In9  1  0.50317889  -0.00652867  0.51943792  1
  In  In10  1  0.02806696  0.67772502  -0.01540349  1
  In  In11  1  0.32901637  0.51540409  0.52019302  1
  In  In12  1  -0.00375593  -0.00941756  0.33647641  1
  In  In13  1  0.84122012  0.66350890  0.50845714  1
  In  In14  1  0.34642139  0.33757478  -0.05984045  1
  In  In15  1  0.64565297  -0.00126214  0.68226256  1
  In  In16  1  0.67570984  0.51441167  0.15450465  1
  In  In17  1  0.64121576  0.68341794  0.66065599  1
  In  In18  1  0.20130116  0.84151064  -0.01427189  1
  In  In19  1  0.80687575  0.83107428  0.66500002  1
  In  In20  1  0.83087238  0.30404835  0.83062908  1
  In  In21  1  0.82363262  0.84325590  0.33165280  1
  In  In22  1  -0.00366418  0.84005711  0.17442336  1
  In  In23  1  0.49222408  0.33781689  0.54049311  1
  In  In24  1  0.52480335  0.51329037  0.33412036  1
  In  In25  1  0.00744513  0.83176312  0.48646379  1
  In  In26  1  0.48486775  0.83794325  -0.00923317  1
  In  In27  1  0.65795101  0.35987912  0.01035948  1
  In  In28  1  0.15140699  0.34282748  0.50789578  1
  In  In29  1  0.83264185  0.48312676  0.69743599  1
  In  In30  1  0.30459693  0.50697208  0.14783002  1
  In  In31  1  0.68984878  0.16624258  0.16417584  1
  In  In32  1  0.83286442  0.67300831  0.15328784  1
  In  In33  1  0.68780518  0.15120721  0.51196719  1
  In  In34  1  0.84301998  0.16769971  -0.00374527  1
  In  In35  1  0.15062621  0.66504475  0.49815266  1
  In  In36  1  -0.01969946  0.82766643  0.82471262  1
  In  In37  1  -0.00667809  0.62188517  0.67039422  1
  In  In38  1  0.16085350  0.02096357  0.84373887  1
  In  In39  1  0.33723837  0.66813212  0.67369200  1
  In  In40  1  0.48787513  0.36001033  0.17954440  1
  In  In41  1  0.81493621  0.84111477  -0.02186929  1
  In  In42  1  0.18686032  0.83193381  0.32924727  1
  In  In43  1  0.00299679  0.50540252  0.50781970  1
  In  In44  1  0.36264307  0.68188194  0.35616825  1
  In  In45  1  0.30452702  0.17318328  0.48337673  1
  In  In46  1  0.84609589  0.32341626  0.50713263  1
  In  In47  1  0.49971865  0.17572654  -0.00790028  1
  In  In48  1  0.62878722  0.16284293  0.82587738  1
  In  In49  1  0.85430599  0.15773220  0.34433771  1
  In  In50  1  0.16792939  0.16803887  0.66350679  1
  In  In51  1  0.83683462  0.17528486  0.66225815  1
  In  In52  1  0.17618100  -0.00552865  0.46772489  1
  In  In53  1  0.68818643  0.66685594  0.34280785  1
  In  In54  1  0.30337634  0.19153603  0.16139741  1
  In  In55  1  0.65116832  0.51579412  0.82975817  1
  In  In56  1  0.02497621  0.32877428  0.01983316  1
  In  In57  1  0.32213774  0.00907517  0.30623604  1
  In  In58  1  -0.01944573  -0.00420330  0.64773980  1
  In  In59  1  0.31146793  0.34216436  0.37940477  1
  In  In60  1  0.86074540  0.48636818  0.01670117  1
  In  In61  1  0.84296075  0.01045204  0.17046717  1
  In  In62  1  0.00368765  0.03502746  -0.01157181  1
  In  In63  1  0.17370975  0.63587959  0.14983062  1
  In  In64  1  0.34014722  0.84510481  0.15587252  1
  In  In65  1  0.35764785  0.02720645  0.70341150  1
  In  In66  1  0.66100914  0.67197931  -0.00805483  1
  In  In67  1  0.17217964  0.60463507  0.81231409  1
  In  In68  1  0.68909529  0.31197684  0.36778151  1
  In  In69  1  0.17124211  0.17725155  -0.00889197  1
  In  In70  1  0.14719342  0.48660305  0.32102063  1
  In  In71  1  0.51519041  0.83347982  0.36913280  1
  Te  Te72  1  0.09239840  0.09437564  0.08538337  1
  Te  Te73  1  0.06511892  0.07957390  0.43134333  1
  Te  Te74  1  0.06721718  0.07886404  0.74121347  1
  Te  Te75  1  0.09487535  0.43569311  0.10257046  1
  Te  Te76  1  0.05294770  0.40298414  0.40509850  1
  Te  Te77  1  0.11509830  0.46338038  0.79451156  1
  Te  Te78  1  0.09996321  0.76600458  0.08872087  1
  Te  Te79  1  0.07971941  0.74162563  0.38843399  1
  Te  Te80  1  0.07378504  0.73469861  0.74686972  1
  Te  Te81  1  0.41841075  0.10575031  0.10242160  1
  Te  Te82  1  0.40995422  0.08402816  0.41359552  1
  Te  Te83  1  0.45658813  0.11850712  0.76774978  1
  Te  Te84  1  0.40999290  0.42016323  0.06437241  1
  Te  Te85  1  0.43030998  0.43134676  0.42480160  1
  Te  Te86  1  0.44706812  0.37958698  0.76870010  1
  Te  Te87  1  0.39416879  0.73685187  0.06356321  1
  Te  Te88  1  0.45316791  0.73414787  0.46477964  1
  Te  Te89  1  0.42472668  0.77658576  0.72729426  1
  Te  Te90  1  0.74911715  0.06885278  0.06582820  1
  Te  Te91  1  0.74287706  0.07836973  0.39894777  1
  Te  Te92  1  0.74190241  0.09430646  0.75183892  1
  Te  Te93  1  0.76703196  0.40323302  0.10518286  1
  Te  Te94  1  0.78157482  0.42458883  0.40905557  1
  Te  Te95  1  0.72840365  0.39940210  0.76773087  1
  Te  Te96  1  0.73462527  0.76437263  0.08673157  1
  Te  Te97  1  0.75053582  0.76351022  0.44073878  1
  Te  Te98  1  0.75086704  0.72808163  0.75904505  1
  Te  Te99  1  0.09877784  0.30926826  0.18676244  1
  Te  Te100  1  0.07195181  0.25048252  0.58955509  1
  Te  Te101  1  0.08547699  0.25770807  0.90217952  1
  Te  Te102  1  0.06931527  0.57726045  0.23480050  1
  Te  Te103  1  0.11323036  0.55979523  0.59925217  1
  Te  Te104  1  0.07814881  0.55271006  0.92024789  1
  Te  Te105  1  0.10041343  0.92372076  0.24662362  1
  Te  Te106  1  0.09950053  0.90656970  0.58204774  1
  Te  Te107  1  0.07683075  0.90624369  0.91182365  1
  Te  Te108  1  0.40269925  0.26615248  0.26705641  1
  Te  Te109  1  0.38898791  0.23884970  0.58951589  1
  Te  Te110  1  0.38917351  0.20107920  0.89178146  1
  Te  Te111  1  0.41316045  0.56864829  0.24721367  1
  Te  Te112  1  0.43152369  0.57428153  0.60537942  1
  Te  Te113  1  0.37962442  0.60378597  0.88669555  1
  Te  Te114  1  0.43456415  0.91081660  0.25554089  1
  Te  Te115  1  0.40789912  0.92460709  0.60882839  1
  Te  Te116  1  0.39551703  0.93132600  0.92129372  1
  Te  Te117  1  0.77234705  0.25329951  0.25575478  1
  Te  Te118  1  0.73386000  0.26780419  0.59375535  1
  Te  Te119  1  0.72405001  0.24799641  0.93182278  1
  Te  Te120  1  0.77100466  0.57480535  0.25435305  1
  Te  Te121  1  0.75748334  0.57811385  0.60178847  1
  Te  Te122  1  0.74746058  0.56097856  0.93873854  1
  Te  Te123  1  0.74699455  0.92204784  0.23682073  1
  Te  Te124  1  0.73016566  0.92501458  0.58546948  1
  Te  Te125  1  0.73180204  0.92738214  0.89679005  1
  Te  Te126  1  0.25637819  0.28687908  0.05596759  1
  Te  Te127  1  0.20111773  0.24026740  0.39810140  1
  Te  Te128  1  0.21030598  0.25536041  0.77702409  1
  Te  Te129  1  0.25099764  0.58450981  0.03496676  1
  Te  Te130  1  0.24659862  0.57900963  0.40589228  1
  Te  Te131  1  0.30704289  0.54553315  0.76457070  1
  Te  Te132  1  0.25233978  0.93627834  0.08383102  1
  Te  Te133  1  0.28613198  0.90416810  0.41595764  1
  Te  Te134  1  0.24394687  0.92522044  0.75405197  1
  Te  Te135  1  0.58000827  0.25958026  0.10550903  1
  Te  Te136  1  0.56354525  0.25255856  0.42839169  1
  Te  Te137  1  0.53709574  0.25357572  0.75021399  1
  Te  Te138  1  0.56208448  0.57755241  0.07915198  1
  Te  Te139  1  0.60297244  0.58520423  0.43902861  1
  Te  Te140  1  0.55982178  0.59951613  0.75201177  1
  Te  Te141  1  0.58555137  0.89277786  0.08237616  1
  Te  Te142  1  0.60350327  0.93237439  0.43076341  1
  Te  Te143  1  0.55264572  0.90064998  0.74490163  1
  Te  Te144  1  0.92312133  0.24268518  0.09527428  1
  Te  Te145  1  0.93747353  0.25965205  0.41085134  1
  Te  Te146  1  0.93295239  0.26036087  0.73461685  1
  Te  Te147  1  0.94188910  0.59437169  0.08444301  1
  Te  Te148  1  0.92873323  0.59156837  0.41646162  1
  Te  Te149  1  0.91510700  0.56979610  0.78198500  1
  Te  Te150  1  0.92025124  0.91518493  0.06772126  1
  Te  Te151  1  0.90068588  0.92383567  0.43495838  1
  Te  Te152  1  0.89236930  0.92441949  0.75010603  1
  Te  Te153  1  0.22535334  0.10082459  0.24747995  1
  Te  Te154  1  0.25492216  0.06665299  0.58581281  1
  Te  Te155  1  0.26800686  0.08506100  0.92183285  1
  Te  Te156  1  0.25422661  0.40548295  0.25159103  1
  Te  Te157  1  0.25669960  0.40627630  0.59615227  1
  Te  Te158  1  0.24395214  0.41469273  0.86584118  1
  Te  Te159  1  0.26615113  0.73478068  0.24294802  1
  Te  Te160  1  0.26000563  0.74607436  0.56349624  1
  Te  Te161  1  0.22536252  0.73359177  0.88482743  1
  Te  Te162  1  0.60223323  0.07599996  0.25195579  1
  Te  Te163  1  0.57203450  0.10469672  0.59557937  1
  Te  Te164  1  0.57563831  0.06878617  0.92623661  1
  Te  Te165  1  0.60827468  0.40833371  0.26269597  1
  Te  Te166  1  0.58021609  0.43138452  0.60947508  1
  Te  Te167  1  0.56120100  0.40541909  0.90364243  1
  Te  Te168  1  0.58695359  0.74694050  0.26161801  1
  Te  Te169  1  0.58079661  0.75871786  0.55185955  1
  Te  Te170  1  0.55927595  0.73587453  0.90446591  1
  Te  Te171  1  0.94633830  0.09573693  0.23797093  1
  Te  Te172  1  0.89996953  0.08413296  0.56493675  1
  Te  Te173  1  0.91402403  0.09374027  0.89152484  1
  Te  Te174  1  0.96853097  0.37683800  0.18135946  1
  Te  Te175  1  0.92658877  0.41269008  0.60123610  1
  Te  Te176  1  0.92057938  0.38988725  0.91936521  1
  Te  Te177  1  0.91459984  0.74542628  0.25953520  1
  Te  Te178  1  0.93341028  0.75264299  0.59387162  1
  Te  Te179  1  0.90315351  0.73364384  0.91650172  1
