# generated using pymatgen
data_In2Te3
_symmetry_space_group_name_H-M   'P 1'
_cell_length_a   18.79201846
_cell_length_b   18.78118928
_cell_length_c   18.78663077
_cell_angle_alpha   89.99561851
_cell_angle_beta   90.03450363
_cell_angle_gamma   89.98934157
_symmetry_Int_Tables_number   1
_chemical_formula_structural   In2Te3
_chemical_formula_sum   'In72 Te108'
_cell_volume   6630.48554108
_cell_formula_units_Z   36
loop_
 _symmetry_equiv_pos_site_id
 _symmetry_equiv_pos_as_xyz
  1  'x, y, z'
loop_
 _atom_site_type_symbol
 _atom_site_label
 _atom_site_symmetry_multiplicity
 _atom_site_fract_x
 _atom_site_fract_y
 _atom_site_fract_z
 _atom_site_occupancy
  In  In0  1  0.69347248  0.14561559  0.51004154  1
  In  In1  1  0.82712473  -0.00323075  0.16421481  1
  In  In2  1  0.02895343  0.54213354  0.17578557  1
  In  In3  1  0.48416377  0.51402048  0.32625210  1
  In  In4  1  0.16155865  0.14052705  0.34125442  1
  In  In5  1  0.15626705  0.80328307  0.38315784  1
  In  In6  1  0.67180320  0.81544520  0.16658045  1
  In  In7  1  0.67300384  0.15086656  0.15658651  1
  In  In8  1  0.48438104  0.34618567  0.47047588  1
  In  In9  1  0.00287389  0.67687753  0.64524541  1
  In  In10  1  0.17671271  -0.02053430  0.17209249  1
  In  In11  1  0.31427428  -0.00658252  0.34361941  1
  In  In12  1  0.66837941  0.83517145  0.49224406  1
  In  In13  1  0.19154533  0.33273067  0.15069871  1
  In  In14  1  0.17043295  0.33116621  0.83874545  1
  In  In15  1  0.66746883  0.64703448  0.66624070  1
  In  In16  1  0.66915388  0.14348314  0.84738281  1
  In  In17  1  0.67035849  0.33701422  0.01993842  1
  In  In18  1  0.66945670  0.65702382  0.32823591  1
  In  In19  1  -0.00298893  0.84048461  0.81249621  1
  In  In20  1  0.16317721  0.16828125  -0.01487198  1
  In  In21  1  0.01467830  0.36358144  0.34644340  1
  In  In22  1  0.48976642  0.15050667  0.68782249  1
  In  In23  1  0.65861724  0.84789772  0.84250114  1
  In  In24  1  0.01097477  0.67232479  -0.01226692  1
  In  In25  1  0.82715649  0.36843423  0.49507062  1
  In  In26  1  0.49522463  -0.00164165  0.82718075  1
  In  In27  1  0.00526638  0.18978005  0.15275893  1
  In  In28  1  0.46365622  -0.04501835  0.52173746  1
  In  In29  1  0.50523650  0.65980937  0.18587095  1
  In  In30  1  -0.00680161  0.33084840  -0.01526783  1
  In  In31  1  0.30637287  0.16170708  0.51452814  1
  In  In32  1  0.66278148  -0.01066388  0.67733440  1
  In  In33  1  0.15855744  0.50775567  -0.00820404  1
  In  In34  1  0.68586415  0.68898483  -0.00750493  1
  In  In35  1  0.48303691  0.53999590  0.65073374  1
  In  In36  1  0.69599367  0.33819623  0.38111287  1
  In  In37  1  0.31778161  0.33449661  0.66441717  1
  In  In38  1  0.49457234  0.15720678  0.31720226  1
  In  In39  1  0.68578654  0.32703840  0.64879555  1
  In  In40  1  0.83691717  -0.02936707  0.82687865  1
  In  In41  1  0.81624098  0.16761140  0.34566253  1
  In  In42  1  0.86686585  0.83340116  0.34021286  1
  In  In43  1  0.51098060  0.34344419  0.16129771  1
  In  In44  1  0.84265942  0.49383069  0.65957144  1
  In  In45  1  0.84729453  0.34139454  0.82426800  1
  In  In46  1  0.46406598  0.69620200  0.50223657  1
  In  In47  1  0.68680476  0.51160999  0.51906465  1
  In  In48  1  -0.01107152  -0.01396906  -0.01715765  1
  In  In49  1  0.86868196  0.83610206  0.67516145  1
  In  In50  1  0.15175931  0.35396891  0.47645464  1
  In  In51  1  0.00166800  0.32731172  0.66572638  1
  In  In52  1  0.49951202  -0.00979178  0.16849551  1
  In  In53  1  -0.00645684  0.15263767  0.51290088  1
  In  In54  1  0.00466491  0.79530781  0.18012691  1
  In  In55  1  0.50281888  0.83498900  0.00024811  1
  In  In56  1  0.32617525  0.00180229  0.00790856  1
  In  In57  1  0.30829669  0.81874302  0.79151502  1
  In  In58  1  0.34247234  0.52572634  0.19222911  1
  In  In59  1  0.15141974  0.52635958  0.66496275  1
  In  In60  1  -0.00191855  0.00772168  0.35005866  1
  In  In61  1  0.35562912  0.37063567  0.33852805  1
  In  In62  1  0.31677021  0.83819764  0.18714842  1
  In  In63  1  0.30385569  0.50749760  0.82010945  1
  In  In64  1  0.48927076  0.32773858  0.84518631  1
  In  In65  1  0.32019035  0.66678306  -0.01026027  1
  In  In66  1  0.34548962  0.14913524  0.83141829  1
  In  In67  1  0.13498950  0.11405238  0.67514227  1
  In  In68  1  0.83555810  0.66502751  0.83367043  1
  In  In69  1  0.85894753  0.34034934  0.16668945  1
  In  In70  1  0.48399134  0.51109573  -0.00877821  1
  In  In71  1  0.69065636  0.50191097  0.17858353  1
  Te  Te72  1  0.08367619  0.07550857  0.08885824  1
  Te  Te73  1  0.10147642  0.05912049  0.45298793  1
  Te  Te74  1  0.06044318  0.04726024  0.78340370  1
  Te  Te75  1  0.07452037  0.41080841  0.08947631  1
  Te  Te76  1  0.08787790  0.47757670  0.41438584  1
  Te  Te77  1  0.08053591  0.42148662  0.75668617  1
  Te  Te78  1  0.10127845  0.74709108  0.08038161  1
  Te  Te79  1  0.04604422  0.72368069  0.44534162  1
  Te  Te80  1  0.09778873  0.75614563  0.73660421  1
  Te  Te81  1  0.41738285  0.08323191  0.08958824  1
  Te  Te82  1  0.41225464  0.08627838  0.42791914  1
  Te  Te83  1  0.38830275  0.04423256  0.72552691  1
  Te  Te84  1  0.40427922  0.42676717  0.09041888  1
  Te  Te85  1  0.39592217  0.46827835  0.44746213  1
  Te  Te86  1  0.41786708  0.42054424  0.74194238  1
  Te  Te87  1  0.41617760  0.74781227  0.09352353  1
  Te  Te88  1  0.38323192  0.75447462  0.39481568  1
  Te  Te89  1  0.42287423  0.75718623  0.72219469  1
  Te  Te90  1  0.76331934  0.08247621  0.06274137  1
  Te  Te91  1  0.76358105  0.05246376  0.42008018  1
  Te  Te92  1  0.76242708  0.08118706  0.74516054  1
  Te  Te93  1  0.77705605  0.43207476  0.07377805  1
  Te  Te94  1  0.77717511  0.47224828  0.38786961  1
  Te  Te95  1  0.73826011  0.42959648  0.74812846  1
  Te  Te96  1  0.77872942  0.73981871  0.09592675  1
  Te  Te97  1  0.76082819  0.74268376  0.41470690  1
  Te  Te98  1  0.74767071  0.75997126  0.74645196  1
  Te  Te99  1  0.09410501  0.25479885  0.25943484  1
  Te  Te100  1  0.10228766  0.24586386  0.58117546  1
  Te  Te101  1  0.06389930  0.23411964  0.89014637  1
  Te  Te102  1  0.11317729  0.62568541  0.27244557  1
  Te  Te103  1  0.11348618  0.62403968  0.55502556  1
  Te  Te104  1  0.09173950  0.59100605  0.89187961  1
  Te  Te105  1  0.08429835  0.90826424  0.27115910  1
  Te  Te106  1  0.11047115  0.85539946  0.60910378  1
  Te  Te107  1  0.09089989  0.91207719  0.90499220  1
  Te  Te108  1  0.41082434  0.26076882  0.24347232  1
  Te  Te109  1  0.42175670  0.25058209  0.58491287  1
  Te  Te110  1  0.40545185  0.24198985  0.92922476  1
  Te  Te111  1  0.38927527  0.63811165  0.29416464  1
  Te  Te112  1  0.37174337  0.61570804  0.59007490  1
  Te  Te113  1  0.41066262  0.59584585  0.88888617  1
  Te  Te114  1  0.42113693  0.90889360  0.27199844  1
  Te  Te115  1  0.38797349  0.84873489  0.60448944  1
  Te  Te116  1  0.40206339  0.90325619  0.90900342  1
  Te  Te117  1  0.74661006  0.26574284  0.24253407  1
  Te  Te118  1  0.78951193  0.24156605  0.58025916  1
  Te  Te119  1  0.74449403  0.26014077  0.90985198  1
  Te  Te120  1  0.77137273  0.61805458  0.22526167  1
  Te  Te121  1  0.78847368  0.61665918  0.57598666  1
  Te  Te122  1  0.74567476  0.58031917  0.91424227  1
  Te  Te123  1  0.75544445  0.90473691  0.26120540  1
  Te  Te124  1  0.75795006  0.91059237  0.59002310  1
  Te  Te125  1  0.74916995  0.91953889  0.93393800  1
  Te  Te126  1  0.26482050  0.23306931  0.07151254  1
  Te  Te127  1  0.25963927  0.26106808  0.40636542  1
  Te  Te128  1  0.24114257  0.22976037  0.74487128  1
  Te  Te129  1  0.24157578  0.58810503  0.09409355  1
  Te  Te130  1  0.21208489  0.56215788  0.36599951  1
  Te  Te131  1  0.25234243  0.61455584  0.73205691  1
  Te  Te132  1  0.23869781  0.88958879  0.06520279  1
  Te  Te133  1  0.25165763  0.90406108  0.44680819  1
  Te  Te134  1  0.20254843  0.90155392  0.72615347  1
  Te  Te135  1  0.57211602  0.23353284  0.07484989  1
  Te  Te136  1  0.58743719  0.23496754  0.42221341  1
  Te  Te137  1  0.59122467  0.24976448  0.74656684  1
  Te  Te138  1  0.58689817  0.57641977  0.08825491  1
  Te  Te139  1  0.57945884  0.58202347  0.43211835  1
  Te  Te140  1  0.57848647  0.57300113  0.75694474  1
  Te  Te141  1  0.60181607  0.91980097  0.07862738  1
  Te  Te142  1  0.56727022  0.92022221  0.42386287  1
  Te  Te143  1  0.55911711  0.89433845  0.73500231  1
  Te  Te144  1  0.89655851  0.23684166  0.05890432  1
  Te  Te145  1  0.92282530  0.25727420  0.41372954  1
  Te  Te146  1  0.91300114  0.23744653  0.74082699  1
  Te  Te147  1  0.92951140  0.58422914  0.07569956  1
  Te  Te148  1  0.89044837  0.54813831  0.46229904  1
  Te  Te149  1  0.93096356  0.58401721  0.74611320  1
  Te  Te150  1  0.92972356  0.90632887  0.09837503  1
  Te  Te151  1  0.92823902  0.91955452  0.44819393  1
  Te  Te152  1  0.96971282  0.95870730  0.69213043  1
  Te  Te153  1  0.26081257  0.08992738  0.23633250  1
  Te  Te154  1  0.24909927  0.05473621  0.59948313  1
  Te  Te155  1  0.23781313  0.06521733  0.90013862  1
  Te  Te156  1  0.23542078  0.43253208  0.25996302  1
  Te  Te157  1  0.23922102  0.43015001  0.57901039  1
  Te  Te158  1  0.26178478  0.40986126  0.93086611  1
  Te  Te159  1  0.21279007  0.74894302  0.24988108  1
  Te  Te160  1  0.24110878  0.79530688  0.57052564  1
  Te  Te161  1  0.23540328  0.74369149  0.89795047  1
  Te  Te162  1  0.60202626  0.06566650  0.26150641  1
  Te  Te163  1  0.57369589  0.07365357  0.58359328  1
  Te  Te164  1  0.56778557  0.07604977  0.92880246  1
  Te  Te165  1  0.59136419  0.41764370  0.26877825  1
  Te  Te166  1  0.58076967  0.41308052  0.57912749  1
  Te  Te167  1  0.58444977  0.41949307  0.92123326  1
  Te  Te168  1  0.57487898  0.76370516  0.27266309  1
  Te  Te169  1  0.58425184  0.74482102  0.58327957  1
  Te  Te170  1  0.57052900  0.73781308  0.90442583  1
  Te  Te171  1  0.92349146  0.09832274  0.24938029  1
  Te  Te172  1  0.91184766  0.05012276  0.57920255  1
  Te  Te173  1  0.91107788  0.07857789  0.89739163  1
  Te  Te174  1  0.92883759  0.44590995  0.25058963  1
  Te  Te175  1  0.95222524  0.43664340  0.56259236  1
  Te  Te176  1  0.92636511  0.43522190  0.90587918  1
  Te  Te177  1  0.93432090  0.71316652  0.28235910  1
  Te  Te178  1  0.92977290  0.77121058  0.54949859  1
  Te  Te179  1  0.90997512  0.76980559  0.91457360  1
