# generated using pymatgen
data_In2Te3
_symmetry_space_group_name_H-M   'P 1'
_cell_length_a   18.78800148
_cell_length_b   18.79150831
_cell_length_c   18.78403008
_cell_angle_alpha   90.05827090
_cell_angle_beta   89.95027714
_cell_angle_gamma   90.00083913
_symmetry_Int_Tables_number   1
_chemical_formula_structural   In2Te3
_chemical_formula_sum   'In72 Te108'
_cell_volume   6631.78767019
_cell_formula_units_Z   36
loop_
 _symmetry_equiv_pos_site_id
 _symmetry_equiv_pos_as_xyz
  1  'x, y, z'
loop_
 _atom_site_type_symbol
 _atom_site_label
 _atom_site_symmetry_multiplicity
 _atom_site_fract_x
 _atom_site_fract_y
 _atom_site_fract_z
 _atom_site_occupancy
  In  In0  1  0.47353180  0.82429908  0.70786719  1
  In  In1  1  0.17355161  0.18294430  0.34033054  1
  In  In2  1  0.03019824  -0.00162324  -0.01642230  1
  In  In3  1  0.65305096  0.01595790  -0.01554128  1
  In  In4  1  0.17929080  0.83315544  0.67275798  1
  In  In5  1  0.31856948  0.00225649  0.00083210  1
  In  In6  1  0.30999960  0.15653389  0.50892443  1
  In  In7  1  0.32296658  0.67090271  -0.01264321  1
  In  In8  1  0.84513245  0.35654915  0.45225212  1
  In  In9  1  -0.00084263  0.49047504  0.83495282  1
  In  In10  1  0.47465147  0.68896409  0.47408343  1
  In  In11  1  0.51318822  0.50265044  0.32641610  1
  In  In12  1  0.66651193  0.67472951  0.66883643  1
  In  In13  1  0.84034825  0.18552980  0.69275305  1
  In  In14  1  0.83104123  0.15418975  0.31820420  1
  In  In15  1  0.83278688  -0.00913381  0.18054296  1
  In  In16  1  0.49873419  0.33436902  0.50116312  1
  In  In17  1  0.48133224  0.30307629  0.86141975  1
  In  In18  1  0.17568300  0.83069336  0.34824467  1
  In  In19  1  0.16961130  0.67740194  0.50844061  1
  In  In20  1  0.17312351  0.33188503  0.14304231  1
  In  In21  1  0.16186994  0.48799275  -0.02089265  1
  In  In22  1  0.48535058  0.16803247  0.30984558  1
  In  In23  1  0.16368686  0.00918028  0.14223010  1
  In  In24  1  0.84194619  0.34729454  0.81762345  1
  In  In25  1  0.00124010  0.34353907  -0.00054260  1
  In  In26  1  0.67760354  0.16709829  0.50068655  1
  In  In27  1  0.33324352  0.17836956  0.15632497  1
  In  In28  1  0.16009512  0.50992894  0.32990737  1
  In  In29  1  0.17513477  0.32474649  0.84620949  1
  In  In30  1  0.16505159  0.66388138  0.83180034  1
  In  In31  1  0.16410595  0.68075091  0.18472993  1
  In  In32  1  0.33668449  -0.02137395  0.34031653  1
  In  In33  1  0.49516692  0.82267698  -0.02369769  1
  In  In34  1  0.65343481  0.80419119  0.16265202  1
  In  In35  1  0.84684629  0.67533936  0.49891854  1
  In  In36  1  0.00762095  0.34581005  0.32705290  1
  In  In37  1  0.02653511  0.33572017  0.67176654  1
  In  In38  1  0.34886868  0.50964331  0.50228180  1
  In  In39  1  0.32847283  0.51756195  0.82660106  1
  In  In40  1  0.64861934  -0.03672165  0.65617054  1
  In  In41  1  0.17366130  0.14775567  0.68447893  1
  In  In42  1  0.65458249  0.34824163  0.66634471  1
  In  In43  1  0.82145507  0.83124543  -0.01825612  1
  In  In44  1  0.82336230  0.51365755  0.30090471  1
  In  In45  1  0.46434307  0.12509113  0.70273672  1
  In  In46  1  0.84118334  0.81184272  0.31763134  1
  In  In47  1  0.49298723  -0.03030776  0.51302564  1
  In  In48  1  0.66771533  0.35439390  0.30495373  1
  In  In49  1  0.47752919  -0.01434715  0.17927667  1
  In  In50  1  0.49534071  0.66862562  0.17201888  1
  In  In51  1  0.03104018  0.15673098  0.50875481  1
  In  In52  1  0.82061400  0.00249079  0.51342407  1
  In  In53  1  0.01338379  0.51115590  0.51032504  1
  In  In54  1  0.66329676  0.14996704  0.83906347  1
  In  In55  1  0.48150416  0.49406913  -0.00534574  1
  In  In56  1  0.66685689  0.35291353  0.02375290  1
  In  In57  1  0.83485506  -0.02104583  0.83623353  1
  In  In58  1  0.01123403  0.81881768  0.51538715  1
  In  In59  1  0.64869412  0.18428167  0.16585767  1
  In  In60  1  -0.00442603  0.01407889  0.34404687  1
  In  In61  1  0.84580438  0.17964691  0.00138226  1
  In  In62  1  0.50217567  0.52714722  0.67394442  1
  In  In63  1  0.33097747  0.35424952  0.65198554  1
  In  In64  1  0.34231299  0.48751975  0.16209247  1
  In  In65  1  0.18108879  0.83805564  -0.00589603  1
  In  In66  1  0.66711878  0.82591717  0.49075163  1
  In  In67  1  0.67345316  0.66568181  0.00254510  1
  In  In68  1  0.83357053  0.50852821  0.66994076  1
  In  In69  1  0.01518878  -0.01348848  0.69364647  1
  In  In70  1  0.82679473  0.67115334  0.84447725  1
  In  In71  1  -0.00464416  0.82712723  0.16583156  1
  Te  Te72  1  0.09202413  0.10930778  0.06132221  1
  Te  Te73  1  0.11671271  0.06554110  0.42179243  1
  Te  Te74  1  0.08472531  0.08193424  0.78266187  1
  Te  Te75  1  0.07592802  0.43922208  0.09459970  1
  Te  Te76  1  0.09628805  0.40979252  0.43078270  1
  Te  Te77  1  0.11323506  0.43040943  0.75319005  1
  Te  Te78  1  0.08487348  0.74723558  0.07063985  1
  Te  Te79  1  0.07045098  0.73492110  0.40373985  1
  Te  Te80  1  0.08229282  0.76331213  0.75960108  1
  Te  Te81  1  0.42624521  0.08427017  0.07870217  1
  Te  Te82  1  0.42403300  0.08570113  0.42313941  1
  Te  Te83  1  0.36485659  0.04954171  0.78943585  1
  Te  Te84  1  0.41376953  0.39070166  0.07619218  1
  Te  Te85  1  0.41304407  0.41176653  0.40386381  1
  Te  Te86  1  0.43039553  0.41331287  0.75561103  1
  Te  Te87  1  0.40702102  0.75641145  0.08259219  1
  Te  Te88  1  0.38930523  0.78091688  0.39420878  1
  Te  Te89  1  0.38718529  0.72866564  0.78189709  1
  Te  Te90  1  0.75078234  0.08136430  0.08525244  1
  Te  Te91  1  0.73812355  0.06634391  0.40191789  1
  Te  Te92  1  0.74795762  0.07109529  0.73600016  1
  Te  Te93  1  0.74443477  0.44954417  0.10593641  1
  Te  Te94  1  0.73010931  0.44279501  0.41230363  1
  Te  Te95  1  0.73287202  0.43849183  0.76134148  1
  Te  Te96  1  0.77560542  0.74229143  0.09555473  1
  Te  Te97  1  0.74307992  0.72842878  0.39961233  1
  Te  Te98  1  0.75056970  0.76140957  0.75400380  1
  Te  Te99  1  0.08322554  0.24725905  0.23744138  1
  Te  Te100  1  0.11959657  0.25462357  0.58166090  1
  Te  Te101  1  0.08749210  0.24221102  0.93307350  1
  Te  Te102  1  0.06679974  0.58451577  0.24224877  1
  Te  Te103  1  0.08678690  0.59734398  0.60296646  1
  Te  Te104  1  0.06615948  0.59340820  0.92740456  1
  Te  Te105  1  0.08443061  0.92063517  0.25042469  1
  Te  Te106  1  0.09301292  0.92861303  0.57682351  1
  Te  Te107  1  0.11199013  0.91835688  0.89030521  1
  Te  Te108  1  0.41842952  0.27317305  0.23362939  1
  Te  Te109  1  0.42181189  0.23732654  0.59026046  1
  Te  Te110  1  0.37318371  0.21791422  0.91683785  1
  Te  Te111  1  0.40142834  0.58700246  0.26030403  1
  Te  Te112  1  0.40837853  0.61594185  0.59439949  1
  Te  Te113  1  0.43225668  0.60569246  0.90007048  1
  Te  Te114  1  0.43505467  0.88014931  0.27910329  1
  Te  Te115  1  0.39668727  0.90187394  0.60296167  1
  Te  Te116  1  0.41115858  0.92586802  0.90825222  1
  Te  Te117  1  0.76364821  0.26014096  0.23181115  1
  Te  Te118  1  0.75817218  0.26485902  0.58752153  1
  Te  Te119  1  0.74932992  0.25702721  0.90841715  1
  Te  Te120  1  0.72761668  0.58020550  0.20622479  1
  Te  Te121  1  0.74652048  0.58478210  0.57275353  1
  Te  Te122  1  0.76103038  0.56895200  0.93029191  1
  Te  Te123  1  0.73657299  0.90341538  0.25435153  1
  Te  Te124  1  0.76507756  0.88627259  0.59370561  1
  Te  Te125  1  0.71709262  0.90555477  0.89983580  1
  Te  Te126  1  0.25455249  0.24734571  0.04999029  1
  Te  Te127  1  0.27116341  0.26295801  0.41568807  1
  Te  Te128  1  0.26734439  0.25263100  0.74747026  1
  Te  Te129  1  0.24453702  0.57979273  0.08129785  1
  Te  Te130  1  0.25613960  0.59409034  0.41252026  1
  Te  Te131  1  0.24519082  0.59025025  0.72996936  1
  Te  Te132  1  0.26399179  0.90129953  0.10625314  1
  Te  Te133  1  0.26313155  0.90269023  0.44597905  1
  Te  Te134  1  0.26407507  0.94667912  0.72577011  1
  Te  Te135  1  0.57146526  0.24624382  0.05804609  1
  Te  Te136  1  0.59215104  0.25373989  0.40707238  1
  Te  Te137  1  0.57709171  0.24490417  0.74773589  1
  Te  Te138  1  0.57579397  0.57563464  0.08278964  1
  Te  Te139  1  0.57818279  0.59823007  0.41966697  1
  Te  Te140  1  0.59308042  0.59258053  0.76919882  1
  Te  Te141  1  0.58139868  0.91464063  0.08247291  1
  Te  Te142  1  0.58672549  0.92079639  0.41095381  1
  Te  Te143  1  0.56210671  0.92720762  0.76919643  1
  Te  Te144  1  0.91413284  0.26873810  0.09522801  1
  Te  Te145  1  0.92782890  0.22788353  0.41783448  1
  Te  Te146  1  0.95213660  0.25005139  0.77428000  1
  Te  Te147  1  0.86179741  0.54872993  0.14476579  1
  Te  Te148  1  0.91858361  0.57227103  0.41131957  1
  Te  Te149  1  0.92954789  0.59304705  0.74762936  1
  Te  Te150  1  0.91958996  0.92516902  0.07150071  1
  Te  Te151  1  0.90995210  0.91140258  0.41887712  1
  Te  Te152  1  0.91768280  0.89207300  0.75093249  1
  Te  Te153  1  0.25865440  0.07717563  0.25143858  1
  Te  Te154  1  0.26160554  0.05281678  0.60471682  1
  Te  Te155  1  0.26638625  0.10386658  0.90242995  1
  Te  Te156  1  0.24671975  0.40857981  0.25251309  1
  Te  Te157  1  0.24019869  0.44127850  0.57719386  1
  Te  Te158  1  0.27903097  0.41106196  0.92316188  1
  Te  Te159  1  0.26919108  0.74946833  0.26405317  1
  Te  Te160  1  0.27027820  0.76612127  0.57453993  1
  Te  Te161  1  0.27481850  0.77335114  0.88144910  1
  Te  Te162  1  0.58654061  0.07219941  0.24819444  1
  Te  Te163  1  0.58219323  0.08430422  0.58681099  1
  Te  Te164  1  0.54876444  0.08897463  0.90924499  1
  Te  Te165  1  0.57001030  0.41889709  0.21673158  1
  Te  Te166  1  0.58110171  0.44192455  0.57115599  1
  Te  Te167  1  0.58011400  0.41082816  0.91076151  1
  Te  Te168  1  0.58673768  0.73010575  0.27196716  1
  Te  Te169  1  0.56580653  0.76063228  0.58711308  1
  Te  Te170  1  0.59266531  0.74068332  0.90184747  1
  Te  Te171  1  0.93796526  0.09241858  0.22635036  1
  Te  Te172  1  0.91988376  0.08937975  0.59234424  1
  Te  Te173  1  0.91836295  0.08187488  0.91037832  1
  Te  Te174  1  0.91263292  0.41005168  0.23363399  1
  Te  Te175  1  0.91617056  0.40349583  0.58945434  1
  Te  Te176  1  0.89570456  0.43366044  0.93224846  1
  Te  Te177  1  0.93411149  0.71942510  0.24803285  1
  Te  Te178  1  0.92471277  0.74127182  0.60507541  1
  Te  Te179  1  0.92763987  0.74989409  0.92198539  1
