# generated using pymatgen
data_In2Te3
_symmetry_space_group_name_H-M   'P 1'
_cell_length_a   19.05501952
_cell_length_b   19.03426539
_cell_length_c   19.05976778
_cell_angle_alpha   89.95561519
_cell_angle_beta   90.22146068
_cell_angle_gamma   89.83225670
_symmetry_Int_Tables_number   1
_chemical_formula_structural   In2Te3
_chemical_formula_sum   'In72 Te108'
_cell_volume   6912.86194223
_cell_formula_units_Z   36
loop_
 _symmetry_equiv_pos_site_id
 _symmetry_equiv_pos_as_xyz
  1  'x, y, z'
loop_
 _atom_site_type_symbol
 _atom_site_label
 _atom_site_symmetry_multiplicity
 _atom_site_fract_x
 _atom_site_fract_y
 _atom_site_fract_z
 _atom_site_occupancy
  In  In0  1  0.34250434  0.15356515  0.50164613  1
  In  In1  1  0.33402818  -0.00516728  0.67370227  1
  In  In2  1  0.34344912  0.49126517  0.19441626  1
  In  In3  1  0.67145049  0.01336480  0.64776916  1
  In  In4  1  0.69179739  0.18393485  0.17564983  1
  In  In5  1  0.33202896  0.18125816  0.82885803  1
  In  In6  1  0.82440568  0.64680161  0.17934102  1
  In  In7  1  0.15865148  0.15472513  0.01562855  1
  In  In8  1  -0.04828986  0.18445705  0.19293774  1
  In  In9  1  0.66144669  0.52136324  0.51040316  1
  In  In10  1  0.64355631  0.85452452  0.86103251  1
  In  In11  1  0.33192066  0.82716005  0.13163946  1
  In  In12  1  0.50413732  0.65970371  0.83727288  1
  In  In13  1  0.00020933  0.50885568  0.52295287  1
  In  In14  1  -0.00820158  0.49110781  0.17730288  1
  In  In15  1  0.32789524  0.65685367  0.68104336  1
  In  In16  1  0.51230900  0.46787727  0.65756624  1
  In  In17  1  0.84361196  0.16190252  0.67383722  1
  In  In18  1  0.80618349  0.48825522  0.01394734  1
  In  In19  1  0.52673824  0.31403323  0.84072318  1
  In  In20  1  0.80352336  0.32674465  0.82810848  1
  In  In21  1  0.67692682  0.17995993  0.46848095  1
  In  In22  1  0.81258529  0.01249572  0.48939375  1
  In  In23  1  0.53053062  0.19745086  0.64235312  1
  In  In24  1  -0.00090097  -0.00556104  0.01015144  1
  In  In25  1  -0.00004464  0.82297152  0.46829966  1
  In  In26  1  0.87688198  0.74048855  0.72831824  1
  In  In27  1  -0.00563282  -0.03382076  0.67943188  1
  In  In28  1  0.48017813  0.00181497  0.82583287  1
  In  In29  1  0.34783299  0.33278713  0.34073874  1
  In  In30  1  0.84279027  0.18116871  -0.00090933  1
  In  In31  1  0.14449667  0.65288594  0.11733266  1
  In  In32  1  0.48927309  0.16858867  0.35426256  1
  In  In33  1  0.30779837  0.67930412  0.31190919  1
  In  In34  1  0.01563181  0.15733414  0.85329310  1
  In  In35  1  0.00788594  0.37181791  -0.01979264  1
  In  In36  1  0.68434937  0.85577785  0.47805819  1
  In  In37  1  0.65903808  0.65099630  0.01685681  1
  In  In38  1  0.67540858  0.02311569  0.00890662  1
  In  In39  1  0.83168863  0.83270117  0.31760525  1
  In  In40  1  0.01413862  0.85556268  0.19400548  1
  In  In41  1  -0.02897569  0.19255015  0.49039655  1
  In  In42  1  0.66371301  0.82041853  0.14181663  1
  In  In43  1  0.67935219  0.00326376  0.32617139  1
  In  In44  1  0.35159275  0.65341489  0.00976887  1
  In  In45  1  0.64776451  0.49461224  0.83304555  1
  In  In46  1  0.15759873  0.50524127  0.35384542  1
  In  In47  1  0.47846078  0.65602031  0.49606498  1
  In  In48  1  0.33031919  0.32436132  0.65922734  1
  In  In49  1  0.51356871  0.82725527  0.30353390  1
  In  In50  1  0.50441825  0.14236095  0.00569424  1
  In  In51  1  0.51741674  0.50169635  0.03131761  1
  In  In52  1  0.85169677  0.65454666  0.49974971  1
  In  In53  1  0.02793367  0.79797499  0.84097957  1
  In  In54  1  0.17686428  0.64558519  0.85564917  1
  In  In55  1  0.16117278  0.67211956  0.50291565  1
  In  In56  1  0.15045462  0.82635852  0.00089921  1
  In  In57  1  0.82464392  0.36658635  0.50175276  1
  In  In58  1  0.49760192  0.49743326  0.33101485  1
  In  In59  1  0.49149778  -0.00672627  0.17287012  1
  In  In60  1  0.16771157  0.01042100  0.47243957  1
  In  In61  1  0.48084751  0.82286541  0.65465265  1
  In  In62  1  0.15749047  0.15652170  0.31397062  1
  In  In63  1  0.03015820  0.36255724  0.70742521  1
  In  In64  1  0.31805857  0.86178685  0.47801168  1
  In  In65  1  0.16208123  0.33898911  0.50229402  1
  In  In66  1  0.15442376  0.30872510  0.15960359  1
  In  In67  1  0.51031001  0.32227114  0.18402602  1
  In  In68  1  0.17700834  0.84312693  0.68066524  1
  In  In69  1  0.68366639  0.68592508  0.65290526  1
  In  In70  1  0.17179905  0.18850644  0.69471631  1
  In  In71  1  0.32378627  0.00234715  -0.00881095  1
  Te  Te72  1  0.04943365  0.10204915  0.10275953  1
  Te  Te73  1  0.05853331  0.09493625  0.41243349  1
  Te  Te74  1  0.08072166  0.07589126  0.74289105  1
  Te  Te75  1  0.09808860  0.42893063  0.08789072  1
  Te  Te76  1  0.06048223  0.41115943  0.41735911  1
  Te  Te77  1  0.05646066  0.48173878  0.79300028  1
  Te  Te78  1  0.04263290  0.75570259  0.07514585  1
  Te  Te79  1  0.09517012  0.74268004  0.39414915  1
  Te  Te80  1  0.11023235  0.72357583  0.73806357  1
  Te  Te81  1  0.39867697  0.08348956  0.09498415  1
  Te  Te82  1  0.38970538  0.07011756  0.39310163  1
  Te  Te83  1  0.42270872  0.11456729  0.72708992  1
  Te  Te84  1  0.41849991  0.40661426  0.09515483  1
  Te  Te85  1  0.41046028  0.43071234  0.42670143  1
  Te  Te86  1  0.42828257  0.39351587  0.75647977  1
  Te  Te87  1  0.43850504  0.73329081  0.09602539  1
  Te  Te88  1  0.40880471  0.75895097  0.40756768  1
  Te  Te89  1  0.40785612  0.75422031  0.76604273  1
  Te  Te90  1  0.77815195  0.08714785  0.10017534  1
  Te  Te91  1  0.78366352  0.11024580  0.37150853  1
  Te  Te92  1  0.76081199  0.06860577  0.74780667  1
  Te  Te93  1  0.77181175  0.38018872  0.11037291  1
  Te  Te94  1  0.74345209  0.44893682  0.40817129  1
  Te  Te95  1  0.72600582  0.41436147  0.74052024  1
  Te  Te96  1  0.76856985  0.74017626  0.06919574  1
  Te  Te97  1  0.75844219  0.74242636  0.41458411  1
  Te  Te98  1  0.73047263  0.76058561  0.77237169  1
  Te  Te99  1  0.05995039  0.26282248  0.26564371  1
  Te  Te100  1  0.07467469  0.24979156  0.59543436  1
  Te  Te101  1  0.09637552  0.26344587  0.92204172  1
  Te  Te102  1  0.08994958  0.58443820  0.24489228  1
  Te  Te103  1  0.12019104  0.56197175  0.59015220  1
  Te  Te104  1  0.06262615  0.58007586  0.92923439  1
  Te  Te105  1  0.10559541  0.94922495  0.26289771  1
  Te  Te106  1  0.09406890  0.91190933  0.57301447  1
  Te  Te107  1  0.08536466  0.92342852  0.90673841  1
  Te  Te108  1  0.40237527  0.23320336  0.24438984  1
  Te  Te109  1  0.42515432  0.26572493  0.55761242  1
  Te  Te110  1  0.42313032  0.24577024  0.92922307  1
  Te  Te111  1  0.42299068  0.60629530  0.24809740  1
  Te  Te112  1  0.41071161  0.56566668  0.59347860  1
  Te  Te113  1  0.42925424  0.55889329  0.91978061  1
  Te  Te114  1  0.39553010  0.90450402  0.24629119  1
  Te  Te115  1  0.41931132  0.93135072  0.56734059  1
  Te  Te116  1  0.42217655  0.91651490  0.92651688  1
  Te  Te117  1  0.76861357  0.29151740  0.23881328  1
  Te  Te118  1  0.76340867  0.24373071  0.57437278  1
  Te  Te119  1  0.73454674  0.24162145  0.92207377  1
  Te  Te120  1  0.80594217  0.54945214  0.29291771  1
  Te  Te121  1  0.77278249  0.57591460  0.60087478  1
  Te  Te122  1  0.74004425  0.58398771  0.90999571  1
  Te  Te123  1  0.74825715  0.91777043  0.22541974  1
  Te  Te124  1  0.76801849  0.90700659  0.59063683  1
  Te  Te125  1  0.74858490  0.91821236  0.93775045  1
  Te  Te126  1  0.25516854  0.24332741  0.07923028  1
  Te  Te127  1  0.24158221  0.24118648  0.41820388  1
  Te  Te128  1  0.23994554  0.29243241  0.77882169  1
  Te  Te129  1  0.26100327  0.56104867  0.08636377  1
  Te  Te130  1  0.26389966  0.58646363  0.42147628  1
  Te  Te131  1  0.27484183  0.56034694  0.77740273  1
  Te  Te132  1  0.22665428  0.92864314  0.08135304  1
  Te  Te133  1  0.21745720  0.90714977  0.37853285  1
  Te  Te134  1  0.26262124  0.91673567  0.77175432  1
  Te  Te135  1  0.58929668  0.24307291  0.08147124  1
  Te  Te136  1  0.58933103  0.26653611  0.39067117  1
  Te  Te137  1  0.61816046  0.24852421  0.74635732  1
  Te  Te138  1  0.62188451  0.55412815  0.12212682  1
  Te  Te139  1  0.58354918  0.60041745  0.40628096  1
  Te  Te140  1  0.57800525  0.59568225  0.72284480  1
  Te  Te141  1  0.57752119  0.92464318  0.07261498  1
  Te  Te142  1  0.57439717  0.92611212  0.40295510  1
  Te  Te143  1  0.57401575  0.91730517  0.72896473  1
  Te  Te144  1  0.93164759  0.27792960  0.07167433  1
  Te  Te145  1  0.89702705  0.28351879  0.40527334  1
  Te  Te146  1  0.93311394  0.25045553  0.76271637  1
  Te  Te147  1  0.91207074  0.57495750  0.07859910  1
  Te  Te148  1  0.92780614  0.56833081  0.40677415  1
  Te  Te149  1  0.91614004  0.60124769  0.74417380  1
  Te  Te150  1  0.91866979  0.91322452  0.10028181  1
  Te  Te151  1  0.90986893  0.92601051  0.40657786  1
  Te  Te152  1  0.91959336  0.88565683  0.77818789  1
  Te  Te153  1  0.20429509  0.05716406  0.21975580  1
  Te  Te154  1  0.23547575  0.08715751  0.59234588  1
  Te  Te155  1  0.23896185  0.08889296  0.90083769  1
  Te  Te156  1  0.23725388  0.40455554  0.26304807  1
  Te  Te157  1  0.23617657  0.42127542  0.59843920  1
  Te  Te158  1  0.17742967  0.49118957  0.89724670  1
  Te  Te159  1  0.22653623  0.74757549  0.20570117  1
  Te  Te160  1  0.26914344  0.76088658  0.58003537  1
  Te  Te161  1  0.25995600  0.74915083  0.93357275  1
  Te  Te162  1  0.58406315  0.09000479  0.24494119  1
  Te  Te163  1  0.58540657  0.09023499  0.54986029  1
  Te  Te164  1  0.58608679  0.08126004  0.89515901  1
  Te  Te165  1  0.59249373  0.43242029  0.23745869  1
  Te  Te166  1  0.59615754  0.40072446  0.56098467  1
  Te  Te167  1  0.59521498  0.40645249  0.94168241  1
  Te  Te168  1  0.61852679  0.74021255  0.25485895  1
  Te  Te169  1  0.58150632  0.75853737  0.56064242  1
  Te  Te170  1  0.57081567  0.74782579  0.93906284  1
  Te  Te171  1  0.89622019  0.07840874  0.27345110  1
  Te  Te172  1  0.92599968  0.06890817  0.58161245  1
  Te  Te173  1  0.90898224  0.07345315  0.91439923  1
  Te  Te174  1  0.87014081  0.41976086  0.22809886  1
  Te  Te175  1  0.92538703  0.41191211  0.61178175  1
  Te  Te176  1  0.88897842  0.42665677  0.90373971  1
  Te  Te177  1  0.92413191  0.73841843  0.24912676  1
  Te  Te178  1  0.93536872  0.75004166  0.58160581  1
  Te  Te179  1  0.93243675  0.68322623  0.86943185  1
