# generated using pymatgen
data_In2Te3
_symmetry_space_group_name_H-M   'P 1'
_cell_length_a   18.92203985
_cell_length_b   18.92890853
_cell_length_c   18.92728111
_cell_angle_alpha   90.10835934
_cell_angle_beta   90.12218113
_cell_angle_gamma   89.92409924
_symmetry_Int_Tables_number   1
_chemical_formula_structural   In2Te3
_chemical_formula_sum   'In72 Te108'
_cell_volume   6779.21823838
_cell_formula_units_Z   36
loop_
 _symmetry_equiv_pos_site_id
 _symmetry_equiv_pos_as_xyz
  1  'x, y, z'
loop_
 _atom_site_type_symbol
 _atom_site_label
 _atom_site_symmetry_multiplicity
 _atom_site_fract_x
 _atom_site_fract_y
 _atom_site_fract_z
 _atom_site_occupancy
  In  In0  1  0.67745947  0.34899034  0.67301911  1
  In  In1  1  0.50269236  -0.02182100  0.48447113  1
  In  In2  1  0.00093213  0.83559895  0.16663416  1
  In  In3  1  0.34608551  0.65676181  0.67502615  1
  In  In4  1  0.87581915  0.13957953  0.00671059  1
  In  In5  1  0.46803744  0.32609477  0.85435539  1
  In  In6  1  0.00771339  0.01875202  0.69505751  1
  In  In7  1  0.29965545  0.33881883  0.66857920  1
  In  In8  1  0.00327432  0.69294384  0.31325285  1
  In  In9  1  0.82880131  0.51631802  -0.01621417  1
  In  In10  1  0.79634664  0.10219876  0.31635984  1
  In  In11  1  0.00769626  0.17035392  0.49428977  1
  In  In12  1  0.31662856  0.00827660  -0.00903244  1
  In  In13  1  0.66594839  -0.00680389  0.64406446  1
  In  In14  1  -0.00399302  0.01107974  0.32260752  1
  In  In15  1  0.16430368  0.50299895  0.35649174  1
  In  In16  1  0.66442901  0.49197138  0.17093083  1
  In  In17  1  0.34827034  0.16206073  0.50260489  1
  In  In18  1  0.20064432  0.14842982  0.33131412  1
  In  In19  1  0.84327723  -0.01663815  0.83863867  1
  In  In20  1  0.85067360  0.31467258  0.50149040  1
  In  In21  1  0.63262437  0.32247763  0.33551843  1
  In  In22  1  0.34875910  0.82044504  0.47615014  1
  In  In23  1  0.32824619  0.49724347  0.49887934  1
  In  In24  1  0.00744968  0.66382990  0.68909197  1
  In  In25  1  0.82272628  -0.00269682  0.46680634  1
  In  In26  1  0.82169927  0.83735479  -0.00531491  1
  In  In27  1  -0.02095696  0.48481384  0.50357750  1
  In  In28  1  -0.03099687  0.67830294  0.00278498  1
  In  In29  1  0.34023714  0.33295011  0.33277990  1
  In  In30  1  0.84922726  0.33457472  0.82948904  1
  In  In31  1  -0.00426859  0.85286257  0.51483462  1
  In  In32  1  0.14813046  0.87480094  -0.00646218  1
  In  In33  1  0.32906034  0.83859968  0.84540448  1
  In  In34  1  0.83353803  -0.02511602  0.15968209  1
  In  In35  1  0.30370662  0.14633884  0.14052722  1
  In  In36  1  -0.00381155  0.50074956  0.83675073  1
  In  In37  1  0.65812431  0.33313269  -0.04203965  1
  In  In38  1  0.66823343  0.15580374  0.83854624  1
  In  In39  1  0.50728918  0.52098547  0.65918841  1
  In  In40  1  0.01422371  0.32632739  0.30554672  1
  In  In41  1  0.14260777  0.83063599  0.66711769  1
  In  In42  1  0.80358448  0.80073737  0.68710743  1
  In  In43  1  0.48007766  -0.01742253  0.17699214  1
  In  In44  1  0.50967098  0.33675473  0.15287157  1
  In  In45  1  0.17428062  0.85642506  0.32771917  1
  In  In46  1  0.84347121  0.32745609  0.15659405  1
  In  In47  1  0.64515492  0.67779299  0.31291097  1
  In  In48  1  0.18302248  0.67266820  0.18322715  1
  In  In49  1  0.52324729  0.65426225  0.84649675  1
  In  In50  1  0.17669750  0.30698583  0.14042444  1
  In  In51  1  0.49178011  0.15713202  0.32399124  1
  In  In52  1  0.50767394  0.00391150  0.80998161  1
  In  In53  1  0.66848995  0.51603423  0.51006323  1
  In  In54  1  0.81329428  0.50800819  0.34518488  1
  In  In55  1  0.01502595  0.31275969  0.67424490  1
  In  In56  1  0.47394042  0.17424520  0.68167541  1
  In  In57  1  0.34111613  0.51377715  0.18976450  1
  In  In58  1  0.17294828  0.65367886  0.50105687  1
  In  In59  1  0.80671093  0.67066256  0.49701111  1
  In  In60  1  0.16711748  0.47449263  0.01131414  1
  In  In61  1  0.33210208  0.51753366  0.83299501  1
  In  In62  1  0.33122924  0.01549007  0.67126989  1
  In  In63  1  0.68461873  0.16764418  0.13985906  1
  In  In64  1  0.47749918  0.82217640  0.04601488  1
  In  In65  1  0.18231363  0.67849866  0.85421035  1
  In  In66  1  0.49270439  0.50450453  0.00415245  1
  In  In67  1  0.85459984  0.18077033  0.66852633  1
  In  In68  1  0.64344716  0.83150033  0.46667081  1
  In  In69  1  0.52960999  0.81500863  0.65049969  1
  In  In70  1  0.67851046  0.68424168  0.01706964  1
  In  In71  1  0.15026975  0.30407848  0.85461228  1
  Te  Te72  1  0.11572225  0.10819519  0.02460706  1
  Te  Te73  1  0.09603298  0.07432146  0.41605814  1
  Te  Te74  1  0.11122128  0.07953529  0.78022481  1
  Te  Te75  1  0.07728849  0.41063953  0.10694141  1
  Te  Te76  1  0.07689541  0.39848722  0.42515742  1
  Te  Te77  1  0.09122615  0.41227527  0.75946588  1
  Te  Te78  1  0.09094713  0.74592978  0.08284428  1
  Te  Te79  1  0.08891052  0.75780837  0.42683200  1
  Te  Te80  1  0.07607579  0.76183707  0.78437368  1
  Te  Te81  1  0.42376324  0.08073407  0.07343126  1
  Te  Te82  1  0.40422020  0.06136488  0.40322938  1
  Te  Te83  1  0.39147699  0.09956290  0.78401714  1
  Te  Te84  1  0.40061873  0.41754593  0.08505244  1
  Te  Te85  1  0.42096120  0.42714491  0.41000637  1
  Te  Te86  1  0.41731626  0.42962248  0.74212414  1
  Te  Te87  1  0.40472846  0.72823825  0.14203915  1
  Te  Te88  1  0.46216840  0.77662052  0.39167610  1
  Te  Te89  1  0.42700026  0.75226118  0.76146892  1
  Te  Te90  1  0.75636662  0.06136799  0.05939610  1
  Te  Te91  1  0.72403204  0.10488055  0.44416668  1
  Te  Te92  1  0.75479698  0.08012600  0.73617765  1
  Te  Te93  1  0.73812266  0.40404950  0.07069054  1
  Te  Te94  1  0.74645160  0.39604038  0.42260911  1
  Te  Te95  1  0.75012521  0.42633655  0.77332923  1
  Te  Te96  1  0.75180714  0.77417643  0.10872595  1
  Te  Te97  1  0.75458244  0.75971908  0.38931762  1
  Te  Te98  1  0.72159281  0.71438037  0.77086852  1
  Te  Te99  1  0.10075582  0.21933491  0.23950228  1
  Te  Te100  1  0.10105368  0.22669234  0.59249759  1
  Te  Te101  1  0.07377001  0.24066082  0.96857175  1
  Te  Te102  1  0.08301249  0.57948212  0.25192314  1
  Te  Te103  1  0.07444043  0.57421540  0.58437129  1
  Te  Te104  1  0.08787977  0.58480941  0.92897429  1
  Te  Te105  1  0.09234604  0.93938626  0.22941414  1
  Te  Te106  1  0.08949062  0.94756851  0.58596186  1
  Te  Te107  1  0.08877203  0.95621402  0.88296682  1
  Te  Te108  1  0.40662572  0.24482604  0.22639734  1
  Te  Te109  1  0.41104934  0.27277568  0.58632330  1
  Te  Te110  1  0.40338980  0.24410696  0.95289850  1
  Te  Te111  1  0.44079864  0.61339960  0.23087576  1
  Te  Te112  1  0.42679595  0.60403898  0.56086217  1
  Te  Te113  1  0.40520439  0.60626861  0.93084874  1
  Te  Te114  1  0.43341320  0.88262486  0.27972523  1
  Te  Te115  1  0.41841314  0.90571667  0.59762939  1
  Te  Te116  1  0.43093246  0.92037132  0.92151388  1
  Te  Te117  1  0.74206182  0.25723378  0.25038532  1
  Te  Te118  1  0.74291710  0.24314098  0.58568481  1
  Te  Te119  1  0.77384210  0.23181183  0.92329670  1
  Te  Te120  1  0.75309937  0.59464141  0.23774966  1
  Te  Te121  1  0.78046425  0.56326236  0.59160928  1
  Te  Te122  1  0.74374903  0.60901413  0.90538937  1
  Te  Te123  1  0.74719752  0.96378522  0.28105754  1
  Te  Te124  1  0.75659676  0.89658785  0.56925218  1
  Te  Te125  1  0.73318417  0.91922138  0.90854482  1
  Te  Te126  1  0.27108705  0.25014572  0.03633489  1
  Te  Te127  1  0.25122131  0.25530239  0.42620790  1
  Te  Te128  1  0.25184744  0.24242289  0.76721799  1
  Te  Te129  1  0.25214682  0.57917077  0.08429935  1
  Te  Te130  1  0.26933369  0.60442271  0.39662793  1
  Te  Te131  1  0.23047133  0.58634471  0.74270330  1
  Te  Te132  1  0.25191145  0.91867767  0.08820616  1
  Te  Te133  1  0.24847013  0.91884362  0.43841284  1
  Te  Te134  1  0.24508875  0.91402468  0.74678933  1
  Te  Te135  1  0.58278420  0.24564380  0.05582723  1
  Te  Te136  1  0.55290825  0.24209880  0.42694163  1
  Te  Te137  1  0.58114238  0.25348990  0.75779358  1
  Te  Te138  1  0.58095290  0.59117333  0.09180656  1
  Te  Te139  1  0.58737173  0.58401994  0.40944468  1
  Te  Te140  1  0.60641367  0.60971138  0.72997577  1
  Te  Te141  1  0.58394050  0.90549364  0.10449271  1
  Te  Te142  1  0.61304817  0.95370457  0.38856982  1
  Te  Te143  1  0.60496161  0.90232028  0.74961458  1
  Te  Te144  1  0.94505017  0.24624992  0.08465116  1
  Te  Te145  1  0.92013311  0.23835285  0.39014475  1
  Te  Te146  1  0.94547174  0.22664943  0.77964102  1
  Te  Te147  1  0.90447770  0.58197961  0.09013306  1
  Te  Te148  1  0.92465991  0.59339433  0.41024739  1
  Te  Te149  1  0.90664766  0.59197129  0.76577740  1
  Te  Te150  1  0.93560584  0.92294923  0.06303100  1
  Te  Te151  1  0.91889684  0.90183111  0.39414375  1
  Te  Te152  1  0.91146243  0.90630155  0.72712618  1
  Te  Te153  1  0.26545959  0.04947727  0.24340813  1
  Te  Te154  1  0.24606028  0.10315591  0.59048789  1
  Te  Te155  1  0.20719361  0.07695773  0.91030260  1
  Te  Te156  1  0.23506162  0.41154015  0.25148453  1
  Te  Te157  1  0.22792277  0.43349241  0.58295839  1
  Te  Te158  1  0.25429343  0.41142972  0.90516842  1
  Te  Te159  1  0.27020965  0.77209577  0.25065064  1
  Te  Te160  1  0.25176163  0.75101822  0.59202991  1
  Te  Te161  1  0.25541579  0.76540465  0.95403562  1
  Te  Te162  1  0.58376359  0.09127173  0.22405107  1
  Te  Te163  1  0.55341890  0.07988190  0.59097837  1
  Te  Te164  1  0.57869623  0.07390452  0.91846087  1
  Te  Te165  1  0.55851575  0.43255096  0.26141262  1
  Te  Te166  1  0.57859762  0.41382553  0.57829313  1
  Te  Te167  1  0.57198539  0.43750804  0.89301102  1
  Te  Te168  1  0.55367916  0.78438447  0.25845484  1
  Te  Te169  1  0.60395616  0.72657352  0.56147600  1
  Te  Te170  1  0.57303605  0.76240688  0.93779708  1
  Te  Te171  1  0.91560368  0.09078979  0.22286900  1
  Te  Te172  1  0.91076877  0.07619595  0.57234321  1
  Te  Te173  1  0.95375624  0.05228672  0.91363268  1
  Te  Te174  1  0.90777388  0.42365862  0.25564427  1
  Te  Te175  1  0.90947068  0.40258548  0.61073898  1
  Te  Te176  1  0.92681556  0.40986530  0.93642799  1
  Te  Te177  1  0.89779203  0.75282773  0.23094221  1
  Te  Te178  1  0.91937577  0.74180231  0.58367761  1
  Te  Te179  1  0.91498202  0.76849630  0.90335337  1
