# generated using pymatgen
data_In2Te3
_symmetry_space_group_name_H-M   'P 1'
_cell_length_a   18.76165536
_cell_length_b   18.76639378
_cell_length_c   18.75199531
_cell_angle_alpha   90.00860720
_cell_angle_beta   89.97427936
_cell_angle_gamma   89.91017419
_symmetry_Int_Tables_number   1
_chemical_formula_structural   In2Te3
_chemical_formula_sum   'In72 Te108'
_cell_volume   6602.35515402
_cell_formula_units_Z   36
loop_
 _symmetry_equiv_pos_site_id
 _symmetry_equiv_pos_as_xyz
  1  'x, y, z'
loop_
 _atom_site_type_symbol
 _atom_site_label
 _atom_site_symmetry_multiplicity
 _atom_site_fract_x
 _atom_site_fract_y
 _atom_site_fract_z
 _atom_site_occupancy
  In  In0  1  0.86104424  0.16674331  0.65781122  1
  In  In1  1  0.85099526  0.48761003  -0.01267086  1
  In  In2  1  0.31813164  0.83627163  0.17574559  1
  In  In3  1  0.67943007  -0.01080093  0.66595113  1
  In  In4  1  0.00019061  0.82864907  0.81992588  1
  In  In5  1  0.66448282  0.35674769  0.67268549  1
  In  In6  1  0.04814030  0.16496789  0.77934837  1
  In  In7  1  0.69879152  0.66927861  0.62075519  1
  In  In8  1  0.18308860  0.15768328  -0.00302221  1
  In  In9  1  0.65863293  0.35196544  0.34778502  1
  In  In10  1  0.66658780  0.16831393  0.19183673  1
  In  In11  1  0.15935004  0.18570691  0.35187868  1
  In  In12  1  0.84894198  0.00571084  0.51702317  1
  In  In13  1  0.31868750  0.48699634  0.80551855  1
  In  In14  1  0.83839296  0.81820472  0.34296574  1
  In  In15  1  0.31620866  0.67095725  0.67928586  1
  In  In16  1  0.67601499  0.17990219  0.86027304  1
  In  In17  1  0.49569572  0.67801706  0.20324587  1
  In  In18  1  0.18831454  -0.01466832  0.15542254  1
  In  In19  1  0.31204266  0.66136802  -0.01401070  1
  In  In20  1  0.49832680  0.00205456  0.79106568  1
  In  In21  1  0.84124630  -0.01142688  0.83598156  1
  In  In22  1  0.33116396  0.84293566  0.50396472  1
  In  In23  1  0.85213878  0.32874123  0.49621108  1
  In  In24  1  0.15419976  0.81627896  0.36718960  1
  In  In25  1  0.47853186  0.33687204  0.83578271  1
  In  In26  1  0.83741292  0.67926704  0.16796046  1
  In  In27  1  0.49093200  0.19019428  -0.01083650  1
  In  In28  1  -0.00229325  0.82731694  0.15627413  1
  In  In29  1  0.49949727  0.49852249  0.66471529  1
  In  In30  1  0.81740309  0.33018746  0.16691722  1
  In  In31  1  0.66340434  0.67585395  0.35544073  1
  In  In32  1  0.16111620  0.50322366  -0.01293646  1
  In  In33  1  0.53776539  0.84775365  0.36575081  1
  In  In34  1  0.48541248  0.16630289  0.33260233  1
  In  In35  1  0.51249910  0.02112838  0.16781452  1
  In  In36  1  0.32810091  0.81294644  0.83509655  1
  In  In37  1  0.30063243  0.01378414  -0.02038666  1
  In  In38  1  0.48290087  0.50101338  0.35648768  1
  In  In39  1  0.85642168  -0.02190523  0.18760732  1
  In  In40  1  0.48099615  0.68171346  0.82337848  1
  In  In41  1  0.14764395  0.34932478  0.80512709  1
  In  In42  1  0.29239063  0.45746468  0.17871343  1
  In  In43  1  0.50056470  0.83815467  0.00083484  1
  In  In44  1  0.03659722  0.52029366  0.20264013  1
  In  In45  1  0.87276226  0.65346783  0.79731367  1
  In  In46  1  0.00549645  0.32707497  0.35096998  1
  In  In47  1  0.67318095  0.15308082  0.48627312  1
  In  In48  1  0.66164835  0.50676298  0.18753877  1
  In  In49  1  0.32691913  0.01097003  0.65219709  1
  In  In50  1  0.15358602  0.82922158  0.64258226  1
  In  In51  1  0.86974643  0.50190127  0.36772177  1
  In  In52  1  0.00143976  0.00729188  0.34600672  1
  In  In53  1  0.01711341  0.50630728  0.52763811  1
  In  In54  1  0.33033551  0.18894233  0.17290293  1
  In  In55  1  0.49100575  0.16357582  0.65147671  1
  In  In56  1  0.28844242  0.48354334  0.52362237  1
  In  In57  1  0.32732437  -0.01951525  0.34790401  1
  In  In58  1  0.31368415  0.18509115  0.50712328  1
  In  In59  1  0.68246076  0.67926739  0.00982001  1
  In  In60  1  0.67849004  0.49582872  0.81537600  1
  In  In61  1  0.49897830  0.68233217  0.50244776  1
  In  In62  1  0.48198997  0.48263450  0.02210349  1
  In  In63  1  0.86093054  0.81054069  0.65005047  1
  In  In64  1  0.01348993  -0.01115341  -0.02467267  1
  In  In65  1  0.30675031  0.64809804  0.34733974  1
  In  In66  1  0.66437784  0.29266299  -0.00826056  1
  In  In67  1  0.00817842  0.66483173  -0.00917061  1
  In  In68  1  0.68608606  -0.00436358  -0.01082664  1
  In  In69  1  0.81929686  0.17460352  -0.02193149  1
  In  In70  1  0.01682341  0.17803678  0.19419510  1
  In  In71  1  -0.00929171  0.34996615  -0.01320331  1
  Te  Te72  1  0.07635256  0.07836113  0.09266272  1
  Te  Te73  1  0.08114442  0.09448483  0.43804403  1
  Te  Te74  1  0.09708824  0.04673870  0.70501845  1
  Te  Te75  1  0.07765118  0.42391700  0.08879307  1
  Te  Te76  1  0.09310553  0.42389814  0.42247949  1
  Te  Te77  1  0.04679314  0.44071137  0.74656793  1
  Te  Te78  1  0.09400720  0.74781424  0.07789988  1
  Te  Te79  1  0.06374256  0.74940189  0.46157312  1
  Te  Te80  1  0.07214122  0.73417414  0.72663360  1
  Te  Te81  1  0.40198696  0.07911699  0.07988758  1
  Te  Te82  1  0.40446350  0.08097239  0.43061470  1
  Te  Te83  1  0.39571872  0.10728298  0.75756400  1
  Te  Te84  1  0.38844399  0.38852079  0.08537214  1
  Te  Te85  1  0.39093223  0.41635142  0.43581726  1
  Te  Te86  1  0.39941280  0.39267349  0.71691566  1
  Te  Te87  1  0.41234830  0.73919978  0.07998464  1
  Te  Te88  1  0.40950438  0.75583047  0.39218705  1
  Te  Te89  1  0.42276997  0.77407805  0.71797542  1
  Te  Te90  1  0.75422268  0.08924615  0.09308329  1
  Te  Te91  1  0.76371240  0.06473424  0.41036053  1
  Te  Te92  1  0.75265804  0.09398985  0.75314262  1
  Te  Te93  1  0.73599772  0.42291154  0.07598084  1
  Te  Te94  1  0.75050028  0.43459970  0.44310809  1
  Te  Te95  1  0.77432220  0.44766492  0.71317869  1
  Te  Te96  1  0.75499622  0.77590848  0.09389038  1
  Te  Te97  1  0.75739006  0.74441618  0.44584643  1
  Te  Te98  1  0.76108668  0.74118747  0.74389059  1
  Te  Te99  1  0.11351691  0.28663361  0.23719479  1
  Te  Te100  1  0.12611251  0.25543945  0.60412453  1
  Te  Te101  1  0.08067998  0.24810332  0.91457380  1
  Te  Te102  1  0.11687771  0.59937898  0.29593658  1
  Te  Te103  1  0.09490919  0.59304914  0.62662328  1
  Te  Te104  1  0.07264081  0.57496792  0.89235024  1
  Te  Te105  1  0.08856767  0.91839218  0.25135867  1
  Te  Te106  1  0.05626989  0.93554700  0.60290889  1
  Te  Te107  1  0.10341766  0.91108131  0.88989252  1
  Te  Te108  1  0.40381585  0.27234893  0.26969185  1
  Te  Te109  1  0.41556444  0.26737556  0.57896105  1
  Te  Te110  1  0.38396306  0.24735124  0.90637203  1
  Te  Te111  1  0.39504680  0.56736367  0.24263792  1
  Te  Te112  1  0.40068447  0.58502745  0.57459002  1
  Te  Te113  1  0.41580267  0.56836463  0.90505960  1
  Te  Te114  1  0.42668857  0.91659127  0.24707731  1
  Te  Te115  1  0.42625712  0.92572636  0.58036467  1
  Te  Te116  1  0.41386120  0.92449463  0.90738050  1
  Te  Te117  1  0.75663202  0.25257479  0.28340985  1
  Te  Te118  1  0.74484692  0.24452209  0.58787088  1
  Te  Te119  1  0.77894484  0.29182518  0.88694405  1
  Te  Te120  1  0.76431788  0.58017528  0.27201297  1
  Te  Te121  1  0.76066193  0.56012400  0.54621721  1
  Te  Te122  1  0.75975060  0.58910102  0.91045948  1
  Te  Te123  1  0.75185022  0.91451255  0.26809794  1
  Te  Te124  1  0.75670784  0.89672640  0.57325322  1
  Te  Te125  1  0.74904303  0.89502836  0.90186287  1
  Te  Te126  1  0.24194788  0.26463291  0.08057583  1
  Te  Te127  1  0.25963491  0.28518080  0.40502022  1
  Te  Te128  1  0.22874399  0.25725616  0.71567890  1
  Te  Te129  1  0.24267840  0.57900583  0.09298467  1
  Te  Te130  1  0.20511292  0.56969548  0.42637847  1
  Te  Te131  1  0.21821912  0.57371949  0.73804538  1
  Te  Te132  1  0.24421790  0.88858447  0.05243509  1
  Te  Te133  1  0.21927565  0.93216376  0.44361982  1
  Te  Te134  1  0.25440922  0.90315416  0.73483008  1
  Te  Te135  1  0.56973458  0.25119722  0.10621212  1
  Te  Te136  1  0.57283024  0.25301946  0.42696763  1
  Te  Te137  1  0.58067550  0.24411958  0.75583403  1
  Te  Te138  1  0.57681405  0.59108651  0.08427698  1
  Te  Te139  1  0.58753644  0.57329607  0.43959913  1
  Te  Te140  1  0.58613452  0.59714407  0.74275083  1
  Te  Te141  1  0.59509420  0.91958487  0.08900766  1
  Te  Te142  1  0.59264456  0.94411995  0.45756401  1
  Te  Te143  1  0.60031115  0.90241463  0.75737379  1
  Te  Te144  1  0.91513414  0.24409979  0.08513622  1
  Te  Te145  1  0.93399694  0.22437233  0.42943876  1
  Te  Te146  1  0.93865003  0.25754536  0.74479739  1
  Te  Te147  1  0.92216910  0.57405830  0.09305076  1
  Te  Te148  1  0.93867185  0.61078177  0.44441496  1
  Te  Te149  1  0.95691880  0.57431121  0.70095038  1
  Te  Te150  1  0.91127115  0.91258956  0.06105496  1
  Te  Te151  1  0.93142123  0.90364291  0.43097137  1
  Te  Te152  1  0.92690189  0.92869384  0.72508820  1
  Te  Te153  1  0.24626382  0.08426835  0.25949873  1
  Te  Te154  1  0.22003586  0.10296497  0.59364175  1
  Te  Te155  1  0.22030002  0.08115042  0.87508807  1
  Te  Te156  1  0.21701878  0.40118134  0.29374466  1
  Te  Te157  1  0.20411726  0.38722090  0.60768090  1
  Te  Te158  1  0.24675346  0.40250686  0.90973069  1
  Te  Te159  1  0.22695505  0.74082411  0.25096753  1
  Te  Te160  1  0.24366587  0.73236151  0.55913457  1
  Te  Te161  1  0.22162134  0.72676204  0.89061175  1
  Te  Te162  1  0.59658175  0.06944914  0.28477636  1
  Te  Te163  1  0.57874157  0.06337567  0.57213739  1
  Te  Te164  1  0.57149969  0.07717427  0.92024999  1
  Te  Te165  1  0.55917966  0.41410974  0.24868958  1
  Te  Te166  1  0.57093495  0.40870249  0.57144678  1
  Te  Te167  1  0.58308857  0.41615588  0.91545235  1
  Te  Te168  1  0.60724261  0.76803923  0.24655376  1
  Te  Te169  1  0.58983412  0.76291379  0.58474729  1
  Te  Te170  1  0.58687336  0.75114041  0.90933072  1
  Te  Te171  1  0.90733410  0.09978278  0.26521648  1
  Te  Te172  1  0.96095844  0.08944056  0.57606675  1
  Te  Te173  1  0.92870877  0.09655428  0.90135004  1
  Te  Te174  1  0.91745833  0.41378731  0.24758778  1
  Te  Te175  1  0.94041984  0.39568870  0.59511555  1
  Te  Te176  1  0.94024996  0.43968828  0.87621948  1
  Te  Te177  1  0.94246044  0.73398640  0.26372106  1
  Te  Te178  1  0.94792240  0.72392574  0.56559616  1
  Te  Te179  1  0.90662195  0.74873872  0.91353142  1
