# generated using pymatgen
data_In2Te3
_symmetry_space_group_name_H-M   'P 1'
_cell_length_a   19.02503206
_cell_length_b   18.96485056
_cell_length_c   18.95301448
_cell_angle_alpha   90.20249312
_cell_angle_beta   89.95130451
_cell_angle_gamma   89.95281943
_symmetry_Int_Tables_number   1
_chemical_formula_structural   In2Te3
_chemical_formula_sum   'In72 Te108'
_cell_volume   6838.33069485
_cell_formula_units_Z   36
loop_
 _symmetry_equiv_pos_site_id
 _symmetry_equiv_pos_as_xyz
  1  'x, y, z'
loop_
 _atom_site_type_symbol
 _atom_site_label
 _atom_site_symmetry_multiplicity
 _atom_site_fract_x
 _atom_site_fract_y
 _atom_site_fract_z
 _atom_site_occupancy
  In  In0  1  0.52828930  0.34137591  0.46073333  1
  In  In1  1  0.52291518  0.81871001  0.33231619  1
  In  In2  1  0.19663489  0.86237497  0.01022940  1
  In  In3  1  -0.01933489  0.15145452  0.15800839  1
  In  In4  1  0.38866350  0.17298253  0.83987704  1
  In  In5  1  0.50890762  0.05179385  0.81909222  1
  In  In6  1  0.85468245  0.35853272  0.15868464  1
  In  In7  1  0.84042720  0.53959853  0.03870245  1
  In  In8  1  0.34409783  0.46587725  0.82327921  1
  In  In9  1  0.50257438  0.64976392  0.47561639  1
  In  In10  1  0.85802952  0.16132314  0.35506754  1
  In  In11  1  0.33791458  0.48304076  0.48329395  1
  In  In12  1  0.84329587  0.00031761  0.81447473  1
  In  In13  1  0.31530562  0.00816808  0.01273119  1
  In  In14  1  -0.00140545  0.35340126  -0.03169608  1
  In  In15  1  0.83639100  0.83461429  0.67347820  1
  In  In16  1  0.16923940  0.28982361  0.18955971  1
  In  In17  1  0.83160398  0.18287284  0.64711406  1
  In  In18  1  0.34671529  0.83193178  0.15030700  1
  In  In19  1  0.00611539  0.17289659  0.51226437  1
  In  In20  1  0.15054030  0.67029635  0.18555553  1
  In  In21  1  0.35524042  0.67841391  0.35465640  1
  In  In22  1  0.53809522  0.49344364  0.30944583  1
  In  In23  1  0.13910211  0.47764102  0.32796075  1
  In  In24  1  -0.00779474  0.82697543  0.48505765  1
  In  In25  1  0.16731478  0.49040035  0.65007691  1
  In  In26  1  0.50043952  0.46638968  0.00577321  1
  In  In27  1  0.67345494  0.81896171  0.48255488  1
  In  In28  1  0.68807307  0.82306759  0.82909310  1
  In  In29  1  0.52370551  0.00989646  0.18540675  1
  In  In30  1  0.35029281  0.20839000  0.43506537  1
  In  In31  1  0.48882377  0.00970112  0.50366149  1
  In  In32  1  0.50680525  0.49988323  0.65380161  1
  In  In33  1  0.34238727  0.69638656  -0.00091378  1
  In  In34  1  0.15016731  0.83213810  0.34316717  1
  In  In35  1  0.83585686  0.66505575  0.82495862  1
  In  In36  1  0.13134993  0.81172324  0.64940668  1
  In  In37  1  0.81498638  0.40501401  0.52385903  1
  In  In38  1  0.16566101  0.17525921  0.67153923  1
  In  In39  1  0.31258065  0.35930185  0.01477656  1
  In  In40  1  0.66437120  0.66091656  0.05404188  1
  In  In41  1  0.68622215  0.17533083  0.48846218  1
  In  In42  1  0.69632726  0.32024013  0.32847549  1
  In  In43  1  0.17796792  0.69445851  0.48900854  1
  In  In44  1  0.16284937  0.35222079  0.80117089  1
  In  In45  1  0.82576065  0.80789986  0.00448567  1
  In  In46  1  0.83722079  0.62038761  0.50874806  1
  In  In47  1  0.49060928  0.85471888  0.01497363  1
  In  In48  1  0.51717143  0.18981753  0.02501807  1
  In  In49  1  0.66209013  -0.00108753  0.02901937  1
  In  In50  1  0.82142959  0.33737960  0.83714373  1
  In  In51  1  0.30738681  0.00731982  0.69683866  1
  In  In52  1  -0.03350628  0.36066081  0.34837620  1
  In  In53  1  0.33148461  0.82549442  0.81127888  1
  In  In54  1  -0.02051075  0.16670393  0.81535108  1
  In  In55  1  0.15936743  0.61710802  0.82135564  1
  In  In56  1  0.51897459  0.81618057  0.66582960  1
  In  In57  1  -0.00212514  0.82473111  0.17101886  1
  In  In58  1  0.84460442  0.82349010  0.32012438  1
  In  In59  1  0.14232748  0.19111536  0.02599513  1
  In  In60  1  0.36111070  0.33959910  0.65291333  1
  In  In61  1  0.32849050  0.50932643  0.17448917  1
  In  In62  1  0.82009951  0.16031801  -0.02516872  1
  In  In63  1  -0.02236404  0.60790011  0.65998583  1
  In  In64  1  0.12121912  0.52085005  0.02208949  1
  In  In65  1  0.16927093  0.03024887  0.46779901  1
  In  In66  1  0.30753820  0.87032284  0.51707374  1
  In  In67  1  0.81812425  -0.02966202  0.17089086  1
  In  In68  1  0.67225976  0.48538976  0.85024193  1
  In  In69  1  0.52077834  0.64468841  0.86387237  1
  In  In70  1  0.67450404  0.01670912  0.67870525  1
  In  In71  1  0.14734302  0.02523083  0.84847098  1
  Te  Te72  1  0.08620636  0.07441014  0.09062498  1
  Te  Te73  1  0.07879637  0.11967653  0.39213504  1
  Te  Te74  1  0.06763637  0.07602078  0.73031016  1
  Te  Te75  1  0.08763791  0.39067604  0.08369263  1
  Te  Te76  1  0.07264052  0.40977042  0.43731077  1
  Te  Te77  1  0.06374153  0.44209424  0.74485197  1
  Te  Te78  1  0.10217483  0.76094846  0.07676538  1
  Te  Te79  1  0.06056917  0.72276899  0.39671373  1
  Te  Te80  1  0.06875997  0.70832510  0.73867623  1
  Te  Te81  1  0.43305517  0.07428952  0.08078085  1
  Te  Te82  1  0.41598115  0.07717865  0.39336031  1
  Te  Te83  1  0.42034364  0.10715461  0.70080284  1
  Te  Te84  1  0.41707483  0.39985852  0.11706047  1
  Te  Te85  1  0.42340263  0.41584397  0.38015630  1
  Te  Te86  1  0.45885452  0.39706163  0.75537617  1
  Te  Te87  1  0.44787130  0.73106829  0.09946768  1
  Te  Te88  1  0.41785754  0.78173475  0.44813729  1
  Te  Te89  1  0.43860856  0.73034239  0.76218572  1
  Te  Te90  1  0.75992795  0.09188156  0.09548409  1
  Te  Te91  1  0.76527780  0.07169606  0.42266728  1
  Te  Te92  1  0.75526586  0.11232624  0.76229248  1
  Te  Te93  1  0.75160263  0.43589285  0.09165966  1
  Te  Te94  1  0.76389460  0.44365102  0.38322514  1
  Te  Te95  1  0.71055671  0.38254891  0.75157628  1
  Te  Te96  1  0.76574065  0.74668095  0.12584095  1
  Te  Te97  1  0.77610641  0.72721105  0.41966801  1
  Te  Te98  1  0.73919834  0.72925906  0.72427810  1
  Te  Te99  1  0.03088130  0.26360066  0.24684807  1
  Te  Te100  1  0.08334090  0.26709285  0.59473245  1
  Te  Te101  1  0.09224352  0.24500699  0.89326014  1
  Te  Te102  1  0.06406490  0.55720793  0.22639978  1
  Te  Te103  1  0.09596467  0.58966816  0.56102303  1
  Te  Te104  1  0.04986305  0.58642158  0.91434375  1
  Te  Te105  1  0.06541460  0.91752861  0.26305173  1
  Te  Te106  1  0.09545391  0.91923851  0.54886973  1
  Te  Te107  1  0.09127000  0.91508015  0.92496111  1
  Te  Te108  1  0.37735364  0.19935424  0.28664919  1
  Te  Te109  1  0.43897199  0.25890448  0.55225310  1
  Te  Te110  1  0.42239480  0.27864344  0.94452563  1
  Te  Te111  1  0.42730391  0.58989899  0.25649889  1
  Te  Te112  1  0.40747020  0.58251918  0.57383357  1
  Te  Te113  1  0.40540538  0.56662677  0.92886754  1
  Te  Te114  1  0.43024909  0.90798153  0.25229572  1
  Te  Te115  1  0.41639581  0.92009289  0.61824379  1
  Te  Te116  1  0.39530325  0.91715773  0.91412865  1
  Te  Te117  1  0.79603650  0.24661833  0.24312306  1
  Te  Te118  1  0.73698015  0.28176588  0.58232236  1
  Te  Te119  1  0.73220763  0.27277882  0.93844608  1
  Te  Te120  1  0.70184078  0.61594382  0.19630680  1
  Te  Te121  1  0.73914777  0.52937840  0.57220483  1
  Te  Te122  1  0.73751085  0.60439318  0.93138568  1
  Te  Te123  1  0.73025801  0.89722470  0.26243817  1
  Te  Te124  1  0.73743558  0.91206969  0.58965324  1
  Te  Te125  1  0.75123506  0.92728837  0.92066632  1
  Te  Te126  1  0.27429287  0.23048608  0.08435693  1
  Te  Te127  1  0.20866241  0.22455862  0.39263322  1
  Te  Te128  1  0.27266537  0.26046637  0.75164873  1
  Te  Te129  1  0.24874517  0.59748911  0.07869777  1
  Te  Te130  1  0.24721253  0.58175131  0.40297915  1
  Te  Te131  1  0.27339517  0.56343356  0.73474000  1
  Te  Te132  1  0.24455339  0.94292447  0.13004769  1
  Te  Te133  1  0.25714231  0.93276896  0.38982736  1
  Te  Te134  1  0.21079043  0.90414059  0.74956829  1
  Te  Te135  1  0.59851622  0.23330040  0.14062360  1
  Te  Te136  1  0.58663553  0.22311536  0.38431633  1
  Te  Te137  1  0.52968756  0.19716144  0.78364087  1
  Te  Te138  1  0.56995693  0.55519654  0.10220075  1
  Te  Te139  1  0.61183696  0.59852381  0.38794554  1
  Te  Te140  1  0.59534269  0.57714533  0.75216330  1
  Te  Te141  1  0.59898716  0.89318235  0.11421205  1
  Te  Te142  1  0.58666065  0.92710903  0.41883694  1
  Te  Te143  1  0.58178296  0.92145694  0.76672238  1
  Te  Te144  1  0.91808638  0.25456370  0.05114815  1
  Te  Te145  1  0.89702184  0.27428869  0.45185507  1
  Te  Te146  1  0.91832345  0.27506569  0.73417562  1
  Te  Te147  1  0.93863467  0.61040156  0.12295121  1
  Te  Te148  1  0.90665457  0.53176482  0.40854526  1
  Te  Te149  1  0.86308170  0.54682192  0.73748308  1
  Te  Te150  1  0.91663937  0.90880542  0.07375990  1
  Te  Te151  1  0.90490247  0.91934538  0.41487950  1
  Te  Te152  1  0.93670001  0.91097657  0.74653923  1
  Te  Te153  1  0.23047027  0.16261495  0.25365896  1
  Te  Te154  1  0.25285104  0.09012606  0.57963046  1
  Te  Te155  1  0.26612634  0.09848747  0.90189276  1
  Te  Te156  1  0.24884538  0.40669328  0.25275036  1
  Te  Te157  1  0.24934370  0.39245570  0.56534430  1
  Te  Te158  1  0.22345753  0.43409399  0.91820587  1
  Te  Te159  1  0.26204975  0.75110231  0.25504619  1
  Te  Te160  1  0.26313011  0.75152098  0.60089059  1
  Te  Te161  1  0.24236519  0.73127206  0.89132543  1
  Te  Te162  1  0.60585191  0.11849328  0.23888765  1
  Te  Te163  1  0.59164522  0.09319084  0.57902540  1
  Te  Te164  1  0.60005825  0.09751043  0.93458996  1
  Te  Te165  1  0.59240134  0.37541307  0.23521929  1
  Te  Te166  1  0.59210915  0.44712650  0.54409264  1
  Te  Te167  1  0.60165319  0.38510717  0.93556490  1
  Te  Te168  1  0.61356504  0.71447587  0.28146783  1
  Te  Te169  1  0.59558303  0.72467761  0.57325390  1
  Te  Te170  1  0.58575003  0.76730042  0.92704434  1
  Te  Te171  1  0.91257680  0.05649223  0.25347591  1
  Te  Te172  1  0.91350803  0.08250834  0.58031546  1
  Te  Te173  1  0.92940939  0.07057394  0.92030792  1
  Te  Te174  1  0.88161349  0.46352728  0.26776639  1
  Te  Te175  1  0.92330948  0.46932416  0.61104816  1
  Te  Te176  1  0.89076139  0.44461753  0.92365064  1
  Te  Te177  1  0.91753187  0.71569534  0.23693326  1
  Te  Te178  1  0.91722742  0.73712622  0.58497965  1
  Te  Te179  1  0.91923859  0.75050381  0.90858488  1
