# generated using pymatgen
data_In2Te3
_symmetry_space_group_name_H-M   'P 1'
_cell_length_a   18.78514199
_cell_length_b   18.77933931
_cell_length_c   18.78100842
_cell_angle_alpha   90.04924284
_cell_angle_beta   89.97659664
_cell_angle_gamma   89.95531413
_symmetry_Int_Tables_number   1
_chemical_formula_structural   In2Te3
_chemical_formula_sum   'In72 Te108'
_cell_volume   6625.41931894
_cell_formula_units_Z   36
loop_
 _symmetry_equiv_pos_site_id
 _symmetry_equiv_pos_as_xyz
  1  'x, y, z'
loop_
 _atom_site_type_symbol
 _atom_site_label
 _atom_site_symmetry_multiplicity
 _atom_site_fract_x
 _atom_site_fract_y
 _atom_site_fract_z
 _atom_site_occupancy
  In  In0  1  0.17350289  0.48719457  0.65324576  1
  In  In1  1  0.34885663  0.33466847  0.32407325  1
  In  In2  1  0.80856304  0.49345996  -0.02080228  1
  In  In3  1  0.79871673  0.50307993  0.34162915  1
  In  In4  1  0.01241848  0.17112048  0.81149427  1
  In  In5  1  -0.00167736  0.34322061  0.00509909  1
  In  In6  1  0.00084406  0.33050045  0.66397317  1
  In  In7  1  0.17035958  0.50052519  0.33950951  1
  In  In8  1  0.65809048  0.64025887  -0.01673586  1
  In  In9  1  0.17015795  0.01777790  0.49883025  1
  In  In10  1  0.01700199  -0.00584460  0.00270518  1
  In  In11  1  0.82532825  0.81712822  -0.03001320  1
  In  In12  1  0.33899147  0.82325886  0.16471310  1
  In  In13  1  0.52074298  0.82368989  0.68602180  1
  In  In14  1  0.01211140  0.83045290  0.49344991  1
  In  In15  1  0.68328420  0.19170965  0.51635379  1
  In  In16  1  0.16204791  0.84209092  -0.00915749  1
  In  In17  1  0.64487822  0.81186147  0.51838782  1
  In  In18  1  0.18810862  0.15624542  -0.02407225  1
  In  In19  1  0.34228944  0.66148950  0.66243299  1
  In  In20  1  0.51583887  0.34380011  0.83014543  1
  In  In21  1  0.67485545  0.49531250  0.51642963  1
  In  In22  1  0.49378751  0.65051611  0.50434071  1
  In  In23  1  0.85185795  0.17722501  0.34120286  1
  In  In24  1  0.34866031  0.82766104  0.82792048  1
  In  In25  1  0.66714688  0.83386812  0.81893994  1
  In  In26  1  0.63627094  0.16190460  0.86629375  1
  In  In27  1  0.83838084  0.80897049  0.35061201  1
  In  In28  1  0.00719643  0.49776417  0.15213195  1
  In  In29  1  0.00077536  0.68786400  0.33338543  1
  In  In30  1  0.84420466  0.83086392  0.68222563  1
  In  In31  1  0.49855704  0.82758746  0.00578961  1
  In  In32  1  0.30918215  0.31787116  0.69877664  1
  In  In33  1  0.83250048  -0.00960965  0.83329324  1
  In  In34  1  0.00462418  0.32528504  0.35113121  1
  In  In35  1  0.34685897  0.00838540  0.66914632  1
  In  In36  1  0.66045485  0.19072568  0.14379605  1
  In  In37  1  -0.00880608  0.66413636  -0.00712749  1
  In  In38  1  0.46141140  0.03081303  0.12126346  1
  In  In39  1  0.02413134  0.02281833  0.35674841  1
  In  In40  1  0.32889797  0.65650049  0.34183684  1
  In  In41  1  0.81640830  0.65909005  0.50225951  1
  In  In42  1  -0.00274660  0.84090679  0.84556349  1
  In  In43  1  0.51156324  0.35789276  0.51419202  1
  In  In44  1  0.81307263  0.01955956  0.16741739  1
  In  In45  1  0.36630699  0.49898057  0.85228339  1
  In  In46  1  0.49211113  0.49593650  0.31987236  1
  In  In47  1  0.17223934  0.82305108  0.66463987  1
  In  In48  1  0.63942880  0.81219268  0.15822612  1
  In  In49  1  0.65677008  0.49682513  0.15403162  1
  In  In50  1  0.19642219  0.03139029  0.14906999  1
  In  In51  1  0.67580350  -0.01953285  0.67404334  1
  In  In52  1  0.16516778  0.33877503  0.18160963  1
  In  In53  1  0.48083205  -0.00605948  0.53572873  1
  In  In54  1  0.30617344  -0.01147501  0.31291591  1
  In  In55  1  -0.00978129  0.83874144  0.17953818  1
  In  In56  1  0.20778753  0.63709805  0.12971632  1
  In  In57  1  0.65945609  -0.00503257  0.32291964  1
  In  In58  1  0.49786092  0.17932188  0.33678577  1
  In  In59  1  0.50383729  0.81301931  0.32107959  1
  In  In60  1  0.48797323  0.16843135  0.69247794  1
  In  In61  1  0.15852270  0.84077196  0.35406587  1
  In  In62  1  0.82377878  0.35373925  0.16239649  1
  In  In63  1  0.32251680  0.17084506  0.48621133  1
  In  In64  1  0.84548316  0.17851612  0.65356748  1
  In  In65  1  0.85463444  0.03561983  0.52860916  1
  In  In66  1  -0.00448817  0.49219664  0.52662915  1
  In  In67  1  0.83139260  0.19469465  -0.00978481  1
  In  In68  1  0.33195723  0.33924408  -0.01280655  1
  In  In69  1  0.16904077  0.67346117  0.84488515  1
  In  In70  1  -0.00277957  0.51082116  0.80439955  1
  In  In71  1  0.49972603  0.33710512  0.14651221  1
  Te  Te72  1  0.08088397  0.10460267  0.08209995  1
  Te  Te73  1  0.09712123  0.12974965  0.42949089  1
  Te  Te74  1  0.12867806  0.09594701  0.76288623  1
  Te  Te75  1  0.11085477  0.42740824  0.06680028  1
  Te  Te76  1  0.09370563  0.41258802  0.43862137  1
  Te  Te77  1  0.09622848  0.40420617  0.75750397  1
  Te  Te78  1  0.08133436  0.75177843  0.08447393  1
  Te  Te79  1  0.10634134  0.72315166  0.43784727  1
  Te  Te80  1  0.07236810  0.74525415  0.75103445  1
  Te  Te81  1  0.39790305  0.12641272  0.02545561  1
  Te  Te82  1  0.42108338  0.07065618  0.41272283  1
  Te  Te83  1  0.38692016  0.10229368  0.78102220  1
  Te  Te84  1  0.40658182  0.43413070  0.07899715  1
  Te  Te85  1  0.40714342  0.43005545  0.42889566  1
  Te  Te86  1  0.42058265  0.41479031  0.73320050  1
  Te  Te87  1  0.42950527  0.72965428  0.09520084  1
  Te  Te88  1  0.41222235  0.75489475  0.42661288  1
  Te  Te89  1  0.43856458  0.72099260  0.76587343  1
  Te  Te90  1  0.73740230  0.08875513  0.05749941  1
  Te  Te91  1  0.74583353  0.08142780  0.41539314  1
  Te  Te92  1  0.75318595  0.08922742  0.74850456  1
  Te  Te93  1  0.72177991  0.39502104  0.05756668  1
  Te  Te94  1  0.75648840  0.39918134  0.43457562  1
  Te  Te95  1  0.69964894  0.45136628  0.80524899  1
  Te  Te96  1  0.74142827  0.73817396  0.06980269  1
  Te  Te97  1  0.71978720  0.73432694  0.40782688  1
  Te  Te98  1  0.73520045  0.74087857  0.72634679  1
  Te  Te99  1  0.07258775  0.24512117  0.24760819  1
  Te  Te100  1  0.05110009  0.23028314  0.56528344  1
  Te  Te101  1  0.08671334  0.25635299  0.91579592  1
  Te  Te102  1  0.08700353  0.59377254  0.24170103  1
  Te  Te103  1  0.07521512  0.58720193  0.60641997  1
  Te  Te104  1  0.08635803  0.57033809  0.92120193  1
  Te  Te105  1  0.09232353  0.93172381  0.24559224  1
  Te  Te106  1  0.08538850  0.92526023  0.58655420  1
  Te  Te107  1  0.10524702  0.94141250  0.89030002  1
  Te  Te108  1  0.41242762  0.23681235  0.22476760  1
  Te  Te109  1  0.42501877  0.24453021  0.57545709  1
  Te  Te110  1  0.43021370  0.24961687  0.91436448  1
  Te  Te111  1  0.41280479  0.59166846  0.23896987  1
  Te  Te112  1  0.42156871  0.55645522  0.59297401  1
  Te  Te113  1  0.41573018  0.59601813  0.95429862  1
  Te  Te114  1  0.42831349  0.92529164  0.24490171  1
  Te  Te115  1  0.40693621  0.87952153  0.60145368  1
  Te  Te116  1  0.42079111  0.92282734  0.91929383  1
  Te  Te117  1  0.75127671  0.25224424  0.25195928  1
  Te  Te118  1  0.75847855  0.28746139  0.59862758  1
  Te  Te119  1  0.73818484  0.26373079  0.90005809  1
  Te  Te120  1  0.74498006  0.58568867  0.23370663  1
  Te  Te121  1  0.77603853  0.56156818  0.60722594  1
  Te  Te122  1  0.75185684  0.58806451  0.87391558  1
  Te  Te123  1  0.75368681  0.90098279  0.24587537  1
  Te  Te124  1  0.75828079  0.90894542  0.56600494  1
  Te  Te125  1  0.72835304  0.92597274  0.92362088  1
  Te  Te126  1  0.24636346  0.25281479  0.08165932  1
  Te  Te127  1  0.24486229  0.26601943  0.40498482  1
  Te  Te128  1  0.22997577  0.21223241  0.76466464  1
  Te  Te129  1  0.29216202  0.55374757  0.03516677  1
  Te  Te130  1  0.25418573  0.57290058  0.43761967  1
  Te  Te131  1  0.25531261  0.57903375  0.76173335  1
  Te  Te132  1  0.26603257  0.92116200  0.07203738  1
  Te  Te133  1  0.26477719  0.91314962  0.43772175  1
  Te  Te134  1  0.25133647  0.91800112  0.75325626  1
  Te  Te135  1  0.56873813  0.25172246  0.04464038  1
  Te  Te136  1  0.59219664  0.26665446  0.41815963  1
  Te  Te137  1  0.60406250  0.25074205  0.74367458  1
  Te  Te138  1  0.55687389  0.56396124  0.06360659  1
  Te  Te139  1  0.58683366  0.57149348  0.41361797  1
  Te  Te140  1  0.57674156  0.53534747  0.78837737  1
  Te  Te141  1  0.57892867  0.93127046  0.08876183  1
  Te  Te142  1  0.57622232  0.91609652  0.42507158  1
  Te  Te143  1  0.55580644  0.95193560  0.76674984  1
  Te  Te144  1  0.92042795  0.25205536  0.10022934  1
  Te  Te145  1  0.91548897  0.25627651  0.44986824  1
  Te  Te146  1  0.90166736  0.26430710  0.76771779  1
  Te  Te147  1  0.89902081  0.57452324  0.07627211  1
  Te  Te148  1  0.92130092  0.58213354  0.41094474  1
  Te  Te149  1  0.89836635  0.61101363  0.76292371  1
  Te  Te150  1  0.90752938  0.90960955  0.07060242  1
  Te  Te151  1  0.91564311  0.92600747  0.41381981  1
  Te  Te152  1  0.93886245  0.93672126  0.73839718  1
  Te  Te153  1  0.24861962  0.11235443  0.26046661  1
  Te  Te154  1  0.24678141  0.10484526  0.60128716  1
  Te  Te155  1  0.29543447  0.06535922  0.92638407  1
  Te  Te156  1  0.26741823  0.43575125  0.24105427  1
  Te  Te157  1  0.24340971  0.37811787  0.58142985  1
  Te  Te158  1  0.25397010  0.40552883  0.87891920  1
  Te  Te159  1  0.23398205  0.75285793  0.25020403  1
  Te  Te160  1  0.24942280  0.73630591  0.57437560  1
  Te  Te161  1  0.26775957  0.74857040  0.93348681  1
  Te  Te162  1  0.58013068  0.09238096  0.23612526  1
  Te  Te163  1  0.59187074  0.08604276  0.58782090  1
  Te  Te164  1  0.55184592  0.04591104  0.89416495  1
  Te  Te165  1  0.59070878  0.40007884  0.25338407  1
  Te  Te166  1  0.58370669  0.43480329  0.61876747  1
  Te  Te167  1  0.57797864  0.45389917  0.91606071  1
  Te  Te168  1  0.57774965  0.71093226  0.24521017  1
  Te  Te169  1  0.59069038  0.70645467  0.61303588  1
  Te  Te170  1  0.57781833  0.74400869  0.90322279  1
  Te  Te171  1  0.92528546  0.07986426  0.24775432  1
  Te  Te172  1  0.96779482  0.10302690  0.60220958  1
  Te  Te173  1  0.91983345  0.08305254  0.91956435  1
  Te  Te174  1  0.92279481  0.42504742  0.25695144  1
  Te  Te175  1  0.89814961  0.43285276  0.62277984  1
  Te  Te176  1  0.91519351  0.41709840  0.90160005  1
  Te  Te177  1  0.89523891  0.73061693  0.23077964  1
  Te  Te178  1  0.91956122  0.74549787  0.57911087  1
  Te  Te179  1  0.90026678  0.71840248  0.87699217  1
