# generated using pymatgen
data_In2Te3
_symmetry_space_group_name_H-M   'P 1'
_cell_length_a   18.94710333
_cell_length_b   18.94377573
_cell_length_c   18.93879652
_cell_angle_alpha   90.05159353
_cell_angle_beta   90.06403075
_cell_angle_gamma   89.93311201
_symmetry_Int_Tables_number   1
_chemical_formula_structural   In2Te3
_chemical_formula_sum   'In72 Te108'
_cell_volume   6797.68448008
_cell_formula_units_Z   36
loop_
 _symmetry_equiv_pos_site_id
 _symmetry_equiv_pos_as_xyz
  1  'x, y, z'
loop_
 _atom_site_type_symbol
 _atom_site_label
 _atom_site_symmetry_multiplicity
 _atom_site_fract_x
 _atom_site_fract_y
 _atom_site_fract_z
 _atom_site_occupancy
  In  In0  1  0.47425223  0.33868979  0.47656961  1
  In  In1  1  0.17231811  0.34654771  0.81046802  1
  In  In2  1  0.18021406  0.81909375  0.66514544  1
  In  In3  1  0.63179759  0.83615109  0.16956953  1
  In  In4  1  0.50397641  0.02984303  0.48944187  1
  In  In5  1  0.67252264  0.64711059  0.67172037  1
  In  In6  1  0.32809475  0.33857324  0.65142481  1
  In  In7  1  0.50143369  0.32631352  0.18420268  1
  In  In8  1  0.83361187  0.84444484  -0.00457312  1
  In  In9  1  0.18098009  0.64888423  0.14756916  1
  In  In10  1  0.49963091  0.17062958  0.69624636  1
  In  In11  1  0.31005621  0.80095393  0.85770834  1
  In  In12  1  0.00817610  0.69002211  0.35175780  1
  In  In13  1  0.02079940  0.85053626  0.46689979  1
  In  In14  1  0.50338860  0.48742216  0.66433257  1
  In  In15  1  0.49152334  0.82293175  0.00994023  1
  In  In16  1  0.85496362  0.83697735  0.67346691  1
  In  In17  1  0.48192928  0.75721255  0.32288883  1
  In  In18  1  0.66570600  0.33486141  0.34622977  1
  In  In19  1  -0.01113495  0.02447966  0.29652809  1
  In  In20  1  0.01659100  0.64577717  0.65980653  1
  In  In21  1  0.34475679  0.82796719  0.15605576  1
  In  In22  1  0.81960983  0.69338809  0.49886125  1
  In  In23  1  0.64758264  0.64379027  0.01302198  1
  In  In24  1  0.47852342  0.17031227  0.32456942  1
  In  In25  1  0.84851966  0.51031718  0.64778642  1
  In  In26  1  0.15024434  0.18432328  0.64442209  1
  In  In27  1  0.64320540  0.33848525  0.01561258  1
  In  In28  1  -0.01197413  0.81021127  0.17159100  1
  In  In29  1  0.81054650  0.64348611  0.15756066  1
  In  In30  1  -0.00382967  0.51550498  0.85219407  1
  In  In31  1  0.19366923  0.52771889  0.34080623  1
  In  In32  1  0.02181584  0.01040751  0.00338741  1
  In  In33  1  0.36320506  0.52018608  0.85128772  1
  In  In34  1  0.65487200  0.15399738  0.14349649  1
  In  In35  1  0.02457765  0.31506186  0.64486729  1
  In  In36  1  0.19858255  0.82226838  0.31921226  1
  In  In37  1  0.66463227  0.80742556  0.51127839  1
  In  In38  1  0.64969337  0.50669241  0.85594156  1
  In  In39  1  -0.02366865  0.01580199  0.65325207  1
  In  In40  1  -0.00469044  0.32262934  0.31349608  1
  In  In41  1  0.02205157  0.67809682  -0.00074526  1
  In  In42  1  0.34169680  0.31577111  -0.01577640  1
  In  In43  1  0.34089181  0.01753147  0.00304348  1
  In  In44  1  0.82056738  0.16724207  0.33009537  1
  In  In45  1  0.67346375  0.84341807  0.83157132  1
  In  In46  1  0.19473471  0.18710628  0.33034400  1
  In  In47  1  0.82588619  0.16853743  0.65448667  1
  In  In48  1  0.00889125  0.85019045  0.81919328  1
  In  In49  1  0.82245145  0.51300183  0.32080193  1
  In  In50  1  -0.00086320  0.30692368  0.02488832  1
  In  In51  1  0.16749754  0.00066851  0.48628004  1
  In  In52  1  0.83018311  0.02750794  0.18632284  1
  In  In53  1  -0.00258461  0.16816672  0.84060242  1
  In  In54  1  0.02622158  0.50063056  0.50487381  1
  In  In55  1  0.35682709  0.50176067  0.18542101  1
  In  In56  1  0.81373190  0.47455750  0.01349867  1
  In  In57  1  0.00107653  0.48020928  0.17146483  1
  In  In58  1  0.48152755  -0.01570256  0.15867130  1
  In  In59  1  0.19155267  0.01225805  0.84197146  1
  In  In60  1  0.65341842  0.33155790  0.65417360  1
  In  In61  1  0.19195945  0.35093401  0.13954520  1
  In  In62  1  0.64173817  0.15596425  0.87079757  1
  In  In63  1  0.20253258  0.48461068  0.65388889  1
  In  In64  1  0.67252930  -0.00154244  0.34887421  1
  In  In65  1  0.68097096  0.00007797  0.67747689  1
  In  In66  1  0.49504510  0.83271252  0.67786662  1
  In  In67  1  0.80020875  0.33545193  0.82644514  1
  In  In68  1  0.35868829  0.01886429  0.67162735  1
  In  In69  1  0.34965841  0.66700684  0.65965809  1
  In  In70  1  0.82954638  0.83950919  0.37072812  1
  In  In71  1  0.17521291  0.01393903  0.18037948  1
  Te  Te72  1  0.10455710  0.09971432  0.08516811  1
  Te  Te73  1  0.08979151  0.08811635  0.38975352  1
  Te  Te74  1  0.08705652  0.08051371  0.75070477  1
  Te  Te75  1  0.08396053  0.42815413  0.05811941  1
  Te  Te76  1  0.08108299  0.43364111  0.38216156  1
  Te  Te77  1  0.07334636  0.43689915  0.73376939  1
  Te  Te78  1  0.10590173  0.76975191  0.08678831  1
  Te  Te79  1  0.12379737  0.74446998  0.43131482  1
  Te  Te80  1  0.09179833  0.73785243  0.75652025  1
  Te  Te81  1  0.40069263  0.09755896  0.11266716  1
  Te  Te82  1  0.39282311  0.08619076  0.41145253  1
  Te  Te83  1  0.41419350  0.09167662  0.79137189  1
  Te  Te84  1  0.41935472  0.40552459  0.08257943  1
  Te  Te85  1  0.39411777  0.45864097  0.43259764  1
  Te  Te86  1  0.41328468  0.40801405  0.75681889  1
  Te  Te87  1  0.37139383  0.72581849  0.04057126  1
  Te  Te88  1  0.38122118  0.71934054  0.43197190  1
  Te  Te89  1  0.42134396  0.74072653  0.77325734  1
  Te  Te90  1  0.75122998  0.07032476  0.07100268  1
  Te  Te91  1  0.75466992  0.08522845  0.43171654  1
  Te  Te92  1  0.74643626  0.10476198  0.76529460  1
  Te  Te93  1  0.71349382  0.42896717  0.10909899  1
  Te  Te94  1  0.77139965  0.41238806  0.41344125  1
  Te  Te95  1  0.74015778  0.44361899  0.73841185  1
  Te  Te96  1  0.74035562  0.75832445  0.08229372  1
  Te  Te97  1  0.72044114  0.73367972  0.38985913  1
  Te  Te98  1  0.75812114  0.74615330  0.74789607  1
  Te  Te99  1  0.10534968  0.26059436  0.23089896  1
  Te  Te100  1  0.10119634  0.26242469  0.52691900  1
  Te  Te101  1  0.09159560  0.26286589  0.91168246  1
  Te  Te102  1  0.06852957  0.59706945  0.24509499  1
  Te  Te103  1  0.12703646  0.59162529  0.57188347  1
  Te  Te104  1  0.10568557  0.59574385  0.90941022  1
  Te  Te105  1  0.07488480  0.90115590  0.26021843  1
  Te  Te106  1  0.08127040  0.91839584  0.59859427  1
  Te  Te107  1  0.10484124  0.91322356  0.91836989  1
  Te  Te108  1  0.39650418  0.28279560  0.27820536  1
  Te  Te109  1  0.42401052  0.24153660  0.58483136  1
  Te  Te110  1  0.38723528  0.20320642  0.89893789  1
  Te  Te111  1  0.45012604  0.52959108  0.30112769  1
  Te  Te112  1  0.39206157  0.54523853  0.58059624  1
  Te  Te113  1  0.43032518  0.59788073  0.96296744  1
  Te  Te114  1  0.42601482  0.89337779  0.26516553  1
  Te  Te115  1  0.42981836  0.92455548  0.57675981  1
  Te  Te116  1  0.40326550  0.90549076  0.91902591  1
  Te  Te117  1  0.72979309  0.24592258  0.23903969  1
  Te  Te118  1  0.75336241  0.26506273  0.57212034  1
  Te  Te119  1  0.74334338  0.25297606  0.93787202  1
  Te  Te120  1  0.71348339  0.57160412  0.23952999  1
  Te  Te121  1  0.74274144  0.57547354  0.55829076  1
  Te  Te122  1  0.75854511  0.58645060  0.92536914  1
  Te  Te123  1  0.74932147  0.90789895  0.25047889  1
  Te  Te124  1  0.75710568  0.90899932  0.58204837  1
  Te  Te125  1  0.76235971  0.93420611  0.90467820  1
  Te  Te126  1  0.27481425  0.23963718  0.09209275  1
  Te  Te127  1  0.24881558  0.26570505  0.44247562  1
  Te  Te128  1  0.25242584  0.23910435  0.74185552  1
  Te  Te129  1  0.25238470  0.53673619  0.08590108  1
  Te  Te130  1  0.29591477  0.58348265  0.43294019  1
  Te  Te131  1  0.26281244  0.58212994  0.75325646  1
  Te  Te132  1  0.25186448  0.92255537  0.08472867  1
  Te  Te133  1  0.26146216  0.91383544  0.41540151  1
  Te  Te134  1  0.26787944  0.91432581  0.74912447  1
  Te  Te135  1  0.54929761  0.23202073  0.07009827  1
  Te  Te136  1  0.57516861  0.23846503  0.42097997  1
  Te  Te137  1  0.58794310  0.26610057  0.77299513  1
  Te  Te138  1  0.54861802  0.53699495  0.03756372  1
  Te  Te139  1  0.51137833  0.63978692  0.41031610  1
  Te  Te140  1  0.56452329  0.58916007  0.76124054  1
  Te  Te141  1  0.58956757  0.94031602  0.05531840  1
  Te  Te142  1  0.58317362  0.90865336  0.43177390  1
  Te  Te143  1  0.57262259  0.93328752  0.76038391  1
  Te  Te144  1  0.89507738  0.24685026  0.10311819  1
  Te  Te145  1  0.92481940  0.23542200  0.40814422  1
  Te  Te146  1  0.91514842  0.26888067  0.74962324  1
  Te  Te147  1  0.92138397  0.58425055  0.07315856  1
  Te  Te148  1  0.92130122  0.59409407  0.43161509  1
  Te  Te149  1  0.90929351  0.59802360  0.75644347  1
  Te  Te150  1  0.91972755  0.92281869  0.09686898  1
  Te  Te151  1  0.91916124  0.95123822  0.41657471  1
  Te  Te152  1  0.90402499  0.94725022  0.76689175  1
  Te  Te153  1  0.27244881  0.07227878  0.27413206  1
  Te  Te154  1  0.24949803  0.08223340  0.58674938  1
  Te  Te155  1  0.24746646  0.11382722  0.93393087  1
  Te  Te156  1  0.25654846  0.41347444  0.26362373  1
  Te  Te157  1  0.23064167  0.38421709  0.54291092  1
  Te  Te158  1  0.25916743  0.42231007  0.90769166  1
  Te  Te159  1  0.27809695  0.71813959  0.24166505  1
  Te  Te160  1  0.28328840  0.76851701  0.57385917  1
  Te  Te161  1  0.25249395  0.69754468  0.94450388  1
  Te  Te162  1  0.57890928  0.06864828  0.25281187  1
  Te  Te163  1  0.58849702  0.09300403  0.59989038  1
  Te  Te164  1  0.58042808  0.04622432  0.94113273  1
  Te  Te165  1  0.56867412  0.42613058  0.27605851  1
  Te  Te166  1  0.58122650  0.41989004  0.55323514  1
  Te  Te167  1  0.55778836  0.40886332  0.91528675  1
  Te  Te168  1  0.55049467  0.71854199  0.19665335  1
  Te  Te169  1  0.56683995  0.72665741  0.59442025  1
  Te  Te170  1  0.58956947  0.74921615  0.92052824  1
  Te  Te171  1  0.93887431  0.13413803  0.19981872  1
  Te  Te172  1  0.93893216  0.12688006  0.56729739  1
  Te  Te173  1  0.92011152  0.09697303  0.94111512  1
  Te  Te174  1  0.89103395  0.40253632  0.23496786  1
  Te  Te175  1  0.92557098  0.40724395  0.56920332  1
  Te  Te176  1  0.90862844  0.40571312  0.91418104  1
  Te  Te177  1  0.88806887  0.74017245  0.26169076  1
  Te  Te178  1  0.94172604  0.75672686  0.57595017  1
  Te  Te179  1  0.92719038  0.75962859  0.91124008  1
