# generated using pymatgen
data_In2Te3
_symmetry_space_group_name_H-M   'P 1'
_cell_length_a   18.77530855
_cell_length_b   18.77203661
_cell_length_c   18.77802508
_cell_angle_alpha   90.03685830
_cell_angle_beta   90.03466922
_cell_angle_gamma   89.93876605
_symmetry_Int_Tables_number   1
_chemical_formula_structural   In2Te3
_chemical_formula_sum   'In72 Te108'
_cell_volume   6618.32321914
_cell_formula_units_Z   36
loop_
 _symmetry_equiv_pos_site_id
 _symmetry_equiv_pos_as_xyz
  1  'x, y, z'
loop_
 _atom_site_type_symbol
 _atom_site_label
 _atom_site_symmetry_multiplicity
 _atom_site_fract_x
 _atom_site_fract_y
 _atom_site_fract_z
 _atom_site_occupancy
  In  In0  1  0.82700037  0.67017013  0.51753162  1
  In  In1  1  0.30369121  0.01860073  0.34135649  1
  In  In2  1  0.01246662  0.35733278  0.00732657  1
  In  In3  1  0.51978258  0.84299683  0.33980583  1
  In  In4  1  0.01555620  0.32311639  0.34092856  1
  In  In5  1  0.33678940  -0.01485941  0.65453046  1
  In  In6  1  0.34884999  0.49340608  0.49911215  1
  In  In7  1  0.51819443  0.50037636  0.68761765  1
  In  In8  1  0.31852104  0.51529608  0.82859585  1
  In  In9  1  0.33424117  0.15504514  0.82725418  1
  In  In10  1  0.00730006  0.80920206  0.81961876  1
  In  In11  1  0.19261468  0.18020758  -0.00007036  1
  In  In12  1  0.82833375  0.34731070  0.85171510  1
  In  In13  1  0.02151686  0.52452285  0.85606711  1
  In  In14  1  0.17405968  0.16449840  0.32162224  1
  In  In15  1  -0.01210659  -0.03193049  0.34730363  1
  In  In16  1  0.35210269  0.83606729  0.14700979  1
  In  In17  1  0.00329256  0.34589237  0.68489959  1
  In  In18  1  0.65624505  0.00452095  -0.00532883  1
  In  In19  1  0.34285560  0.35767698  -0.00590034  1
  In  In20  1  -0.01489001  0.15759345  0.52041101  1
  In  In21  1  0.81660032  0.33866539  0.51580782  1
  In  In22  1  0.66059420  0.36190922  0.00302187  1
  In  In23  1  0.17398394  0.85492953  0.33721101  1
  In  In24  1  0.16205354  0.33356542  0.82237804  1
  In  In25  1  0.18046560  0.48802624  0.31855564  1
  In  In26  1  0.49865405  0.33105674  0.49743545  1
  In  In27  1  0.66831518  0.81968925  0.52071559  1
  In  In28  1  -0.02145402  0.81970690  0.49939067  1
  In  In29  1  0.18651509  0.01402186  0.17616248  1
  In  In30  1  0.14713665  0.64595907  0.53398490  1
  In  In31  1  0.81708422  0.19295113  -0.00372783  1
  In  In32  1  0.49303857  0.82168390  -0.01208497  1
  In  In33  1  0.80267178  0.65552709  0.83723033  1
  In  In34  1  0.65786119  0.66486131  0.33408555  1
  In  In35  1  -0.02151479  0.68153849  0.33107760  1
  In  In36  1  0.83311755  -0.00903214  0.19025292  1
  In  In37  1  0.50973878  0.34056990  0.83175398  1
  In  In38  1  0.52035432  0.50066440  0.34268831  1
  In  In39  1  0.49674622  0.03217726  0.17441905  1
  In  In40  1  0.17239639  -0.02279898  0.48768950  1
  In  In41  1  0.32078872  0.67950125  -0.02824886  1
  In  In42  1  0.83633216  0.50459968  0.33862578  1
  In  In43  1  0.50413582  0.66447285  0.82757063  1
  In  In44  1  0.64871059  0.33428688  0.33943660  1
  In  In45  1  0.65754860  -0.00542825  0.65696360  1
  In  In46  1  0.67935085  0.82407414  0.16019973  1
  In  In47  1  0.48715220  0.32320503  0.18614374  1
  In  In48  1  0.33617401  0.67205968  0.67861655  1
  In  In49  1  0.80728097  0.14611315  0.66049359  1
  In  In50  1  0.18448296  0.35275456  0.50839102  1
  In  In51  1  0.16598446  0.82278859  0.67180886  1
  In  In52  1  0.66992414  0.81947405  0.82038069  1
  In  In53  1  -0.00954544  0.78632034  0.15047566  1
  In  In54  1  0.01175457  -0.02512061  -0.03052085  1
  In  In55  1  0.82155096  0.50506083  0.66258693  1
  In  In56  1  0.36200103  0.67174704  0.34914622  1
  In  In57  1  0.66793745  0.18568014  0.18696220  1
  In  In58  1  0.17011237  0.67512670  0.15623217  1
  In  In59  1  0.49260011  -0.00339515  0.51338721  1
  In  In60  1  0.67403463  0.32376014  0.66406870  1
  In  In61  1  0.84890624  -0.00658545  0.81015697  1
  In  In62  1  0.00169921  0.14969686  0.80543633  1
  In  In63  1  0.50445100  -0.00335937  0.83153329  1
  In  In64  1  0.82329153  0.80844009  0.01011348  1
  In  In65  1  0.33632321  0.49765348  0.17272339  1
  In  In66  1  0.15237489  0.14929605  0.69579232  1
  In  In67  1  0.00262415  0.14537848  0.18394066  1
  In  In68  1  0.82513155  0.35490725  0.15996299  1
  In  In69  1  -0.00996381  0.53030609  0.13109012  1
  In  In70  1  0.32666121  0.00006040  0.01006302  1
  In  In71  1  0.35117881  0.17278727  0.50815927  1
  Te  Te72  1  0.08573447  0.08051962  0.07175491  1
  Te  Te73  1  0.08088639  0.08167504  0.41151877  1
  Te  Te74  1  0.06995752  0.03598721  0.74232231  1
  Te  Te75  1  0.09889867  0.43555390  0.09561959  1
  Te  Te76  1  0.08413005  0.43176656  0.42400032  1
  Te  Te77  1  0.10427603  0.45008279  0.73461363  1
  Te  Te78  1  0.08217363  0.73038655  0.04387655  1
  Te  Te79  1  0.09314957  0.74909542  0.41312781  1
  Te  Te80  1  0.09628445  0.71045654  0.74556796  1
  Te  Te81  1  0.42606855  0.09677782  0.06199608  1
  Te  Te82  1  0.42414318  0.08707811  0.40634036  1
  Te  Te83  1  0.42725604  0.08344625  0.73044984  1
  Te  Te84  1  0.44179874  0.43204889  0.08293648  1
  Te  Te85  1  0.41214993  0.40528261  0.39250566  1
  Te  Te86  1  0.40405035  0.41862768  0.74843847  1
  Te  Te87  1  0.42460121  0.72050110  0.08082771  1
  Te  Te88  1  0.45469062  0.74734015  0.44069781  1
  Te  Te89  1  0.41189324  0.76339553  0.76806471  1
  Te  Te90  1  0.75239362  0.08616508  0.09352092  1
  Te  Te91  1  0.74357267  0.07419355  0.33242910  1
  Te  Te92  1  0.72764319  0.07670356  0.76997063  1
  Te  Te93  1  0.75938121  0.45220235  0.07106613  1
  Te  Te94  1  0.73525441  0.42935725  0.42542760  1
  Te  Te95  1  0.73487284  0.42624900  0.76109041  1
  Te  Te96  1  0.76018633  0.70573820  0.10194604  1
  Te  Te97  1  0.75503641  0.75351263  0.41125430  1
  Te  Te98  1  0.75548715  0.74330234  0.72675388  1
  Te  Te99  1  0.09630135  0.25834014  0.22813378  1
  Te  Te100  1  0.08519754  0.25319710  0.58888996  1
  Te  Te101  1  0.07073198  0.24565197  0.91027712  1
  Te  Te102  1  0.07877314  0.59250819  0.25239675  1
  Te  Te103  1  0.07650957  0.54345534  0.60850686  1
  Te  Te104  1  0.10339739  0.61357951  0.94082985  1
  Te  Te105  1  0.07673277  0.91459383  0.23285459  1
  Te  Te106  1  0.07560656  0.90936500  0.58021392  1
  Te  Te107  1  0.11171662  0.88551011  0.90127899  1
  Te  Te108  1  0.42385481  0.20424311  0.24516525  1
  Te  Te109  1  0.41824751  0.26320777  0.60249507  1
  Te  Te110  1  0.41627015  0.24938481  0.91534426  1
  Te  Te111  1  0.43605163  0.58785304  0.24710729  1
  Te  Te112  1  0.42753807  0.58409011  0.59358589  1
  Te  Te113  1  0.42337135  0.57585060  0.92126550  1
  Te  Te114  1  0.40881688  0.92640692  0.25649175  1
  Te  Te115  1  0.42984885  0.88766655  0.59262025  1
  Te  Te116  1  0.40059193  0.91149661  0.90832717  1
  Te  Te117  1  0.76955342  0.26613165  0.26869003  1
  Te  Te118  1  0.72784072  0.22124777  0.55411065  1
  Te  Te119  1  0.71825206  0.25314369  0.90128710  1
  Te  Te120  1  0.74257565  0.57502250  0.24909841  1
  Te  Te121  1  0.72493147  0.58449776  0.58325020  1
  Te  Te122  1  0.72602193  0.56090752  0.92892591  1
  Te  Te123  1  0.72878627  0.91830265  0.26887572  1
  Te  Te124  1  0.76242870  0.92005561  0.58152833  1
  Te  Te125  1  0.75419361  0.91540067  0.91801404  1
  Te  Te126  1  0.25784972  0.27751521  0.08720537  1
  Te  Te127  1  0.25577103  0.25329787  0.41638944  1
  Te  Te128  1  0.25805171  0.25297110  0.73580520  1
  Te  Te129  1  0.25421273  0.57952062  0.07369702  1
  Te  Te130  1  0.25142886  0.58794542  0.41489913  1
  Te  Te131  1  0.22722001  0.62002146  0.76996273  1
  Te  Te132  1  0.23185538  0.90151387  0.08081132  1
  Te  Te133  1  0.28764649  0.89480239  0.43171467  1
  Te  Te134  1  0.24779610  0.91826605  0.75048499  1
  Te  Te135  1  0.58343989  0.25538987  0.08261616  1
  Te  Te136  1  0.57252527  0.23245589  0.41314379  1
  Te  Te137  1  0.57115724  0.24596484  0.73504482  1
  Te  Te138  1  0.62216313  0.60802025  0.02421090  1
  Te  Te139  1  0.58027751  0.59529007  0.44191062  1
  Te  Te140  1  0.60871204  0.60782787  0.73863047  1
  Te  Te141  1  0.57175556  0.91640643  0.08944029  1
  Te  Te142  1  0.60394813  0.92940799  0.43026881  1
  Te  Te143  1  0.56926994  0.89592652  0.73589924  1
  Te  Te144  1  0.92466994  0.24888679  0.08991038  1
  Te  Te145  1  0.91057628  0.25293603  0.42710507  1
  Te  Te146  1  0.89486456  0.25124279  0.74170699  1
  Te  Te147  1  0.89865504  0.63187724  0.07800557  1
  Te  Te148  1  0.92564016  0.58384433  0.43389145  1
  Te  Te149  1  0.91439876  0.57904939  0.76006052  1
  Te  Te150  1  0.91912533  0.91604474  0.07686331  1
  Te  Te151  1  0.88317674  0.91756309  0.43822637  1
  Te  Te152  1  0.90648489  0.88078333  0.73469872  1
  Te  Te153  1  0.28899411  0.12258149  0.22109271  1
  Te  Te154  1  0.23706438  0.08778165  0.57389715  1
  Te  Te155  1  0.23335693  0.07058304  0.90395413  1
  Te  Te156  1  0.26957686  0.39140604  0.25269792  1
  Te  Te157  1  0.25944443  0.43729173  0.60293080  1
  Te  Te158  1  0.22944026  0.42936409  0.91946448  1
  Te  Te159  1  0.26224401  0.75299213  0.25302399  1
  Te  Te160  1  0.25489064  0.74663590  0.57019374  1
  Te  Te161  1  0.21158872  0.76128415  0.91579686  1
  Te  Te162  1  0.60256614  0.07982508  0.27612979  1
  Te  Te163  1  0.58377027  0.09582164  0.57687588  1
  Te  Te164  1  0.56263902  0.09530460  0.92666992  1
  Te  Te165  1  0.59498626  0.42670441  0.23106541  1
  Te  Te166  1  0.59189091  0.42074972  0.57884982  1
  Te  Te167  1  0.57944097  0.44751452  0.91024338  1
  Te  Te168  1  0.56978370  0.74509210  0.23360232  1
  Te  Te169  1  0.55530972  0.73371726  0.56064255  1
  Te  Te170  1  0.61417008  0.74092215  0.94111922  1
  Te  Te171  1  0.90477488  0.09154598  0.28638315  1
  Te  Te172  1  0.90193079  0.05728415  0.58816255  1
  Te  Te173  1  0.90641812  0.08882644  0.92383631  1
  Te  Te174  1  0.93481424  0.42235298  0.24787350  1
  Te  Te175  1  0.92519279  0.42494285  0.57955664  1
  Te  Te176  1  0.91243382  0.44470129  0.93280966  1
  Te  Te177  1  0.89110413  0.77435071  0.25783076  1
  Te  Te178  1  0.92504249  0.73630477  0.60891987  1
  Te  Te179  1  0.91258126  0.73241396  0.91494450  1
