# generated using pymatgen
data_In2Te3
_symmetry_space_group_name_H-M   'P 1'
_cell_length_a   18.90847191
_cell_length_b   18.91361714
_cell_length_c   18.90896960
_cell_angle_alpha   89.86298616
_cell_angle_beta   90.05108693
_cell_angle_gamma   89.90635065
_symmetry_Int_Tables_number   1
_chemical_formula_structural   In2Te3
_chemical_formula_sum   'In72 Te108'
_cell_volume   6762.33830633
_cell_formula_units_Z   36
loop_
 _symmetry_equiv_pos_site_id
 _symmetry_equiv_pos_as_xyz
  1  'x, y, z'
loop_
 _atom_site_type_symbol
 _atom_site_label
 _atom_site_symmetry_multiplicity
 _atom_site_fract_x
 _atom_site_fract_y
 _atom_site_fract_z
 _atom_site_occupancy
  In  In0  1  0.83685583  0.00709942  0.52147581  1
  In  In1  1  0.29813339  0.79575260  0.51977832  1
  In  In2  1  0.15313870  0.35454125  0.84632962  1
  In  In3  1  0.52270985  0.36005680  0.83295485  1
  In  In4  1  0.02281562  0.17158238  0.20259179  1
  In  In5  1  0.68625025  0.49932715  0.51839978  1
  In  In6  1  0.71011970  0.18028506  0.82991804  1
  In  In7  1  0.00700006  0.50055644  0.16993583  1
  In  In8  1  0.00904269  0.83434807  0.83030055  1
  In  In9  1  0.15541877  -0.02516789  0.16397217  1
  In  In10  1  0.82427950  0.81454924  0.34730552  1
  In  In11  1  0.51158711  0.16330817  0.68245669  1
  In  In12  1  0.83642351  0.18565886  0.35633977  1
  In  In13  1  0.32335556  0.53839627  0.82151655  1
  In  In14  1  0.14967018  0.35150787  0.50448172  1
  In  In15  1  0.16216050  -0.00581184  0.46559855  1
  In  In16  1  0.66534943  0.01082305  0.68350142  1
  In  In17  1  -0.01168765  0.66053102  0.66907095  1
  In  In18  1  0.31722298  0.18017964  0.48457139  1
  In  In19  1  0.69570805  0.13550627  0.15139900  1
  In  In20  1  0.85039859  0.67853186  0.14500058  1
  In  In21  1  0.66177269  0.84587830  0.48678910  1
  In  In22  1  0.15094917  0.51731946  0.00721834  1
  In  In23  1  0.16521986  0.68485587  0.15129595  1
  In  In24  1  0.00506133  0.00520349  0.32802215  1
  In  In25  1  0.51266463  0.15861313  -0.02000238  1
  In  In26  1  0.83567573  0.34467602  0.18284977  1
  In  In27  1  0.65524216  -0.02127311  0.31493893  1
  In  In28  1  0.31830939  0.66726252  0.33025029  1
  In  In29  1  0.50769051  0.82388662  -0.00340450  1
  In  In30  1  0.84493574  -0.01127184  0.84348342  1
  In  In31  1  0.48286080  0.32718631  0.16808128  1
  In  In32  1  0.51181541  0.65797385  0.50643296  1
  In  In33  1  0.68356135  0.36259179  0.35104392  1
  In  In34  1  0.01289159  0.82384220  0.51531240  1
  In  In35  1  0.68590184  0.65408962  -0.02079017  1
  In  In36  1  0.32107643  0.67487251  -0.00962027  1
  In  In37  1  0.33600585  0.79275932  0.81286875  1
  In  In38  1  0.85351196  0.33580450  0.50690042  1
  In  In39  1  0.69101433  0.65739235  0.67856194  1
  In  In40  1  0.31924984  0.35362178  0.36357678  1
  In  In41  1  0.66991102  0.17502395  0.49821998  1
  In  In42  1  0.51129933  0.50293766  0.64443620  1
  In  In43  1  0.45521675  -0.03992722  0.18550967  1
  In  In44  1  0.34163889  0.52490441  0.49236474  1
  In  In45  1  0.69723756  0.47375090  0.81774929  1
  In  In46  1  0.64660637  0.81671084  0.15502503  1
  In  In47  1  -0.00371041  0.66766991  -0.03078744  1
  In  In48  1  -0.01929823  0.47656623  0.82582491  1
  In  In49  1  0.16590928  0.49281228  0.34507104  1
  In  In50  1  0.48016209  0.66072312  0.19062420  1
  In  In51  1  0.33714037  0.31569159  0.66610443  1
  In  In52  1  0.66945704  0.83163763  0.82266003  1
  In  In53  1  0.66340631  0.50468696  0.16529325  1
  In  In54  1  0.16019857  0.53351292  0.64719215  1
  In  In55  1  0.45534298  -0.02600067  0.51375818  1
  In  In56  1  0.83678205  0.16572634  0.01367534  1
  In  In57  1  0.30115005  0.14412273  0.17764378  1
  In  In58  1  0.34520727  0.15756683  0.82887816  1
  In  In59  1  0.32742747  -0.01647344  0.02934153  1
  In  In60  1  0.67357851  0.33480829  -0.00731762  1
  In  In61  1  0.14793715  0.17250621  -0.00457489  1
  In  In62  1  -0.02022932  0.19553459  0.79955386  1
  In  In63  1  -0.01412777  0.66050751  0.36938910  1
  In  In64  1  0.89267608  -0.03645171  0.14630527  1
  In  In65  1  0.67307141  0.65898507  0.32383231  1
  In  In66  1  0.50463113  0.01662820  0.84231631  1
  In  In67  1  0.16298560  0.15981220  0.64206810  1
  In  In68  1  0.17708233  -0.03540950  0.83245891  1
  In  In69  1  0.00500050  0.01418126  0.66692556  1
  In  In70  1  0.32932737  0.33595856  0.02690417  1
  In  In71  1  0.50355849  0.17135681  0.33941683  1
  Te  Te72  1  0.07108447  0.08280780  0.08929272  1
  Te  Te73  1  0.05254173  0.09194243  0.43855542  1
  Te  Te74  1  0.09845150  0.08840001  0.76708153  1
  Te  Te75  1  0.08207050  0.41164452  0.07951410  1
  Te  Te76  1  0.06116003  0.45670498  0.44586978  1
  Te  Te77  1  0.08844925  0.42449372  0.72929722  1
  Te  Te78  1  0.05597347  0.75676949  0.07475704  1
  Te  Te79  1  0.08312834  0.76715443  0.39885106  1
  Te  Te80  1  0.08927409  0.76013933  0.72544360  1
  Te  Te81  1  0.41687222  0.10052311  0.08234379  1
  Te  Te82  1  0.40638957  0.07937970  0.41083738  1
  Te  Te83  1  0.40646164  0.06377598  0.72920364  1
  Te  Te84  1  0.43356990  0.42685172  0.07271379  1
  Te  Te85  1  0.42378899  0.41247563  0.44693694  1
  Te  Te86  1  0.41153543  0.42240621  0.74770173  1
  Te  Te87  1  0.41166964  0.75225709  0.08850415  1
  Te  Te88  1  0.41308807  0.73988643  0.42652287  1
  Te  Te89  1  0.42214115  0.73646490  0.70748456  1
  Te  Te90  1  0.77856041  0.03685142  0.07110970  1
  Te  Te91  1  0.73745558  0.06617346  0.40857057  1
  Te  Te92  1  0.78354082  0.08770424  0.73629903  1
  Te  Te93  1  0.76055379  0.42635665  0.07858862  1
  Te  Te94  1  0.79179646  0.45198122  0.40589761  1
  Te  Te95  1  0.78235278  0.40277877  0.71717297  1
  Te  Te96  1  0.75466584  0.76276942  0.06217372  1
  Te  Te97  1  0.74738319  0.72436112  0.44167062  1
  Te  Te98  1  0.77503096  0.74980463  0.75898344  1
  Te  Te99  1  0.12236633  0.25345375  0.26835285  1
  Te  Te100  1  0.07308952  0.26533058  0.59665714  1
  Te  Te101  1  0.05319669  0.26802872  0.92103046  1
  Te  Te102  1  0.08878609  0.59894448  0.25295927  1
  Te  Te103  1  0.04871856  0.57704570  0.55877411  1
  Te  Te104  1  0.08687002  0.57840897  0.88711277  1
  Te  Te105  1  0.07565217  0.89505214  0.26180696  1
  Te  Te106  1  0.09896132  0.92576907  0.58750711  1
  Te  Te107  1  0.06566153  0.93578676  0.92540337  1
  Te  Te108  1  0.39213054  0.24631499  0.26154075  1
  Te  Te109  1  0.42733235  0.23699933  0.57565490  1
  Te  Te110  1  0.42762557  0.26255090  0.90693386  1
  Te  Te111  1  0.40279263  0.56194156  0.26818933  1
  Te  Te112  1  0.40246328  0.60885795  0.61101887  1
  Te  Te113  1  0.42033421  0.60188884  0.90921436  1
  Te  Te114  1  0.34344809  0.90663300  0.26175084  1
  Te  Te115  1  0.41267052  0.85849859  0.59853479  1
  Te  Te116  1  0.41553309  0.91938193  0.91911878  1
  Te  Te117  1  0.73107896  0.25064099  0.25611285  1
  Te  Te118  1  0.77382261  0.23468137  0.58162869  1
  Te  Te119  1  0.79273994  0.28182228  0.91178405  1
  Te  Te120  1  0.77211906  0.58351158  0.23660294  1
  Te  Te121  1  0.78673446  0.56311645  0.60953079  1
  Te  Te122  1  0.77724741  0.57044163  0.89691701  1
  Te  Te123  1  0.75539307  0.89607247  0.23633043  1
  Te  Te124  1  0.74467969  0.91282497  0.59618831  1
  Te  Te125  1  0.74030108  0.91857765  0.91858175  1
  Te  Te126  1  0.22594401  0.25364740  0.09931913  1
  Te  Te127  1  0.20500443  0.24539589  0.40104306  1
  Te  Te128  1  0.24116734  0.25061509  0.76502468  1
  Te  Te129  1  0.25824105  0.57976034  0.09282054  1
  Te  Te130  1  0.22694530  0.60191216  0.43377724  1
  Te  Te131  1  0.23416131  0.62718801  0.73858623  1
  Te  Te132  1  0.22065290  0.88791770  0.06039140  1
  Te  Te133  1  0.26445199  0.89793530  0.41330449  1
  Te  Te134  1  0.27605135  0.90973622  0.74194577  1
  Te  Te135  1  0.59086053  0.24406511  0.08226165  1
  Te  Te136  1  0.58116254  0.27165770  0.42233771  1
  Te  Te137  1  0.60498585  0.26096622  0.75166350  1
  Te  Te138  1  0.58570784  0.61125355  0.09172526  1
  Te  Te139  1  0.59180967  0.56753148  0.41450533  1
  Te  Te140  1  0.59253533  0.56923563  0.75294848  1
  Te  Te141  1  0.56925159  0.92928372  0.08761635  1
  Te  Te142  1  0.55181054  0.91630702  0.40738054  1
  Te  Te143  1  0.56597470  0.91543338  0.74600406  1
  Te  Te144  1  0.92331014  0.24620712  0.10727545  1
  Te  Te145  1  0.93840686  0.28341113  0.39507472  1
  Te  Te146  1  0.89516987  0.29456145  0.72925965  1
  Te  Te147  1  0.92249866  0.57285896  0.06391807  1
  Te  Te148  1  0.86907710  0.58808794  0.41732197  1
  Te  Te149  1  0.90674952  0.59890559  0.78133995  1
  Te  Te150  1  0.96223804  0.88082585  0.04815718  1
  Te  Te151  1  0.90890856  0.91837149  0.42078650  1
  Te  Te152  1  0.91641025  0.91243596  0.73354773  1
  Te  Te153  1  0.22401651  0.05875257  0.26713668  1
  Te  Te154  1  0.25589037  0.06927249  0.56873488  1
  Te  Te155  1  0.25821057  0.08721293  0.93182965  1
  Te  Te156  1  0.26855867  0.43748423  0.25354177  1
  Te  Te157  1  0.26078818  0.42292470  0.58895331  1
  Te  Te158  1  0.26527410  0.42666563  0.91955803  1
  Te  Te159  1  0.26316436  0.76646466  0.23142836  1
  Te  Te160  1  0.20531619  0.73322436  0.62085914  1
  Te  Te161  1  0.23619628  0.77568398  0.92171865  1
  Te  Te162  1  0.57196619  0.08071546  0.23811940  1
  Te  Te163  1  0.57436016  0.07089364  0.57043662  1
  Te  Te164  1  0.62436474  0.08317982  0.91222190  1
  Te  Te165  1  0.57798754  0.41470638  0.25217442  1
  Te  Te166  1  0.60006712  0.40198920  0.58728265  1
  Te  Te167  1  0.59125284  0.44768992  0.93349534  1
  Te  Te168  1  0.56872895  0.75743190  0.27017341  1
  Te  Te169  1  0.60292539  0.74708719  0.58832414  1
  Te  Te170  1  0.58089516  0.73340712  0.90018266  1
  Te  Te171  1  0.89427644  0.08637850  0.25548238  1
  Te  Te172  1  0.93954339  0.10411050  0.56638830  1
  Te  Te173  1  0.92562006  0.10101130  0.90765324  1
  Te  Te174  1  0.94247298  0.40524749  0.26497968  1
  Te  Te175  1  0.89177449  0.43820061  0.61049902  1
  Te  Te176  1  0.91867963  0.37722608  0.91423432  1
  Te  Te177  1  0.92482337  0.74947477  0.25510817  1
  Te  Te178  1  0.90716636  0.75609584  0.58910107  1
  Te  Te179  1  0.90084798  0.74628610  0.88452750  1
