# generated using pymatgen
data_In2Te3
_symmetry_space_group_name_H-M   'P 1'
_cell_length_a   18.97725265
_cell_length_b   18.96429493
_cell_length_c   18.97509580
_cell_angle_alpha   90.18349825
_cell_angle_beta   90.07570578
_cell_angle_gamma   89.96503077
_symmetry_Int_Tables_number   1
_chemical_formula_structural   In2Te3
_chemical_formula_sum   'In72 Te108'
_cell_volume   6828.90909270
_cell_formula_units_Z   36
loop_
 _symmetry_equiv_pos_site_id
 _symmetry_equiv_pos_as_xyz
  1  'x, y, z'
loop_
 _atom_site_type_symbol
 _atom_site_label
 _atom_site_symmetry_multiplicity
 _atom_site_fract_x
 _atom_site_fract_y
 _atom_site_fract_z
 _atom_site_occupancy
  In  In0  1  0.51865490  0.13134616  -0.01535298  1
  In  In1  1  0.51794619  -0.02272151  0.49303080  1
  In  In2  1  0.64200292  0.81573614  0.19803874  1
  In  In3  1  0.16666315  0.31083573  0.82099044  1
  In  In4  1  0.82985886  0.82034256  0.36009952  1
  In  In5  1  0.17798243  0.52558934  0.65158680  1
  In  In6  1  0.31214562  -0.01627707  0.33124366  1
  In  In7  1  0.84284654  0.50194706  0.66455078  1
  In  In8  1  0.83790636  0.17412280  0.00284328  1
  In  In9  1  0.33472277  0.48518877  0.49158927  1
  In  In10  1  0.49193227  0.00385360  0.16987919  1
  In  In11  1  0.14350401  -0.03223314  0.86462082  1
  In  In12  1  0.16320161  0.16573873  0.31846424  1
  In  In13  1  0.02058392  0.50666521  0.48726701  1
  In  In14  1  0.32074017  0.66565410  -0.00084930  1
  In  In15  1  0.49732713  0.33400061  0.19487510  1
  In  In16  1  0.53407135  0.49008422  0.02909675  1
  In  In17  1  0.67546067  0.67698804  0.68430008  1
  In  In18  1  0.68949853  0.50138134  0.84601764  1
  In  In19  1  -0.00728257  -0.00427236  0.65063015  1
  In  In20  1  0.50420428  0.17673733  0.34111101  1
  In  In21  1  0.84045233  0.34309790  0.80353081  1
  In  In22  1  0.65330643  0.13946825  0.82480196  1
  In  In23  1  0.85077527  0.66387546  0.16140478  1
  In  In24  1  0.67605911  0.49199229  0.52416629  1
  In  In25  1  0.00795101  0.32810691  0.65767448  1
  In  In26  1  0.14865822  0.68062651  0.51040857  1
  In  In27  1  -0.00984389  0.14379933  0.49948812  1
  In  In28  1  0.65493933  0.17918253  0.17036746  1
  In  In29  1  0.16356065  -0.00709346  0.13344382  1
  In  In30  1  -0.01522687  -0.01635700  0.31664502  1
  In  In31  1  0.16137957  0.14682128  0.65217119  1
  In  In32  1  0.80524224  0.00198762  0.17139405  1
  In  In33  1  0.17400402  0.33906390  0.17927759  1
  In  In34  1  0.34884644  0.33617009  0.00142653  1
  In  In35  1  0.64400461  0.69458592  0.00420167  1
  In  In36  1  0.84894152  0.34498589  0.17037622  1
  In  In37  1  0.16269164  0.49946293  0.31879916  1
  In  In38  1  0.14051131  0.18072155  -0.00190078  1
  In  In39  1  0.65893959  -0.02843832  0.68285937  1
  In  In40  1  0.80882094  0.29498427  0.50975724  1
  In  In41  1  0.85058481  0.52054128  0.32550941  1
  In  In42  1  0.50829898  0.32198995  0.81221194  1
  In  In43  1  0.50181501  0.65785695  0.51073353  1
  In  In44  1  0.32915423  0.85122866  0.50782181  1
  In  In45  1  0.17852727  0.50632610  0.00862756  1
  In  In46  1  0.00547695  0.49591444  0.86380519  1
  In  In47  1  0.85277168  -0.02262651  0.82825733  1
  In  In48  1  0.33661829  0.67900559  0.33823458  1
  In  In49  1  0.81678664  0.13909249  0.36553671  1
  In  In50  1  0.32272102  0.82717579  0.16373424  1
  In  In51  1  0.00365434  0.50962189  0.15322097  1
  In  In52  1  0.49906388  0.84505238  -0.00414709  1
  In  In53  1  -0.02077613  0.16488409  0.83627234  1
  In  In54  1  0.49218903  0.50531638  0.33559478  1
  In  In55  1  0.50949021  0.13303832  0.63595625  1
  In  In56  1  0.51091636  0.49610361  0.66385096  1
  In  In57  1  0.31704910  0.15465072  0.82116345  1
  In  In58  1  0.33636700  0.52073556  0.82212176  1
  In  In59  1  0.85117968  0.83750743  -0.00181261  1
  In  In60  1  0.70066588  0.32504247  0.01836219  1
  In  In61  1  0.02788957  0.82263122  0.12818802  1
  In  In62  1  0.32700747  0.17533679  0.48450543  1
  In  In63  1  0.34813958  0.83833696  0.84271548  1
  In  In64  1  0.33154713  0.01317376  0.65696846  1
  In  In65  1  0.65862871  0.33446116  0.34835573  1
  In  In66  1  0.82922970  0.69231390  0.84854142  1
  In  In67  1  0.66926405  0.82803658  0.49832432  1
  In  In68  1  0.48917927  0.68703163  0.85777417  1
  In  In69  1  -0.04079401  0.77296018  0.65937570  1
  In  In70  1  0.15835311  0.83964450  0.65355769  1
  In  In71  1  0.00946629  0.67713008  0.34554200  1
  Te  Te72  1  0.06405976  0.08235943  0.07389407  1
  Te  Te73  1  0.07778013  0.06929074  0.40093577  1
  Te  Te74  1  0.08430536  0.08063729  0.76491692  1
  Te  Te75  1  0.08497590  0.40918957  0.07544312  1
  Te  Te76  1  0.09438294  0.40775233  0.41073152  1
  Te  Te77  1  0.08648031  0.42071661  0.74775509  1
  Te  Te78  1  0.14482426  0.78399825  0.04533189  1
  Te  Te79  1  0.07316351  0.77817307  0.43165847  1
  Te  Te80  1  0.07598264  0.75810009  0.74617514  1
  Te  Te81  1  0.42090445  0.10337093  0.08861241  1
  Te  Te82  1  0.41870586  0.06297509  0.41673399  1
  Te  Te83  1  0.42827811  0.07772268  0.75472298  1
  Te  Te84  1  0.41749098  0.42580246  0.10255188  1
  Te  Te85  1  0.43786261  0.40224319  0.42546895  1
  Te  Te86  1  0.40973491  0.41225723  0.74212709  1
  Te  Te87  1  0.42149938  0.74647229  0.07894961  1
  Te  Te88  1  0.42549760  0.76061291  0.42939128  1
  Te  Te89  1  0.41059529  0.74344837  0.74992549  1
  Te  Te90  1  0.73127697  0.09113151  0.07241590  1
  Te  Te91  1  0.71329439  0.06448760  0.42984345  1
  Te  Te92  1  0.76122132  0.06756829  0.74666136  1
  Te  Te93  1  0.75892446  0.43363297  0.09517174  1
  Te  Te94  1  0.76570517  0.42138401  0.41808989  1
  Te  Te95  1  0.72903980  0.41703833  0.72329206  1
  Te  Te96  1  0.74894106  0.76554291  0.09279074  1
  Te  Te97  1  0.72406739  0.72814548  0.40293956  1
  Te  Te98  1  0.76922278  0.77590216  0.74233653  1
  Te  Te99  1  0.07640263  0.24084444  0.22687945  1
  Te  Te100  1  0.08914991  0.24405478  0.56193429  1
  Te  Te101  1  0.05260455  0.27272141  0.91242127  1
  Te  Te102  1  0.08808033  0.60367903  0.23890880  1
  Te  Te103  1  0.05540653  0.60055734  0.60119758  1
  Te  Te104  1  0.09611240  0.59298006  0.92393042  1
  Te  Te105  1  0.09090388  0.90806478  0.23664315  1
  Te  Te106  1  0.09647356  0.93841851  0.56491082  1
  Te  Te107  1  0.06684796  0.87536628  0.95543608  1
  Te  Te108  1  0.40773212  0.23176790  0.24568988  1
  Te  Te109  1  0.41185620  0.23191137  0.59116010  1
  Te  Te110  1  0.42075698  0.23767281  0.90628470  1
  Te  Te111  1  0.42366932  0.60168435  0.24451384  1
  Te  Te112  1  0.40451104  0.57744541  0.59267044  1
  Te  Te113  1  0.43492833  0.56219833  0.93108321  1
  Te  Te114  1  0.41720663  0.90432679  0.25571376  1
  Te  Te115  1  0.43237654  0.91429557  0.60167790  1
  Te  Te116  1  0.39160935  0.93582193  0.94675441  1
  Te  Te117  1  0.75364437  0.25375955  0.25665569  1
  Te  Te118  1  0.72738397  0.27341816  0.62548504  1
  Te  Te119  1  0.74783587  0.24585970  0.89283806  1
  Te  Te120  1  0.75530698  0.60773160  0.25792862  1
  Te  Te121  1  0.76409124  0.60440619  0.58561202  1
  Te  Te122  1  0.74785062  0.60048162  0.94205760  1
  Te  Te123  1  0.74072357  0.90902119  0.26881843  1
  Te  Te124  1  0.75787756  0.88992503  0.60405163  1
  Te  Te125  1  0.75803248  0.92129683  0.92315977  1
  Te  Te126  1  0.25139575  0.25001509  0.07607573  1
  Te  Te127  1  0.25056452  0.25812251  0.39321191  1
  Te  Te128  1  0.25712893  0.24661845  0.71763367  1
  Te  Te129  1  0.26209587  0.58123534  0.10247529  1
  Te  Te130  1  0.24210479  0.59348969  0.42507619  1
  Te  Te131  1  0.23675946  0.60568751  0.75954792  1
  Te  Te132  1  0.27306701  0.92227517  0.05912955  1
  Te  Te133  1  0.23208566  0.87868800  0.39861367  1
  Te  Te134  1  0.24485746  0.93029032  0.75150316  1
  Te  Te135  1  0.57383278  0.25807064  0.06837231  1
  Te  Te136  1  0.58632396  0.24745766  0.43966385  1
  Te  Te137  1  0.59598034  0.23858896  0.72060722  1
  Te  Te138  1  0.58794443  0.60402565  0.10843685  1
  Te  Te139  1  0.59433701  0.57545749  0.42519050  1
  Te  Te140  1  0.58364128  0.58428495  0.77200395  1
  Te  Te141  1  0.58984932  0.91596263  0.09416933  1
  Te  Te142  1  0.57454076  0.88187032  0.39767788  1
  Te  Te143  1  0.57471939  0.91149287  0.78536478  1
  Te  Te144  1  0.92745941  0.25297319  0.08653598  1
  Te  Te145  1  0.91436740  0.24726857  0.41514829  1
  Te  Te146  1  0.90876418  0.23412406  0.72230803  1
  Te  Te147  1  0.94463757  0.60953738  0.06184658  1
  Te  Te148  1  0.91430239  0.60224551  0.43601989  1
  Te  Te149  1  0.90509110  0.57789264  0.77718960  1
  Te  Te150  1  0.91750006  0.92537774  0.10219520  1
  Te  Te151  1  0.89575854  0.93680046  0.42869343  1
  Te  Te152  1  0.95741351  0.89416079  0.75735393  1
  Te  Te153  1  0.25053348  0.07554452  0.23097258  1
  Te  Te154  1  0.24039652  0.06756355  0.54956149  1
  Te  Te155  1  0.22929514  0.08303192  0.91900938  1
  Te  Te156  1  0.26823319  0.42838237  0.24744169  1
  Te  Te157  1  0.24175249  0.41562617  0.58139998  1
  Te  Te158  1  0.25475106  0.40579760  0.90177350  1
  Te  Te159  1  0.23781479  0.76210001  0.26592495  1
  Te  Te160  1  0.26017226  0.74570728  0.59178132  1
  Te  Te161  1  0.24533167  0.75048988  0.90580459  1
  Te  Te162  1  0.59035187  0.07916004  0.26126733  1
  Te  Te163  1  0.62941825  0.06867237  0.56037605  1
  Te  Te164  1  0.57999910  0.02871675  0.89469667  1
  Te  Te165  1  0.59928968  0.43017230  0.24820201  1
  Te  Te166  1  0.55851899  0.40720438  0.55555804  1
  Te  Te167  1  0.59077859  0.40207975  0.91306115  1
  Te  Te168  1  0.54540419  0.71067649  0.22940319  1
  Te  Te169  1  0.57613269  0.75346101  0.60163842  1
  Te  Te170  1  0.60256010  0.78560448  0.88738850  1
  Te  Te171  1  0.90113325  0.09135091  0.24920951  1
  Te  Te172  1  0.89181324  0.08023237  0.58693035  1
  Te  Te173  1  0.92187088  0.06644169  0.93376420  1
  Te  Te174  1  0.94481347  0.42177514  0.26161356  1
  Te  Te175  1  0.91612968  0.40994768  0.56869454  1
  Te  Te176  1  0.89206872  0.41912684  0.91686764  1
  Te  Te177  1  0.92588084  0.76355288  0.24989691  1
  Te  Te178  1  0.89643204  0.81994205  0.53585957  1
  Te  Te179  1  0.94322572  0.74336000  0.93001075  1
