# generated using pymatgen
data_In2Te3
_symmetry_space_group_name_H-M   'P 1'
_cell_length_a   18.86241484
_cell_length_b   18.87009822
_cell_length_c   18.85404418
_cell_angle_alpha   89.98683368
_cell_angle_beta   90.04630208
_cell_angle_gamma   90.02026165
_symmetry_Int_Tables_number   1
_chemical_formula_structural   In2Te3
_chemical_formula_sum   'In72 Te108'
_cell_volume   6710.82312889
_cell_formula_units_Z   36
loop_
 _symmetry_equiv_pos_site_id
 _symmetry_equiv_pos_as_xyz
  1  'x, y, z'
loop_
 _atom_site_type_symbol
 _atom_site_label
 _atom_site_symmetry_multiplicity
 _atom_site_fract_x
 _atom_site_fract_y
 _atom_site_fract_z
 _atom_site_occupancy
  In  In0  1  0.66003412  0.67339968  -0.01326857  1
  In  In1  1  0.16194167  0.81228797  0.68492896  1
  In  In2  1  0.47524644  0.64348841  0.14880810  1
  In  In3  1  -0.00285544  0.66404172  0.67373096  1
  In  In4  1  0.52553950  0.17731393  -0.00654701  1
  In  In5  1  0.83436810  0.33840435  0.51173926  1
  In  In6  1  0.84884988  0.32006239  0.16719457  1
  In  In7  1  0.33357505  0.49046449  0.16341413  1
  In  In8  1  0.15288703  0.66975638  0.18370268  1
  In  In9  1  0.66231172  0.48744548  0.53736085  1
  In  In10  1  0.83362339  0.02805496  0.86014027  1
  In  In11  1  0.33307197  0.16654722  0.83049475  1
  In  In12  1  0.34538807  0.16330600  0.18431770  1
  In  In13  1  -0.00091286  0.00382605  0.66624165  1
  In  In14  1  0.32479447  0.34892215  -0.03000494  1
  In  In15  1  0.00170669  0.17571423  0.50386289  1
  In  In16  1  0.64910366  0.19715883  0.82486244  1
  In  In17  1  0.14876773  0.35398795  0.86143496  1
  In  In18  1  0.67322513  0.50447136  0.80438640  1
  In  In19  1  0.49778700  0.50261059  -0.01659951  1
  In  In20  1  0.86257158  0.48499030  0.00173415  1
  In  In21  1  -0.01380940  0.15708680  0.15373321  1
  In  In22  1  0.52238671  -0.01094750  0.15395903  1
  In  In23  1  0.52159188  0.15819836  0.33042049  1
  In  In24  1  0.47828741  0.81300000  0.30033441  1
  In  In25  1  -0.00157918  0.34236268  0.33272518  1
  In  In26  1  0.67669846  0.83308747  0.12869133  1
  In  In27  1  0.66659600  0.01601527  0.31359749  1
  In  In28  1  0.33569126  0.67222180  -0.01510257  1
  In  In29  1  0.50840874  0.47828775  0.34535190  1
  In  In30  1  0.16018851  0.84360859  -0.01872662  1
  In  In31  1  0.67548436  0.00763557  0.66870004  1
  In  In32  1  0.48542463  0.82556154  0.67785553  1
  In  In33  1  0.84152014  0.84065198  0.34972485  1
  In  In34  1  0.84934011  0.30928191  0.82941689  1
  In  In35  1  0.16816933  0.17525210  0.64786105  1
  In  In36  1  0.33562639  0.34108932  0.35064161  1
  In  In37  1  0.84248769  0.82445493  0.66979709  1
  In  In38  1  0.32209838  0.65948050  0.38286320  1
  In  In39  1  0.13849482  0.82313077  0.30656195  1
  In  In40  1  0.16890736  0.00083586  0.50891321  1
  In  In41  1  0.00560947  0.64912014  0.33759085  1
  In  In42  1  0.32409561  0.01343250  0.33885914  1
  In  In43  1  0.32697868  -0.01660731  -0.00155869  1
  In  In44  1  0.15815969  -0.03223130  0.83939395  1
  In  In45  1  0.67882974  0.17024983  0.51193870  1
  In  In46  1  0.31481461  0.49767295  0.48940291  1
  In  In47  1  0.85241845  0.63619843  0.14712580  1
  In  In48  1  0.31202454  0.80457021  0.12416095  1
  In  In49  1  0.30941857  0.81943337  0.52540169  1
  In  In50  1  0.84844139  0.49921017  0.33017293  1
  In  In51  1  0.32016980  0.82527628  0.83773971  1
  In  In52  1  0.50353137  0.03852059  0.82999185  1
  In  In53  1  0.15257961  0.33293199  0.50593940  1
  In  In54  1  0.81817361  0.03416623  0.14138187  1
  In  In55  1  0.14906280  0.17715399  0.01995863  1
  In  In56  1  -0.02430583  0.84985282  0.15801111  1
  In  In57  1  0.67456650  0.32773180  0.30906650  1
  In  In58  1  0.69146403  0.68356665  0.32789612  1
  In  In59  1  0.65729332  0.81237811  0.47392916  1
  In  In60  1  0.50466205  0.64335557  0.52390714  1
  In  In61  1  0.34770261  0.34099160  0.68074819  1
  In  In62  1  0.83967003  0.50256077  0.66928973  1
  In  In63  1  0.49662042  0.48581002  0.67783794  1
  In  In64  1  0.68747498  0.83367676  0.84663116  1
  In  In65  1  0.16261834  0.36999445  0.13846655  1
  In  In66  1  0.85268983  0.68178020  0.85938565  1
  In  In67  1  0.85445545  -0.01101519  0.49972691  1
  In  In68  1  0.66457396  0.34975923  -0.00300214  1
  In  In69  1  0.16947378  0.51962902  0.72308817  1
  In  In70  1  0.16255752  0.18716867  0.34292720  1
  In  In71  1  0.51516972  0.00631902  0.49908363  1
  Te  Te72  1  0.07337092  0.06479135  0.07706366  1
  Te  Te73  1  0.07903117  0.08109757  0.41397895  1
  Te  Te74  1  0.10266382  0.07898640  0.74648582  1
  Te  Te75  1  0.06165935  0.40357282  0.03511165  1
  Te  Te76  1  0.07999830  0.42831566  0.42073118  1
  Te  Te77  1  0.06252446  0.42379685  0.76174934  1
  Te  Te78  1  0.08198836  0.76185106  0.08804929  1
  Te  Te79  1  0.08922702  0.74203985  0.41670561  1
  Te  Te80  1  0.05390004  0.75876044  0.77891168  1
  Te  Te81  1  0.41637847  0.08694859  0.07048913  1
  Te  Te82  1  0.41735630  0.09827171  0.42410614  1
  Te  Te83  1  0.39719499  0.07346337  0.73556501  1
  Te  Te84  1  0.42221069  0.40596460  0.07527304  1
  Te  Te85  1  0.43147638  0.40327660  0.45203391  1
  Te  Te86  1  0.39670152  0.44033033  0.77927819  1
  Te  Te87  1  0.43943255  0.76212670  0.05861304  1
  Te  Te88  1  0.43028766  0.75694996  0.43655961  1
  Te  Te89  1  0.38615400  0.73366823  0.73976173  1
  Te  Te90  1  0.72055930  0.08633717  0.04692051  1
  Te  Te91  1  0.75653303  0.07734087  0.41782733  1
  Te  Te92  1  0.75089310  0.10576898  0.75610997  1
  Te  Te93  1  0.75952908  0.42077417  0.09310760  1
  Te  Te94  1  0.73936523  0.42649250  0.41726971  1
  Te  Te95  1  0.75726828  0.39491738  0.74043504  1
  Te  Te96  1  0.77573959  0.73925948  0.06235448  1
  Te  Te97  1  0.78218279  0.73119085  0.43977749  1
  Te  Te98  1  0.75589746  0.73264739  0.75339790  1
  Te  Te99  1  0.08987229  0.26450846  0.23330564  1
  Te  Te100  1  0.05591204  0.27142145  0.60808555  1
  Te  Te101  1  0.06786660  0.23070562  0.90444055  1
  Te  Te102  1  0.06930043  0.56122621  0.23571198  1
  Te  Te103  1  0.10916936  0.59147171  0.60606171  1
  Te  Te104  1  0.09058085  0.53362482  0.96492265  1
  Te  Te105  1  0.06167283  0.93165098  0.24638025  1
  Te  Te106  1  0.08258149  0.90429466  0.58787357  1
  Te  Te107  1  0.04638781  0.92356063  0.92595672  1
  Te  Te108  1  0.42939008  0.26276313  0.26013038  1
  Te  Te109  1  0.44367866  0.24476195  0.62441609  1
  Te  Te110  1  0.42882200  0.25813373  0.90449648  1
  Te  Te111  1  0.40885742  0.58050322  0.27242101  1
  Te  Te112  1  0.39267157  0.57477009  0.59473470  1
  Te  Te113  1  0.40688526  0.57777984  0.89337350  1
  Te  Te114  1  0.40619402  0.93205428  0.23574588  1
  Te  Te115  1  0.41750590  0.91747057  0.57620033  1
  Te  Te116  1  0.42079557  0.92248756  0.89840101  1
  Te  Te117  1  0.76635880  0.22897209  0.25025481  1
  Te  Te118  1  0.76574950  0.24603467  0.60421871  1
  Te  Te119  1  0.75186527  0.24586265  0.92869565  1
  Te  Te120  1  0.74823496  0.57359369  0.24013900  1
  Te  Te121  1  0.74735748  0.59125644  0.59367087  1
  Te  Te122  1  0.75349589  0.56612730  0.92064524  1
  Te  Te123  1  0.74479515  0.90265857  0.24756636  1
  Te  Te124  1  0.73641664  0.91155709  0.56687069  1
  Te  Te125  1  0.78453138  0.90646407  0.93304374  1
  Te  Te126  1  0.26647798  0.26101923  0.08777814  1
  Te  Te127  1  0.26137634  0.24518766  0.44302325  1
  Te  Te128  1  0.23412366  0.26248052  0.76426903  1
  Te  Te129  1  0.25374436  0.59652806  0.09151767  1
  Te  Te130  1  0.20963015  0.56955553  0.41280566  1
  Te  Te131  1  0.25432825  0.62601201  0.78349031  1
  Te  Te132  1  0.22772828  0.92566498  0.09732180  1
  Te  Te133  1  0.24721938  0.90233327  0.41008926  1
  Te  Te134  1  0.25811337  0.91881100  0.73452515  1
  Te  Te135  1  0.58188200  0.27041946  0.09149881  1
  Te  Te136  1  0.59278645  0.25707836  0.42055216  1
  Te  Te137  1  0.55195640  0.26238410  0.73201112  1
  Te  Te138  1  0.59072274  0.57352815  0.08146388  1
  Te  Te139  1  0.58866179  0.59516251  0.40602801  1
  Te  Te140  1  0.57665724  0.59404191  0.73988634  1
  Te  Te141  1  0.57781373  0.90504265  0.04747927  1
  Te  Te142  1  0.57357135  0.91507743  0.38896827  1
  Te  Te143  1  0.58682571  0.91967785  0.75601820  1
  Te  Te144  1  0.91441732  0.24443979  0.05795121  1
  Te  Te145  1  0.90731583  0.24912585  0.40960191  1
  Te  Te146  1  0.94584851  0.20078060  0.79086269  1
  Te  Te147  1  0.95562817  0.59508190  0.04639192  1
  Te  Te148  1  0.92779259  0.56639389  0.43424516  1
  Te  Te149  1  0.92337967  0.57737513  0.77548547  1
  Te  Te150  1  0.89037350  0.92815133  0.06353281  1
  Te  Te151  1  0.94944612  0.91072489  0.41998256  1
  Te  Te152  1  0.90250013  0.93054600  0.75744834  1
  Te  Te153  1  0.22893801  0.08775358  0.24579938  1
  Te  Te154  1  0.26409203  0.09062257  0.57513185  1
  Te  Te155  1  0.23887272  0.08354300  0.92294942  1
  Te  Te156  1  0.24151833  0.42174485  0.26303068  1
  Te  Te157  1  0.23902726  0.41797592  0.60119973  1
  Te  Te158  1  0.22671411  0.46220556  0.93854441  1
  Te  Te159  1  0.27383074  0.74607335  0.25809440  1
  Te  Te160  1  0.22521632  0.71605890  0.58962897  1
  Te  Te161  1  0.21211253  0.72192411  0.90092768  1
  Te  Te162  1  0.60053391  0.10642109  0.21054234  1
  Te  Te163  1  0.57462469  0.10088822  0.60246359  1
  Te  Te164  1  0.61691415  0.06926107  0.93043050  1
  Te  Te165  1  0.58164715  0.41625441  0.23506923  1
  Te  Te166  1  0.58854818  0.38426398  0.61461678  1
  Te  Te167  1  0.58039449  0.41582803  0.88955914  1
  Te  Te168  1  0.58710866  0.73790385  0.22491707  1
  Te  Te169  1  0.59025542  0.74792928  0.59528772  1
  Te  Te170  1  0.57983162  0.73833558  0.88265085  1
  Te  Te171  1  0.90106120  0.08510340  0.25109199  1
  Te  Te172  1  0.90447654  0.09812193  0.59316859  1
  Te  Te173  1  0.93925182  0.11752115  0.91732617  1
  Te  Te174  1  0.93723973  0.43225362  0.22502635  1
  Te  Te175  1  0.92911218  0.43377575  0.57261576  1
  Te  Te176  1  0.93636706  0.41372284  0.89256149  1
  Te  Te177  1  0.90651963  0.73944574  0.24872915  1
  Te  Te178  1  0.93225121  0.75659046  0.57758950  1
  Te  Te179  1  0.96604637  0.76532296  0.90430874  1
