# generated using pymatgen
data_In2Te3
_symmetry_space_group_name_H-M   'P 1'
_cell_length_a   18.75803716
_cell_length_b   18.74987628
_cell_length_c   18.75835919
_cell_angle_alpha   90.04332804
_cell_angle_beta   89.96295222
_cell_angle_gamma   90.05892558
_symmetry_Int_Tables_number   1
_chemical_formula_structural   In2Te3
_chemical_formula_sum   'In72 Te108'
_cell_volume   6597.51219237
_cell_formula_units_Z   36
loop_
 _symmetry_equiv_pos_site_id
 _symmetry_equiv_pos_as_xyz
  1  'x, y, z'
loop_
 _atom_site_type_symbol
 _atom_site_label
 _atom_site_symmetry_multiplicity
 _atom_site_fract_x
 _atom_site_fract_y
 _atom_site_fract_z
 _atom_site_occupancy
  In  In0  1  0.31812339  0.69669673  0.32386484  1
  In  In1  1  0.17528555  0.15680000  0.00348827  1
  In  In2  1  0.65831252  0.15870966  0.16035905  1
  In  In3  1  0.03588451  0.32908972  0.63243126  1
  In  In4  1  0.48450719  0.17694764  0.00716836  1
  In  In5  1  0.50824408  -0.00078397  0.50499155  1
  In  In6  1  0.33453050  0.66775298  0.66794457  1
  In  In7  1  0.16727354  0.65927223  0.83401370  1
  In  In8  1  -0.00363267  -0.00075854  0.63236946  1
  In  In9  1  0.00428748  0.15671321  0.83101191  1
  In  In10  1  0.82250721  0.32807504  0.82741804  1
  In  In11  1  0.82033091  0.68806760  0.14246971  1
  In  In12  1  0.02019298  0.48043142  0.47233097  1
  In  In13  1  0.82121414  0.13742571  0.36735672  1
  In  In14  1  0.33678924  0.65725463  0.00180271  1
  In  In15  1  0.64444680  0.64963561  0.36287497  1
  In  In16  1  0.50438078  0.83415053  0.34050317  1
  In  In17  1  0.32370736  0.49128162  0.17940974  1
  In  In18  1  0.02910553  0.00989604  0.34006209  1
  In  In19  1  0.03741726  0.48334531  0.19643051  1
  In  In20  1  0.85220415  0.15420838  0.63506509  1
  In  In21  1  0.49469759  0.65988569  0.16529667  1
  In  In22  1  0.64794350  0.17665273  0.80616360  1
  In  In23  1  0.83799256  0.35565752  0.16689969  1
  In  In24  1  0.65204403  0.50627757  0.16663117  1
  In  In25  1  0.18464268  0.51045572  0.65373494  1
  In  In26  1  0.63992780  0.82037948  0.83470603  1
  In  In27  1  0.16731562  0.82880267  0.01042383  1
  In  In28  1  0.49238063  0.83837962  -0.00017734  1
  In  In29  1  0.49324766  0.83018583  0.64430588  1
  In  In30  1  0.19392408  0.00273166  0.82884390  1
  In  In31  1  0.50608828  0.17476219  0.31189714  1
  In  In32  1  0.19466901  0.33146157  0.82878048  1
  In  In33  1  0.33252037  0.33451206  0.66570333  1
  In  In34  1  0.82793407  0.52670617  0.66410922  1
  In  In35  1  0.64597239  0.33139849  0.65557173  1
  In  In36  1  0.33776440  0.33648357  -0.00187894  1
  In  In37  1  0.30730517  0.17748662  0.48379000  1
  In  In38  1  0.83801595  0.19101680  -0.00854298  1
  In  In39  1  0.81140169  0.82091747  0.33976432  1
  In  In40  1  0.65627968  -0.01074588  0.00543017  1
  In  In41  1  0.00435828  0.80602956  0.83906092  1
  In  In42  1  0.49106422  0.33371907  0.49083835  1
  In  In43  1  0.16294946  0.65968315  0.50770635  1
  In  In44  1  0.49538694  0.00423669  0.19228890  1
  In  In45  1  0.32840603  0.16699928  0.18404384  1
  In  In46  1  0.66352568  0.33426813  0.32590042  1
  In  In47  1  0.01261842  -0.00095198  0.03010679  1
  In  In48  1  0.01621183  0.85016097  0.16746514  1
  In  In49  1  -0.00223126  0.51957300  0.82995418  1
  In  In50  1  0.83518256  0.32244227  0.49242228  1
  In  In51  1  0.84819391  -0.02145982  0.18514943  1
  In  In52  1  0.85314369  0.50260593  0.32872710  1
  In  In53  1  0.00484604  0.35150291  0.02582942  1
  In  In54  1  0.49544462  0.66325948  0.83730692  1
  In  In55  1  0.18456252  0.17453975  0.63186692  1
  In  In56  1  0.01053955  0.64891849  0.32812247  1
  In  In57  1  0.16466478  0.84883615  0.66197722  1
  In  In58  1  0.18002522  -0.00005706  0.16419008  1
  In  In59  1  0.64160494  0.48770759  0.87063209  1
  In  In60  1  0.65561637  0.68274070  0.64886288  1
  In  In61  1  0.00659387  0.67379089  0.01330826  1
  In  In62  1  -0.00404120  0.83411430  0.50467579  1
  In  In63  1  0.82083552  0.83981371  0.64414041  1
  In  In64  1  0.48480197  0.34371324  0.17642576  1
  In  In65  1  0.81248696  -0.03021859  0.83422119  1
  In  In66  1  0.82448626  0.52445250  0.00895679  1
  In  In67  1  0.47970822  0.49292035  0.65843414  1
  In  In68  1  0.31358992  -0.01841434  0.35422833  1
  In  In69  1  0.33534328  0.49132438  0.50683801  1
  In  In70  1  0.66705985  -0.00081624  0.64290891  1
  In  In71  1  0.45917492  0.01789020  0.81896046  1
  Te  Te72  1  0.07922282  0.10663095  0.11250624  1
  Te  Te73  1  0.09690412  0.10306753  0.43229524  1
  Te  Te74  1  0.08970873  0.08079237  0.73009165  1
  Te  Te75  1  0.11832828  0.42132405  0.08705471  1
  Te  Te76  1  0.11450154  0.39517302  0.39514458  1
  Te  Te77  1  0.08553894  0.41830118  0.75285955  1
  Te  Te78  1  0.10809881  0.73372295  0.11532637  1
  Te  Te79  1  0.08758592  0.75176715  0.41283672  1
  Te  Te80  1  0.08567995  0.73571211  0.72965980  1
  Te  Te81  1  0.40691002  0.07451779  0.08936334  1
  Te  Te82  1  0.41739405  0.08902180  0.40386551  1
  Te  Te83  1  0.38886152  0.11707026  0.74009801  1
  Te  Te84  1  0.42427796  0.43895825  0.07583261  1
  Te  Te85  1  0.40609673  0.41380910  0.40120543  1
  Te  Te86  1  0.41051628  0.41431185  0.76316143  1
  Te  Te87  1  0.40163252  0.75936968  0.09611428  1
  Te  Te88  1  0.41483436  0.74953628  0.42245776  1
  Te  Te89  1  0.41346184  0.76393722  0.75738748  1
  Te  Te90  1  0.76155892  0.07890413  0.07845781  1
  Te  Te91  1  0.72591061  0.04813184  0.43466868  1
  Te  Te92  1  0.76445950  0.09015358  0.75033915  1
  Te  Te93  1  0.73649358  0.41563645  0.07303183  1
  Te  Te94  1  0.75235967  0.42424690  0.41322999  1
  Te  Te95  1  0.73574584  0.42176074  0.74367712  1
  Te  Te96  1  0.72818824  0.76281513  0.05996912  1
  Te  Te97  1  0.74416171  0.73280928  0.43912230  1
  Te  Te98  1  0.74690751  0.75396181  0.75087114  1
  Te  Te99  1  0.13210020  0.29215551  0.27284499  1
  Te  Te100  1  0.07235697  0.21800792  0.53801053  1
  Te  Te101  1  0.08148879  0.25453353  0.91949153  1
  Te  Te102  1  0.12683234  0.58109587  0.26614271  1
  Te  Te103  1  0.06438797  0.57379775  0.58846923  1
  Te  Te104  1  0.09347957  0.57305311  0.93658771  1
  Te  Te105  1  0.11965013  0.90157868  0.26878400  1
  Te  Te106  1  0.11299656  0.93820641  0.54410231  1
  Te  Te107  1  0.08021437  0.92489953  0.91300873  1
  Te  Te108  1  0.39350146  0.27187025  0.27541008  1
  Te  Te109  1  0.41401469  0.23812764  0.58041538  1
  Te  Te110  1  0.43391162  0.27014475  0.90369946  1
  Te  Te111  1  0.41019683  0.58431165  0.26625590  1
  Te  Te112  1  0.42841462  0.60358828  0.56531368  1
  Te  Te113  1  0.41482107  0.56627237  0.91378259  1
  Te  Te114  1  0.39748213  0.90400378  0.25198888  1
  Te  Te115  1  0.40174837  0.93009890  0.58370979  1
  Te  Te116  1  0.40299432  0.91816855  0.91273699  1
  Te  Te117  1  0.75697720  0.24326264  0.24417253  1
  Te  Te118  1  0.73804110  0.23703624  0.57494378  1
  Te  Te119  1  0.72230171  0.25791559  0.91896647  1
  Te  Te120  1  0.75668439  0.58925848  0.24719590  1
  Te  Te121  1  0.74083898  0.59255954  0.56407816  1
  Te  Te122  1  0.74890270  0.58471084  0.89818737  1
  Te  Te123  1  0.73639469  0.90236465  0.24180111  1
  Te  Te124  1  0.77432212  0.94726899  0.54968823  1
  Te  Te125  1  0.74494376  0.88115645  0.94118460  1
  Te  Te126  1  0.24604979  0.25842842  0.09375433  1
  Te  Te127  1  0.22748774  0.26954101  0.39673811  1
  Te  Te128  1  0.26687456  0.21532209  0.76142432  1
  Te  Te129  1  0.24583448  0.58486258  0.09455880  1
  Te  Te130  1  0.25067678  0.58020633  0.41441007  1
  Te  Te131  1  0.26999298  0.56770687  0.76412611  1
  Te  Te132  1  0.26388360  0.92259447  0.07122328  1
  Te  Te133  1  0.23468973  0.90430494  0.44996816  1
  Te  Te134  1  0.27236294  0.91865858  0.73597528  1
  Te  Te135  1  0.58356713  0.26870510  0.08486825  1
  Te  Te136  1  0.59197678  0.23899526  0.42131243  1
  Te  Te137  1  0.54851742  0.27077640  0.74964490  1
  Te  Te138  1  0.57775498  0.58507365  0.06647831  1
  Te  Te139  1  0.57502955  0.55555399  0.45086933  1
  Te  Te140  1  0.58320028  0.58007828  0.74094207  1
  Te  Te141  1  0.57911854  0.90756404  0.10778361  1
  Te  Te142  1  0.60141349  0.92228386  0.41584190  1
  Te  Te143  1  0.57793136  0.93107587  0.75074050  1
  Te  Te144  1  0.92679898  0.24524679  0.10333905  1
  Te  Te145  1  0.91886616  0.24498047  0.39753486  1
  Te  Te146  1  0.92375221  0.25186490  0.73965242  1
  Te  Te147  1  0.93184855  0.57046093  0.10866561  1
  Te  Te148  1  0.91804923  0.59066668  0.43482611  1
  Te  Te149  1  0.90883297  0.61010128  0.75592203  1
  Te  Te150  1  0.90837319  0.89594199  0.06937466  1
  Te  Te151  1  0.92217950  0.91158896  0.39642986  1
  Te  Te152  1  0.92897753  0.91575242  0.74575098  1
  Te  Te153  1  0.23493248  0.08945436  0.27616900  1
  Te  Te154  1  0.26885702  0.06507203  0.57495518  1
  Te  Te155  1  0.27493818  0.08424357  0.92249661  1
  Te  Te156  1  0.22919442  0.40863439  0.26701878  1
  Te  Te157  1  0.22981094  0.39247502  0.57031465  1
  Te  Te158  1  0.24711074  0.42956571  0.92414959  1
  Te  Te159  1  0.21851436  0.76775399  0.24226996  1
  Te  Te160  1  0.25868573  0.75978158  0.57289638  1
  Te  Te161  1  0.25511748  0.75781521  0.90772921  1
  Te  Te162  1  0.61015938  0.06771516  0.27176044  1
  Te  Te163  1  0.57165705  0.09964351  0.59490009  1
  Te  Te164  1  0.57902358  0.08513532  0.91603730  1
  Te  Te165  1  0.56463744  0.43608120  0.27045863  1
  Te  Te166  1  0.59135216  0.43947661  0.55677457  1
  Te  Te167  1  0.57817012  0.38673455  0.95249650  1
  Te  Te168  1  0.59094866  0.74078260  0.25306616  1
  Te  Te169  1  0.59702625  0.77997471  0.55164024  1
  Te  Te170  1  0.58514272  0.72794109  0.94460196  1
  Te  Te171  1  0.92456819  0.08664056  0.25754003  1
  Te  Te172  1  0.93101730  0.08538576  0.52852546  1
  Te  Te173  1  0.91162526  0.07464126  0.92104893  1
  Te  Te174  1  0.94188077  0.39050590  0.27396133  1
  Te  Te175  1  0.91588150  0.41564144  0.58663959  1
  Te  Te176  1  0.91053901  0.41520841  0.91915673  1
  Te  Te177  1  0.92446572  0.74936405  0.24631087  1
  Te  Te178  1  0.91563218  0.74284671  0.58733761  1
  Te  Te179  1  0.90639929  0.73398074  0.92228579  1
