# generated using pymatgen
data_In2Te3
_symmetry_space_group_name_H-M   'P 1'
_cell_length_a   18.80551368
_cell_length_b   18.80625822
_cell_length_c   18.80613601
_cell_angle_alpha   90.06635354
_cell_angle_beta   90.03939683
_cell_angle_gamma   90.03934133
_symmetry_Int_Tables_number   1
_chemical_formula_structural   In2Te3
_chemical_formula_sum   'In72 Te108'
_cell_volume   6650.99577610
_cell_formula_units_Z   36
loop_
 _symmetry_equiv_pos_site_id
 _symmetry_equiv_pos_as_xyz
  1  'x, y, z'
loop_
 _atom_site_type_symbol
 _atom_site_label
 _atom_site_symmetry_multiplicity
 _atom_site_fract_x
 _atom_site_fract_y
 _atom_site_fract_z
 _atom_site_occupancy
  In  In0  1  0.18584876  0.80965846  0.30311947  1
  In  In1  1  0.15403968  0.33971814  0.51015656  1
  In  In2  1  0.19233271  0.68278549  0.51768353  1
  In  In3  1  0.01690621  0.33300423  0.00234257  1
  In  In4  1  0.63953316  -0.01271377  0.00003668  1
  In  In5  1  -0.02456900  -0.02390649  0.68574234  1
  In  In6  1  0.01479457  0.16135076  0.14647513  1
  In  In7  1  0.16929724  0.14832819  0.69499027  1
  In  In8  1  0.67362591  0.49935913  0.17896570  1
  In  In9  1  0.18282576  0.33331960  0.86709366  1
  In  In10  1  0.66249908  0.14692521  0.51856411  1
  In  In11  1  0.31324723  0.50888095  0.48403822  1
  In  In12  1  0.67678541  0.81459354  0.84144240  1
  In  In13  1  0.85347156  0.15577004  -0.01297628  1
  In  In14  1  0.18554660  0.31049535  0.13144096  1
  In  In15  1  0.67489032  0.84106175  0.16037949  1
  In  In16  1  0.18729715  0.53509043  0.31593131  1
  In  In17  1  0.17518306  0.82015766  0.68124915  1
  In  In18  1  -0.02475539  0.33578376  0.30563030  1
  In  In19  1  0.63596742  -0.03488484  0.36207937  1
  In  In20  1  0.64448238  0.18520414  0.17388163  1
  In  In21  1  0.85415126  0.52479343  0.64291455  1
  In  In22  1  0.83419455  -0.02465903  0.51274432  1
  In  In23  1  0.01338583  0.65895495  0.30226346  1
  In  In24  1  0.32595527  0.33251361  0.33488670  1
  In  In25  1  0.48321143  -0.00357008  0.83198838  1
  In  In26  1  0.33437104  -0.03548812  0.66629948  1
  In  In27  1  0.45534482  0.67910938  0.15864256  1
  In  In28  1  0.32220808  0.81977071  0.83739489  1
  In  In29  1  0.81552258  0.00660338  0.16870694  1
  In  In30  1  0.49034485  0.31359270  0.84295749  1
  In  In31  1  0.32026595  0.16030960  0.84754738  1
  In  In32  1  0.48489092  0.50151501  0.00324676  1
  In  In33  1  -0.01352224  0.65306952  0.01235511  1
  In  In34  1  0.67199030  0.14763264  0.84133444  1
  In  In35  1  -0.00186801  0.48061749  0.49649798  1
  In  In36  1  0.17398449  -0.02366861  0.47061897  1
  In  In37  1  0.65651516  0.69331022  0.34993919  1
  In  In38  1  0.33476644  0.51811046  0.84266202  1
  In  In39  1  0.64206236  0.34960119  0.30115223  1
  In  In40  1  0.84790507  0.48655092  0.31068848  1
  In  In41  1  0.66744635  0.34936977  0.03729185  1
  In  In42  1  0.66308808  0.53970874  0.49812979  1
  In  In43  1  0.00620848  0.83607439  0.18034263  1
  In  In44  1  0.19238241  0.50202240  0.67880260  1
  In  In45  1  0.01729633  0.67494531  0.67895444  1
  In  In46  1  0.81285216  0.30853319  0.46669640  1
  In  In47  1  0.50686615  0.52008647  0.67956026  1
  In  In48  1  0.32056456  0.00360101  0.00252727  1
  In  In49  1  0.35164182  0.14986679  0.49899930  1
  In  In50  1  -0.00475747  0.83389253  0.49343086  1
  In  In51  1  0.83556214  0.82164235  -0.01597679  1
  In  In52  1  0.84031413  0.34053855  0.82518054  1
  In  In53  1  0.66214556  0.00813677  0.64102135  1
  In  In54  1  0.84745404  0.17251284  0.66793165  1
  In  In55  1  0.85352116  0.15524425  0.32944419  1
  In  In56  1  0.49357040  0.15766174  0.32491816  1
  In  In57  1  0.02927809  -0.00879712  0.00198583  1
  In  In58  1  0.82519156  0.67154948  0.51451179  1
  In  In59  1  0.48403771  0.68829590  0.49888218  1
  In  In60  1  0.47068173  0.34171883  0.15287869  1
  In  In61  1  0.48759303  0.32029081  0.49712014  1
  In  In62  1  0.00981264  0.30883104  0.67106933  1
  In  In63  1  0.83476166  0.37656621  0.17202979  1
  In  In64  1  0.45907301  -0.02342723  0.17686109  1
  In  In65  1  0.49646515  0.83017685  0.66501234  1
  In  In66  1  0.18446012  0.83872936  0.00572044  1
  In  In67  1  0.65906052  0.53240370  0.84196077  1
  In  In68  1  0.64135821  0.34724877  0.69565857  1
  In  In69  1  0.19152227  0.13162705  0.31021671  1
  In  In70  1  0.66844064  0.67845803  -0.00191432  1
  In  In71  1  0.02312645  0.51844418  0.85048169  1
  Te  Te72  1  0.12007499  0.08271373  0.07838929  1
  Te  Te73  1  0.08889977  0.07336534  0.39866431  1
  Te  Te74  1  0.06707784  0.06498078  0.76125043  1
  Te  Te75  1  0.11621219  0.42559842  0.06495163  1
  Te  Te76  1  0.09472424  0.42299227  0.39501730  1
  Te  Te77  1  0.08503139  0.41549513  0.74985873  1
  Te  Te78  1  0.08630509  0.74997830  0.08525346  1
  Te  Te79  1  0.08774434  0.73693021  0.41899651  1
  Te  Te80  1  0.09471691  0.74707340  0.78287754  1
  Te  Te81  1  0.40531533  0.08915094  0.09374018  1
  Te  Te82  1  0.40170509  0.06326654  0.39009753  1
  Te  Te83  1  0.40003977  0.08330625  0.74143201  1
  Te  Te84  1  0.37849054  0.42400491  0.07203359  1
  Te  Te85  1  0.42005753  0.42530290  0.41008255  1
  Te  Te86  1  0.42125572  0.41978945  0.75777780  1
  Te  Te87  1  0.36992060  0.76721107  0.07273451  1
  Te  Te88  1  0.43809776  0.77376190  0.38264274  1
  Te  Te89  1  0.40524411  0.74122492  0.74145050  1
  Te  Te90  1  0.73314698  0.09657767  0.07556057  1
  Te  Te91  1  0.74548378  0.08001166  0.40918151  1
  Te  Te92  1  0.76093391  0.07220121  0.74291085  1
  Te  Te93  1  0.76778988  0.46154539  0.06144885  1
  Te  Te94  1  0.73758247  0.43048039  0.40948298  1
  Te  Te95  1  0.75750747  0.43650464  0.73976230  1
  Te  Te96  1  0.77017220  0.74151819  0.09625378  1
  Te  Te97  1  0.75143369  0.77245640  0.43380201  1
  Te  Te98  1  0.77814186  0.76690309  0.74780423  1
  Te  Te99  1  0.09109392  0.24875633  0.24809676  1
  Te  Te100  1  0.09080927  0.21958158  0.57992298  1
  Te  Te101  1  0.09359898  0.23265376  0.92649958  1
  Te  Te102  1  0.12029481  0.61397526  0.20974294  1
  Te  Te103  1  0.08795211  0.57315482  0.57880963  1
  Te  Te104  1  0.10677060  0.59040812  0.94716158  1
  Te  Te105  1  0.10011548  0.92133544  0.25662370  1
  Te  Te106  1  0.08808233  0.91199438  0.58926953  1
  Te  Te107  1  0.07547910  0.88176672  0.91020858  1
  Te  Te108  1  0.39706678  0.23843215  0.23887051  1
  Te  Te109  1  0.41242043  0.24399664  0.59593668  1
  Te  Te110  1  0.38247023  0.26603873  0.93844199  1
  Te  Te111  1  0.38647294  0.57798536  0.24189018  1
  Te  Te112  1  0.40798208  0.58289488  0.58118897  1
  Te  Te113  1  0.42743940  0.60675604  0.91847832  1
  Te  Te114  1  0.40304023  0.89492193  0.28722808  1
  Te  Te115  1  0.43716877  0.92506342  0.56360369  1
  Te  Te116  1  0.41216948  0.90572066  0.92867541  1
  Te  Te117  1  0.76101863  0.25799524  0.25140956  1
  Te  Te118  1  0.73671750  0.25741890  0.60024320  1
  Te  Te119  1  0.74766311  0.25982979  0.91847919  1
  Te  Te120  1  0.74985083  0.59554272  0.26736123  1
  Te  Te121  1  0.72866832  0.60907026  0.61725444  1
  Te  Te122  1  0.76461202  0.61203230  0.90576459  1
  Te  Te123  1  0.75068937  0.91377770  0.27084499  1
  Te  Te124  1  0.72233599  0.89433907  0.56508997  1
  Te  Te125  1  0.75139389  0.93149494  0.91702016  1
  Te  Te126  1  0.28766952  0.23388120  0.05910454  1
  Te  Te127  1  0.24364842  0.24198562  0.42498475  1
  Te  Te128  1  0.25304419  0.26345923  0.75125131  1
  Te  Te129  1  0.30334129  0.61033065  0.12326687  1
  Te  Te130  1  0.27635301  0.62972467  0.39852527  1
  Te  Te131  1  0.25777815  0.60994050  0.75230634  1
  Te  Te132  1  0.24045408  0.93380428  0.11400856  1
  Te  Te133  1  0.27172799  0.88924232  0.39966082  1
  Te  Te134  1  0.23468363  0.92830317  0.77417275  1
  Te  Te135  1  0.55724595  0.24785075  0.06641244  1
  Te  Te136  1  0.59408911  0.24805166  0.40843427  1
  Te  Te137  1  0.57276505  0.22311459  0.74980629  1
  Te  Te138  1  0.58272818  0.58679819  0.09016435  1
  Te  Te139  1  0.55820852  0.58788739  0.40129979  1
  Te  Te140  1  0.57003538  0.62177510  0.76573223  1
  Te  Te141  1  0.55403096  0.89612543  0.08486281  1
  Te  Te142  1  0.54345714  0.87607511  0.43722002  1
  Te  Te143  1  0.59196312  0.92392746  0.75662218  1
  Te  Te144  1  0.90122095  0.25627893  0.09329571  1
  Te  Te145  1  0.94090617  0.24030380  0.42186337  1
  Te  Te146  1  0.93574600  0.23063910  0.77899791  1
  Te  Te147  1  0.91282845  0.56843003  0.10892059  1
  Te  Te148  1  0.91242650  0.58094231  0.42067623  1
  Te  Te149  1  0.91897905  0.59192733  0.76234964  1
  Te  Te150  1  0.90876206  0.92266830  0.08159850  1
  Te  Te151  1  0.91673688  0.91961921  0.40431442  1
  Te  Te152  1  0.88742648  0.87482223  0.75012819  1
  Te  Te153  1  0.26785861  0.05445952  0.21164798  1
  Te  Te154  1  0.24569619  0.06463184  0.58221092  1
  Te  Te155  1  0.22036325  0.07930677  0.92162186  1
  Te  Te156  1  0.23872032  0.41158953  0.24029499  1
  Te  Te157  1  0.26765464  0.40471489  0.58796345  1
  Te  Te158  1  0.23878776  0.45107640  0.93907605  1
  Te  Te159  1  0.28016940  0.75025631  0.19872505  1
  Te  Te160  1  0.28116748  0.77842583  0.58544705  1
  Te  Te161  1  0.26496503  0.72797425  0.94212134  1
  Te  Te162  1  0.58932322  0.06019827  0.24352784  1
  Te  Te163  1  0.54690966  0.07377038  0.57247392  1
  Te  Te164  1  0.55635711  0.09251662  0.92649389  1
  Te  Te165  1  0.54275836  0.44439440  0.24178580  1
  Te  Te166  1  0.58562301  0.42304192  0.57438766  1
  Te  Te167  1  0.58940427  0.41242699  0.91181164  1
  Te  Te168  1  0.57546474  0.75350234  0.23598595  1
  Te  Te169  1  0.59044247  0.74892454  0.58214607  1
  Te  Te170  1  0.56957062  0.76280947  0.92765021  1
  Te  Te171  1  0.93810765  0.06683776  0.24012063  1
  Te  Te172  1  0.92510913  0.07915143  0.57720343  1
  Te  Te173  1  0.93068939  0.05827129  0.91037944  1
  Te  Te174  1  0.96715071  0.45881627  0.20812869  1
  Te  Te175  1  0.91067007  0.38922474  0.58194680  1
  Te  Te176  1  0.92375219  0.42386739  0.92157629  1
  Te  Te177  1  0.91143424  0.75449922  0.26003285  1
  Te  Te178  1  0.91688527  0.75980248  0.60171857  1
  Te  Te179  1  0.94761122  0.75838098  0.90979663  1
