# generated using pymatgen
data_In2Te3
_symmetry_space_group_name_H-M   'P 1'
_cell_length_a   18.97776430
_cell_length_b   18.96477910
_cell_length_c   18.97339204
_cell_angle_alpha   89.97959176
_cell_angle_beta   89.86077908
_cell_angle_gamma   89.84689034
_symmetry_Int_Tables_number   1
_chemical_formula_structural   In2Te3
_chemical_formula_sum   'In72 Te108'
_cell_volume   6828.65164163
_cell_formula_units_Z   36
loop_
 _symmetry_equiv_pos_site_id
 _symmetry_equiv_pos_as_xyz
  1  'x, y, z'
loop_
 _atom_site_type_symbol
 _atom_site_label
 _atom_site_symmetry_multiplicity
 _atom_site_fract_x
 _atom_site_fract_y
 _atom_site_fract_z
 _atom_site_occupancy
  In  In0  1  -0.00595386  0.13978641  0.51819705  1
  In  In1  1  0.01564790  0.18634658  0.82845694  1
  In  In2  1  0.31843679  0.34376940  0.65725679  1
  In  In3  1  0.34614792  0.16189532  0.17247602  1
  In  In4  1  0.68792577  0.63605683  0.30284018  1
  In  In5  1  0.68187313  0.32878666  0.69060971  1
  In  In6  1  0.35021166  0.65754942  -0.00629507  1
  In  In7  1  0.31076813  0.01782046  0.01730247  1
  In  In8  1  0.50716583  0.02090122  0.47781365  1
  In  In9  1  0.84939971  0.65900599  0.83144313  1
  In  In10  1  0.15791857  0.15854777  0.00612795  1
  In  In11  1  0.00557322  0.35334970  0.65888488  1
  In  In12  1  0.83503577  0.16913997  0.02097234  1
  In  In13  1  0.51494265  -0.02118661  0.19789522  1
  In  In14  1  0.49385250  -0.00475742  0.81547158  1
  In  In15  1  0.15336002  0.50730120  0.64633669  1
  In  In16  1  0.14376406  0.81698000  0.00016392  1
  In  In17  1  0.31957456  0.83573804  0.48011769  1
  In  In18  1  0.33441387  0.66250681  0.64223805  1
  In  In19  1  0.50294923  0.50053519  0.01611307  1
  In  In20  1  0.47641741  0.36110354  0.48903063  1
  In  In21  1  0.83415987  0.34118555  0.52145564  1
  In  In22  1  0.68482338  0.80464984  0.16916291  1
  In  In23  1  0.35620150  0.00294937  0.65127727  1
  In  In24  1  -0.01926393  0.00364669  0.65407995  1
  In  In25  1  -0.02278283  0.69226651  0.66081853  1
  In  In26  1  0.83921941  0.01073064  0.16906702  1
  In  In27  1  0.00721637  0.42574910  0.35040236  1
  In  In28  1  0.66962611  0.14544794  0.83612653  1
  In  In29  1  0.16429321  0.65074172  0.44954711  1
  In  In30  1  -0.00829757  0.82714736  0.17181477  1
  In  In31  1  -0.01486913  0.34816038  0.01219288  1
  In  In32  1  0.31479432  0.33460761  0.33789705  1
  In  In33  1  0.50077874  0.17503092  0.65134363  1
  In  In34  1  0.83887733  0.84768176  0.34899453  1
  In  In35  1  0.68661363  0.50735743  0.48629089  1
  In  In36  1  0.66747080  0.16110227  0.48955301  1
  In  In37  1  0.84215211  0.65760432  0.48203148  1
  In  In38  1  0.65647678  0.50657709  0.81333951  1
  In  In39  1  0.53758780  0.51300071  0.66279872  1
  In  In40  1  -0.00670671  0.64479316  0.32996203  1
  In  In41  1  0.16312990  0.52337359  -0.02377803  1
  In  In42  1  0.65790284  0.33302418  0.02893032  1
  In  In43  1  0.46494127  0.33729405  0.85503023  1
  In  In44  1  0.14023204  0.83202036  0.68603003  1
  In  In45  1  0.51315272  0.82296803  0.67310335  1
  In  In46  1  0.18314542  0.00364040  0.49261053  1
  In  In47  1  0.15733129  0.18886648  0.32103832  1
  In  In48  1  0.51808873  0.17979846  -0.01297288  1
  In  In49  1  0.83916742  0.50317316  0.02474311  1
  In  In50  1  0.32142339  0.83554454  0.82163859  1
  In  In51  1  0.48327252  0.16381140  0.33570938  1
  In  In52  1  0.34026353  0.48159513  0.15845428  1
  In  In53  1  0.13964682  -0.00159698  0.16938927  1
  In  In54  1  0.01173021  0.00375787  0.00533615  1
  In  In55  1  0.65309769  0.34386298  0.30117876  1
  In  In56  1  -0.01675195  0.81123473  0.86012087  1
  In  In57  1  0.69384561  0.85952583  0.50411989  1
  In  In58  1  0.69263420  0.81962423  0.84501553  1
  In  In59  1  0.82876060  0.16015532  0.33090396  1
  In  In60  1  0.18567988  0.68996756  0.20213168  1
  In  In61  1  0.15945328  0.18597618  0.66794664  1
  In  In62  1  0.65824936  0.66113882  0.01699294  1
  In  In63  1  0.87890949  0.14170241  0.65792410  1
  In  In64  1  0.47792726  0.82466159  0.33808297  1
  In  In65  1  0.32994580  0.49789502  0.83831201  1
  In  In66  1  0.84299579  -0.01795076  0.83552555  1
  In  In67  1  0.83365486  0.36297141  0.85647857  1
  In  In68  1  0.51868987  0.66056793  0.48632322  1
  In  In69  1  0.49793091  0.64440132  0.14190027  1
  In  In70  1  0.50132494  0.83426255  0.00991839  1
  In  In71  1  0.12966727  0.32758772  0.16138933  1
  Te  Te72  1  0.05523618  0.10844263  0.10510201  1
  Te  Te73  1  0.08438327  0.08418735  0.41118904  1
  Te  Te74  1  0.08044866  0.07968624  0.74274387  1
  Te  Te75  1  0.07764135  0.44518062  0.08190850  1
  Te  Te76  1  0.12766446  0.43781412  0.43671401  1
  Te  Te77  1  0.10932635  0.40794733  0.74790212  1
  Te  Te78  1  0.07708596  0.72469901  0.09904941  1
  Te  Te79  1  0.07744293  0.75141179  0.39082211  1
  Te  Te80  1  0.08677411  0.72490382  0.78139971  1
  Te  Te81  1  0.43266214  0.06482669  0.09233671  1
  Te  Te82  1  0.39104832  0.08218392  0.41585524  1
  Te  Te83  1  0.40969651  0.10394483  0.75135944  1
  Te  Te84  1  0.40917302  0.39722369  0.05835854  1
  Te  Te85  1  0.40227300  0.44246114  0.39301649  1
  Te  Te86  1  0.43053456  0.41918495  0.73225273  1
  Te  Te87  1  0.40375220  0.75777352  0.09467204  1
  Te  Te88  1  0.39787024  0.72120283  0.41590972  1
  Te  Te89  1  0.41332439  0.73920936  0.74924524  1
  Te  Te90  1  0.73997965  0.08363850  0.08863341  1
  Te  Te91  1  0.71617345  0.07386820  0.38087486  1
  Te  Te92  1  0.76658850  0.07710735  0.74438544  1
  Te  Te93  1  0.78209073  0.38278326  0.09233272  1
  Te  Te94  1  0.75483594  0.39979729  0.40714635  1
  Te  Te95  1  0.77171736  0.43887285  0.73919193  1
  Te  Te96  1  0.77322312  0.73316304  0.07417086  1
  Te  Te97  1  0.73305365  0.74012834  0.40329658  1
  Te  Te98  1  0.76236146  0.73924282  0.74474633  1
  Te  Te99  1  0.04992071  0.28934528  0.28448164  1
  Te  Te100  1  0.07788922  0.25901236  0.56442138  1
  Te  Te101  1  0.08720782  0.27064556  0.92886270  1
  Te  Te102  1  0.11760081  0.58119495  0.27541974  1
  Te  Te103  1  0.08127814  0.61780949  0.57281672  1
  Te  Te104  1  0.09220515  0.62441365  0.90166330  1
  Te  Te105  1  0.04703937  0.92993847  0.26155205  1
  Te  Te106  1  0.08480616  0.92190902  0.57630296  1
  Te  Te107  1  0.08452068  0.91840550  0.90411952  1
  Te  Te108  1  0.42151232  0.26876397  0.24698638  1
  Te  Te109  1  0.40318611  0.25350199  0.56703005  1
  Te  Te110  1  0.39554760  0.23084470  0.92663060  1
  Te  Te111  1  0.40907955  0.58225022  0.23982788  1
  Te  Te112  1  0.42998765  0.56914191  0.57071571  1
  Te  Te113  1  0.44142463  0.57929230  0.90144999  1
  Te  Te114  1  0.39574521  0.91501227  0.25622317  1
  Te  Te115  1  0.43013170  0.89901506  0.56886445  1
  Te  Te116  1  0.40725778  0.91728221  0.91863128  1
  Te  Te117  1  0.75682390  0.25693313  0.24509173  1
  Te  Te118  1  0.75228182  0.23017513  0.59893472  1
  Te  Te119  1  0.74618883  0.25172967  0.91400317  1
  Te  Te120  1  0.79596933  0.55186207  0.24863378  1
  Te  Te121  1  0.75396835  0.59325586  0.58074487  1
  Te  Te122  1  0.74026784  0.56926191  0.92394116  1
  Te  Te123  1  0.74797567  0.91525310  0.25025506  1
  Te  Te124  1  0.77344118  0.93513611  0.59916361  1
  Te  Te125  1  0.75170839  0.92147165  0.93081751  1
  Te  Te126  1  0.24188938  0.24469174  0.09758986  1
  Te  Te127  1  0.25716853  0.22842562  0.42094025  1
  Te  Te128  1  0.23442185  0.27631643  0.75738059  1
  Te  Te129  1  0.25299911  0.59274214  0.08929767  1
  Te  Te130  1  0.25116883  0.53243302  0.43375431  1
  Te  Te131  1  0.25163969  0.58142482  0.74015815  1
  Te  Te132  1  0.23016037  0.90926560  0.08557191  1
  Te  Te133  1  0.22887478  0.90625962  0.38461592  1
  Te  Te134  1  0.24795527  0.93116889  0.73224915  1
  Te  Te135  1  0.58676876  0.23068885  0.10378019  1
  Te  Te136  1  0.57460733  0.26016021  0.42128291  1
  Te  Te137  1  0.57634551  0.24729477  0.76374313  1
  Te  Te138  1  0.61848703  0.54189549  0.11356697  1
  Te  Te139  1  0.58527318  0.56353647  0.38975688  1
  Te  Te140  1  0.60388714  0.62019997  0.73623466  1
  Te  Te141  1  0.60142724  0.90769220  0.09285781  1
  Te  Te142  1  0.58127996  0.90853559  0.41049655  1
  Te  Te143  1  0.60235263  0.91337803  0.75173493  1
  Te  Te144  1  0.90803910  0.26437382  0.10715891  1
  Te  Te145  1  0.90619802  0.23717858  0.43882901  1
  Te  Te146  1  0.90994797  0.26677274  0.75471259  1
  Te  Te147  1  0.90593129  0.57384383  0.13721952  1
  Te  Te148  1  0.92906942  0.54598670  0.42542031  1
  Te  Te149  1  0.93354792  0.57935570  0.74078793  1
  Te  Te150  1  0.91378886  0.91437214  0.07358439  1
  Te  Te151  1  0.91348775  0.90946764  0.45930691  1
  Te  Te152  1  0.92421716  0.89360181  0.74451698  1
  Te  Te153  1  0.24023966  0.08332093  0.24639407  1
  Te  Te154  1  0.25491299  0.09646868  0.58717916  1
  Te  Te155  1  0.23633069  0.08124846  0.90976299  1
  Te  Te156  1  0.23124550  0.41171340  0.23761448  1
  Te  Te157  1  0.23819465  0.41877699  0.55404141  1
  Te  Te158  1  0.26215500  0.41995192  0.94083236  1
  Te  Te159  1  0.25298793  0.79250874  0.28088464  1
  Te  Te160  1  0.23704300  0.76438134  0.58603007  1
  Te  Te161  1  0.25028899  0.74309890  0.91723713  1
  Te  Te162  1  0.59020380  0.08483141  0.26886556  1
  Te  Te163  1  0.59137326  0.07016616  0.59266736  1
  Te  Te164  1  0.58312004  0.05775567  0.92196735  1
  Te  Te165  1  0.57821137  0.44069293  0.22385438  1
  Te  Te166  1  0.60032058  0.39849107  0.58284784  1
  Te  Te167  1  0.58753413  0.40809732  0.90964185  1
  Te  Te168  1  0.57245573  0.73640829  0.24600969  1
  Te  Te169  1  0.60093683  0.75361058  0.57145236  1
  Te  Te170  1  0.57756051  0.74267330  0.91840827  1
  Te  Te171  1  0.92771881  0.06398137  0.27423452  1
  Te  Te172  1  0.86439078  0.03928673  0.53126215  1
  Te  Te173  1  0.92388870  0.09638365  0.91156986  1
  Te  Te174  1  0.91753183  0.45212067  0.23467031  1
  Te  Te175  1  0.92547344  0.44336563  0.57387927  1
  Te  Te176  1  0.93730195  0.45406855  0.91326917  1
  Te  Te177  1  0.89881335  0.74404791  0.25819121  1
  Te  Te178  1  0.91518471  0.76984553  0.54976665  1
  Te  Te179  1  0.89841454  0.73143618  0.95091423  1
