# generated using pymatgen
data_In2Te3
_symmetry_space_group_name_H-M   'P 1'
_cell_length_a   18.84010535
_cell_length_b   18.86400628
_cell_length_c   18.85224973
_cell_angle_alpha   89.85935899
_cell_angle_beta   90.04328994
_cell_angle_gamma   89.96337779
_symmetry_Int_Tables_number   1
_chemical_formula_structural   In2Te3
_chemical_formula_sum   'In72 Te108'
_cell_volume   6700.06354580
_cell_formula_units_Z   36
loop_
 _symmetry_equiv_pos_site_id
 _symmetry_equiv_pos_as_xyz
  1  'x, y, z'
loop_
 _atom_site_type_symbol
 _atom_site_label
 _atom_site_symmetry_multiplicity
 _atom_site_fract_x
 _atom_site_fract_y
 _atom_site_fract_z
 _atom_site_occupancy
  In  In0  1  0.64537702  0.17661657  0.19161620  1
  In  In1  1  0.81269452  0.51399300  0.32831411  1
  In  In2  1  0.62067372  0.34777491  0.35145847  1
  In  In3  1  0.80151387  0.01152509  0.47037947  1
  In  In4  1  0.33482645  0.33552142  -0.00807424  1
  In  In5  1  0.34920519  -0.01227603  0.32456679  1
  In  In6  1  0.12999039  -0.03740181  0.17533182  1
  In  In7  1  0.01094887  0.66179029  0.69922557  1
  In  In8  1  0.17389147  0.67791007  0.85524022  1
  In  In9  1  0.84109784  0.84292871  0.32470696  1
  In  In10  1  0.33126063  0.50287312  0.19159190  1
  In  In11  1  0.70371869  0.33631486  0.01714262  1
  In  In12  1  0.66143799  0.68117240  0.00910025  1
  In  In13  1  0.00421333  -0.01519849  -0.00495689  1
  In  In14  1  0.34245342  0.82533218  0.15999297  1
  In  In15  1  -0.00193843  0.14581162  0.17343021  1
  In  In16  1  0.17618713  0.48431504  0.65169220  1
  In  In17  1  0.18167624  0.02043448  0.49610389  1
  In  In18  1  0.65091479  0.33639802  0.63569174  1
  In  In19  1  0.37161224  0.34383095  0.40164761  1
  In  In20  1  0.81515377  0.32355926  0.82853426  1
  In  In21  1  0.36259280  0.12908620  0.80012401  1
  In  In22  1  0.01331790  0.16093048  0.50508675  1
  In  In23  1  0.00730585  0.33970719  0.63953271  1
  In  In24  1  -0.01207237  0.80858230  0.84103267  1
  In  In25  1  0.00011257  0.66611485  0.32688836  1
  In  In26  1  0.17740540  0.17239272  0.32612116  1
  In  In27  1  0.66599167  0.83802929  0.84253794  1
  In  In28  1  0.65956268  0.82767366  0.16172835  1
  In  In29  1  0.48660645  0.84470707  0.68372044  1
  In  In30  1  0.80469432  0.17584048  0.67642566  1
  In  In31  1  0.50676299  0.67000867  0.83109845  1
  In  In32  1  0.16233273  0.65979283  0.50943125  1
  In  In33  1  0.50517637  0.35144537  0.80152580  1
  In  In34  1  0.67321190  0.49367589  0.82236499  1
  In  In35  1  0.20501950  0.51048389  0.01618647  1
  In  In36  1  0.33532716  -0.02044648  -0.01229999  1
  In  In37  1  0.63670813  0.17745346  0.80827843  1
  In  In38  1  0.50361987  0.00535595  0.50261548  1
  In  In39  1  0.34674226  0.15713780  0.16243698  1
  In  In40  1  0.50384478  0.16643257  0.35016001  1
  In  In41  1  0.03366386  0.37171200  0.36988425  1
  In  In42  1  0.32978059  0.65433883  0.33999389  1
  In  In43  1  -0.00693228  -0.01849394  0.64603955  1
  In  In44  1  0.51750765  0.35054804  0.19107448  1
  In  In45  1  0.67346050  0.67505979  0.66111048  1
  In  In46  1  0.82396956  0.49514481  0.01993987  1
  In  In47  1  0.33253467  0.83155943  0.83069428  1
  In  In48  1  0.17954690  0.00255692  0.82434497  1
  In  In49  1  0.48465667  0.63635113  0.49974554  1
  In  In50  1  0.01572090  0.34643202  -0.00386935  1
  In  In51  1  0.86319484  0.14737081  0.01517928  1
  In  In52  1  0.83543179  0.64613170  0.51062185  1
  In  In53  1  0.66334722  0.68583875  0.33100294  1
  In  In54  1  0.01571155  0.83276196  0.49547543  1
  In  In55  1  0.31553345  0.81240616  0.48810971  1
  In  In56  1  0.19610221  0.17271308  0.66690925  1
  In  In57  1  -0.00571276  0.14881404  0.84532565  1
  In  In58  1  0.51499907  0.52119385  -0.00268767  1
  In  In59  1  -0.01643894  0.51272707  0.18163228  1
  In  In60  1  0.34107558  0.48636658  0.81410774  1
  In  In61  1  0.49046374  0.15094011  -0.00255972  1
  In  In62  1  0.79375136  0.32657059  0.18044566  1
  In  In63  1  0.83649268  0.32974086  0.50818838  1
  In  In64  1  0.14286642  0.70315047  0.15651930  1
  In  In65  1  -0.00216967  0.53427648  0.82792636  1
  In  In66  1  0.81125898  0.83202528  0.65593328  1
  In  In67  1  0.66780007  -0.01676643  0.00173986  1
  In  In68  1  0.17067696  0.29624033  0.79840749  1
  In  In69  1  0.19874471  0.33143191  0.18067186  1
  In  In70  1  0.83533598  -0.00771799  0.16775537  1
  In  In71  1  0.65350663  0.85225965  0.49279753  1
  Te  Te72  1  0.09072687  0.08067455  0.07597920  1
  Te  Te73  1  0.07936223  0.07773198  0.39643606  1
  Te  Te74  1  0.07587525  0.08435289  0.73291236  1
  Te  Te75  1  0.10126502  0.42335326  0.09825289  1
  Te  Te76  1  0.13671034  0.44333218  0.44612232  1
  Te  Te77  1  0.07474682  0.41606462  0.76011259  1
  Te  Te78  1  0.05149228  0.76709705  0.05769786  1
  Te  Te79  1  0.10146320  0.75137310  0.40187521  1
  Te  Te80  1  0.10597815  0.76772775  0.75119703  1
  Te  Te81  1  0.42664723  0.05014660  0.09145116  1
  Te  Te82  1  0.39683111  0.08920787  0.42566191  1
  Te  Te83  1  0.46410282  0.06410273  0.71469977  1
  Te  Te84  1  0.41790049  0.42315374  0.08393077  1
  Te  Te85  1  0.44139476  0.47507088  0.45060910  1
  Te  Te86  1  0.43555871  0.44398320  0.70823789  1
  Te  Te87  1  0.38076112  0.72706942  0.05599570  1
  Te  Te88  1  0.42940983  0.74768265  0.41068341  1
  Te  Te89  1  0.40414817  0.72708506  0.73521572  1
  Te  Te90  1  0.74049623  0.09911471  0.09338453  1
  Te  Te91  1  0.73902857  0.11090252  0.38581656  1
  Te  Te92  1  0.74122739  0.08097859  0.76766591  1
  Te  Te93  1  0.71914646  0.44698009  0.12047406  1
  Te  Te94  1  0.74345093  0.41358522  0.41826750  1
  Te  Te95  1  0.75342883  0.41193155  0.72180495  1
  Te  Te96  1  0.76254577  0.77386650  0.06716590  1
  Te  Te97  1  0.76940473  0.76433990  0.43717667  1
  Te  Te98  1  0.75933077  0.74063524  0.76778539  1
  Te  Te99  1  0.07903584  0.26075330  0.24661117  1
  Te  Te100  1  0.11201878  0.25733643  0.56861117  1
  Te  Te101  1  0.09179259  0.23783466  0.92022738  1
  Te  Te102  1  0.10139312  0.58342461  0.24555043  1
  Te  Te103  1  0.06648194  0.57186456  0.59021004  1
  Te  Te104  1  0.09208489  0.58087891  0.94052325  1
  Te  Te105  1  0.03719228  0.88432357  0.25656950  1
  Te  Te106  1  0.11127860  0.91125186  0.58368060  1
  Te  Te107  1  0.09469698  0.90534499  0.90356798  1
  Te  Te108  1  0.41340595  0.25730468  0.25516915  1
  Te  Te109  1  0.36447502  0.28386041  0.54192066  1
  Te  Te110  1  0.42663416  0.25379077  0.90249874  1
  Te  Te111  1  0.43555530  0.57525857  0.26870054  1
  Te  Te112  1  0.38112709  0.55221402  0.56487083  1
  Te  Te113  1  0.40662961  0.58402520  0.91156024  1
  Te  Te114  1  0.43654691  0.89644120  0.24978782  1
  Te  Te115  1  0.40763233  0.90618525  0.56898952  1
  Te  Te116  1  0.43233392  0.91720422  0.89744490  1
  Te  Te117  1  0.73458461  0.24247299  0.29841763  1
  Te  Te118  1  0.73038514  0.23036800  0.55717203  1
  Te  Te119  1  0.75051365  0.22410036  0.92231732  1
  Te  Te120  1  0.76744679  0.62573512  0.24537311  1
  Te  Te121  1  0.72467392  0.56670622  0.57116799  1
  Te  Te122  1  0.74362488  0.58173123  0.92183545  1
  Te  Te123  1  0.73278693  0.92447844  0.25815935  1
  Te  Te124  1  0.73201697  0.94412699  0.58761043  1
  Te  Te125  1  0.76696120  0.89041514  0.94024267  1
  Te  Te126  1  0.25128582  0.23727382  0.07327571  1
  Te  Te127  1  0.25965144  0.23896646  0.43080896  1
  Te  Te128  1  0.30500208  0.25686945  0.73760413  1
  Te  Te129  1  0.27338562  0.61432872  0.10161357  1
  Te  Te130  1  0.23609629  0.56403199  0.41827932  1
  Te  Te131  1  0.23743517  0.58002359  0.75291988  1
  Te  Te132  1  0.23595019  0.90838338  0.08278612  1
  Te  Te133  1  0.24002636  0.91526031  0.40156047  1
  Te  Te134  1  0.26924417  0.92796349  0.73582012  1
  Te  Te135  1  0.57223848  0.25514939  0.07706040  1
  Te  Te136  1  0.55058958  0.26306289  0.45689289  1
  Te  Te137  1  0.54614550  0.24241747  0.70207435  1
  Te  Te138  1  0.56872542  0.60938364  0.10035602  1
  Te  Te139  1  0.61871299  0.59720398  0.44340466  1
  Te  Te140  1  0.57953197  0.57612439  0.73535170  1
  Te  Te141  1  0.56690687  0.90678218  0.07536924  1
  Te  Te142  1  0.58010091  0.93521498  0.39662161  1
  Te  Te143  1  0.59771147  0.92278977  0.74127218  1
  Te  Te144  1  0.91066737  0.27419723  0.08537944  1
  Te  Te145  1  0.93802121  0.26083192  0.41752644  1
  Te  Te146  1  0.92821297  0.24988124  0.74868735  1
  Te  Te147  1  0.91608223  0.59502967  0.07988460  1
  Te  Te148  1  0.92691945  0.56761029  0.41653369  1
  Te  Te149  1  0.88954072  0.59263359  0.74808266  1
  Te  Te150  1  0.93227886  0.90299104  0.09663309  1
  Te  Te151  1  0.92112840  0.92916765  0.42300372  1
  Te  Te152  1  0.90922398  0.90680133  0.74706307  1
  Te  Te153  1  0.24241134  0.06910693  0.23375880  1
  Te  Te154  1  0.27544483  0.06827556  0.60002729  1
  Te  Te155  1  0.26500844  0.09396961  0.91122175  1
  Te  Te156  1  0.27201584  0.40359489  0.28983072  1
  Te  Te157  1  0.26005957  0.39727216  0.56675231  1
  Te  Te158  1  0.23403970  0.40820652  0.90301440  1
  Te  Te159  1  0.24675559  0.75481687  0.25690443  1
  Te  Te160  1  0.26090047  0.72722512  0.59515950  1
  Te  Te161  1  0.26825683  0.75375466  0.94389206  1
  Te  Te162  1  0.56119739  0.07292156  0.25171012  1
  Te  Te163  1  0.56944940  0.08815512  0.60548777  1
  Te  Te164  1  0.58119746  0.07205436  0.90698639  1
  Te  Te165  1  0.56957173  0.46333456  0.27140897  1
  Te  Te166  1  0.55452030  0.39827081  0.53882105  1
  Te  Te167  1  0.59169616  0.40437467  0.91867163  1
  Te  Te168  1  0.56235540  0.74681586  0.24166657  1
  Te  Te169  1  0.57277907  0.75858192  0.58293505  1
  Te  Te170  1  0.56151146  0.76859217  0.93065023  1
  Te  Te171  1  0.89594470  0.09105404  0.26148710  1
  Te  Te172  1  0.90352054  0.08981414  0.58366636  1
  Te  Te173  1  0.89715235  0.04900738  0.90440267  1
  Te  Te174  1  0.90658450  0.40613708  0.25654589  1
  Te  Te175  1  0.91327667  0.43397877  0.57941501  1
  Te  Te176  1  0.90608217  0.41546490  0.91011355  1
  Te  Te177  1  0.93502022  0.76683332  0.23425764  1
  Te  Te178  1  0.92749606  0.74944851  0.58809605  1
  Te  Te179  1  0.94880650  0.71960827  0.95165711  1
