# generated using pymatgen
data_In2Te3
_symmetry_space_group_name_H-M   'P 1'
_cell_length_a   18.98699626
_cell_length_b   18.99113261
_cell_length_c   18.97727873
_cell_angle_alpha   90.07733818
_cell_angle_beta   89.98201950
_cell_angle_gamma   90.22678614
_symmetry_Int_Tables_number   1
_chemical_formula_structural   In2Te3
_chemical_formula_sum   'In72 Te108'
_cell_volume   6842.85361310
_cell_formula_units_Z   36
loop_
 _symmetry_equiv_pos_site_id
 _symmetry_equiv_pos_as_xyz
  1  'x, y, z'
loop_
 _atom_site_type_symbol
 _atom_site_label
 _atom_site_symmetry_multiplicity
 _atom_site_fract_x
 _atom_site_fract_y
 _atom_site_fract_z
 _atom_site_occupancy
  In  In0  1  -0.00209834  0.33408561  0.32117090  1
  In  In1  1  0.32577072  0.46966947  0.50614812  1
  In  In2  1  0.81847549  0.36971425  0.15356908  1
  In  In3  1  0.86641795  -0.01911910  0.17782513  1
  In  In4  1  0.50761230  0.66257016  0.85032950  1
  In  In5  1  0.00043447  0.83500605  0.82962506  1
  In  In6  1  0.51172183  0.64525363  0.49865824  1
  In  In7  1  0.17202900  0.00896620  0.48249378  1
  In  In8  1  0.15461881  0.33846872  0.83474595  1
  In  In9  1  0.64642218  0.17004458  0.14774356  1
  In  In10  1  0.34322854  0.65784522  -0.00882965  1
  In  In11  1  0.33214066  0.18855047  0.81164663  1
  In  In12  1  0.82824837  0.17265356  0.00429024  1
  In  In13  1  0.65985519  0.50267112  0.16495210  1
  In  In14  1  0.00085149  0.33789146  -0.02637705  1
  In  In15  1  0.34549968  0.82639534  0.85265275  1
  In  In16  1  0.51867125  0.36473057  0.83138634  1
  In  In17  1  0.84790014  0.65592211  0.49972676  1
  In  In18  1  0.18199272  0.65779092  0.82784258  1
  In  In19  1  -0.00603336  0.66866424  0.33810419  1
  In  In20  1  0.01113800  0.83249298  0.18571309  1
  In  In21  1  0.81045989  0.15310077  0.32935504  1
  In  In22  1  0.66169985  0.65513829  0.33665326  1
  In  In23  1  0.83095490  0.82024589  0.68060412  1
  In  In24  1  0.47683862  0.01691919  0.17382826  1
  In  In25  1  0.16859125  0.49645640  0.65837343  1
  In  In26  1  0.82369153  0.34152924  0.49595898  1
  In  In27  1  0.50996885  0.02233533  0.83889443  1
  In  In28  1  0.50102345  0.68664968  0.17592187  1
  In  In29  1  0.33320084  0.83443249  0.16319462  1
  In  In30  1  0.34490800  0.00287521  0.00303424  1
  In  In31  1  0.80931798  0.64799183  0.84672230  1
  In  In32  1  0.34337226  0.51100677  0.16968045  1
  In  In33  1  0.02715419  0.19057767  0.52363962  1
  In  In34  1  0.66687718  0.16976397  0.49790547  1
  In  In35  1  0.20385102  0.32105222  0.15857009  1
  In  In36  1  0.67706594  0.81938986  0.15299452  1
  In  In37  1  0.14656163  0.49341906  0.34363960  1
  In  In38  1  0.65589131  0.33493213  0.34418255  1
  In  In39  1  0.48753132  0.33282453  0.50133259  1
  In  In40  1  0.31932095  0.82073764  0.48965663  1
  In  In41  1  0.32982500  0.67929811  0.32318007  1
  In  In42  1  0.50049112  0.47601405  0.65462129  1
  In  In43  1  0.33549583  0.01605077  0.32904293  1
  In  In44  1  -0.00276300  -0.00430208  0.00958231  1
  In  In45  1  0.51276321  0.19936629  0.67225934  1
  In  In46  1  -0.00825029  0.84091084  0.48736951  1
  In  In47  1  0.31945932  -0.01760717  0.65553146  1
  In  In48  1  0.03033244  0.16778726  0.13910265  1
  In  In49  1  0.34114110  0.17433078  0.49047430  1
  In  In50  1  0.67342345  0.01119220  0.66101192  1
  In  In51  1  0.68123574  0.66456586  0.67006333  1
  In  In52  1  0.80967548  0.33574782  0.83398327  1
  In  In53  1  0.33240307  0.31297611  -0.00991864  1
  In  In54  1  0.49335460  0.84114164  0.69221553  1
  In  In55  1  0.82634336  -0.01171954  0.83685496  1
  In  In56  1  0.65519249  0.66494315  0.00406392  1
  In  In57  1  0.46184345  0.31869658  0.18522861  1
  In  In58  1  -0.02721730  0.51454334  0.83473870  1
  In  In59  1  -0.00296991  0.66948716  0.01963208  1
  In  In60  1  0.18088948  0.48895009  0.01148870  1
  In  In61  1  -0.01406529  0.51364506  0.16208169  1
  In  In62  1  0.01582344  0.17981524  0.81601549  1
  In  In63  1  0.84565221  0.16805459  0.66689079  1
  In  In64  1  0.15064805  0.01572742  0.83257521  1
  In  In65  1  0.66978531  -0.00930563  -0.00262943  1
  In  In66  1  0.83671539  0.48214898  0.65714515  1
  In  In67  1  0.15280988  0.66472923  0.50473470  1
  In  In68  1  0.66594945  0.84028040  0.49211190  1
  In  In69  1  0.00944458  0.01004753  0.35134578  1
  In  In70  1  0.66201001  -0.00564067  0.31764261  1
  In  In71  1  0.16006526  0.82493689  0.64901926  1
  Te  Te72  1  0.10885061  0.05664529  0.08605027  1
  Te  Te73  1  0.10065608  0.12012891  0.41064329  1
  Te  Te74  1  0.07302921  0.07884931  0.72785040  1
  Te  Te75  1  0.08012701  0.40891664  0.09222214  1
  Te  Te76  1  0.08703532  0.38732476  0.42526573  1
  Te  Te77  1  0.06476661  0.42770682  0.75391163  1
  Te  Te78  1  0.09133708  0.75426945  0.09039609  1
  Te  Te79  1  0.09360230  0.76326433  0.40806858  1
  Te  Te80  1  0.08208696  0.73793843  0.74554564  1
  Te  Te81  1  0.41679237  0.11063346  0.07695869  1
  Te  Te82  1  0.41891925  0.06037410  0.44172752  1
  Te  Te83  1  0.41357213  0.07581242  0.73420951  1
  Te  Te84  1  0.40966100  0.41409637  0.07556229  1
  Te  Te85  1  0.42771608  0.43085376  0.40964088  1
  Te  Te86  1  0.40867298  0.39204933  0.73543512  1
  Te  Te87  1  0.42563035  0.75991941  0.06852355  1
  Te  Te88  1  0.42865520  0.74530555  0.41764231  1
  Te  Te89  1  0.40611500  0.73469446  0.75150950  1
  Te  Te90  1  0.76600100  0.07328894  0.10159720  1
  Te  Te91  1  0.74755108  0.06197244  0.42989162  1
  Te  Te92  1  0.75011161  0.09455675  0.76139433  1
  Te  Te93  1  0.71046275  0.40795547  0.05976912  1
  Te  Te94  1  0.74998706  0.42874438  0.40368326  1
  Te  Te95  1  0.73649583  0.43174816  0.75118801  1
  Te  Te96  1  0.76110119  0.71162426  0.09741153  1
  Te  Te97  1  0.75670135  0.74488654  0.41858041  1
  Te  Te98  1  0.73212909  0.75924902  0.77705892  1
  Te  Te99  1  0.10157752  0.24929758  0.24501358  1
  Te  Te100  1  0.12138805  0.26535565  0.60869660  1
  Te  Te101  1  0.10061485  0.23398295  0.93315768  1
  Te  Te102  1  0.08768612  0.58910694  0.24369544  1
  Te  Te103  1  0.06790573  0.57424513  0.58188778  1
  Te  Te104  1  0.08649957  0.57083521  0.92475106  1
  Te  Te105  1  0.08488763  0.94919228  0.24098010  1
  Te  Te106  1  0.08121257  0.92856762  0.57520970  1
  Te  Te107  1  0.09215438  0.90996779  0.92326526  1
  Te  Te108  1  0.38540141  0.22887968  0.28500751  1
  Te  Te109  1  0.39755802  0.26796537  0.60672272  1
  Te  Te110  1  0.43544993  0.24948843  0.90082705  1
  Te  Te111  1  0.43349011  0.58468934  0.26591454  1
  Te  Te112  1  0.40896857  0.57427370  0.58278576  1
  Te  Te113  1  0.41919223  0.56310589  0.91165835  1
  Te  Te114  1  0.42129751  0.90795324  0.26220907  1
  Te  Te115  1  0.41796095  0.90219386  0.57551409  1
  Te  Te116  1  0.44214420  0.91617950  0.92514584  1
  Te  Te117  1  0.74720236  0.25489412  0.23496115  1
  Te  Te118  1  0.74463974  0.25529538  0.59372038  1
  Te  Te119  1  0.73274482  0.24695434  0.92360658  1
  Te  Te120  1  0.75101671  0.59668891  0.23428762  1
  Te  Te121  1  0.74281964  0.57307548  0.56942082  1
  Te  Te122  1  0.70534380  0.55899121  0.90735297  1
  Te  Te123  1  0.76196662  0.90087635  0.25214579  1
  Te  Te124  1  0.76196807  0.91526751  0.58509270  1
  Te  Te125  1  0.76605548  0.90009113  0.93542219  1
  Te  Te126  1  0.27837799  0.21309630  0.08842270  1
  Te  Te127  1  0.27918261  0.25612414  0.38730213  1
  Te  Te128  1  0.21761969  0.24578745  0.73544315  1
  Te  Te129  1  0.24676537  0.59716814  0.09342778  1
  Te  Te130  1  0.25209059  0.58239076  0.41982695  1
  Te  Te131  1  0.26101725  0.56444373  0.75037499  1
  Te  Te132  1  0.25218572  0.93518232  0.09366419  1
  Te  Te133  1  0.24324714  0.90971461  0.39533183  1
  Te  Te134  1  0.24401038  0.90073806  0.75900726  1
  Te  Te135  1  0.55239338  0.26102802  0.08420625  1
  Te  Te136  1  0.56392643  0.23535503  0.41042206  1
  Te  Te137  1  0.60504432  0.26630836  0.76180532  1
  Te  Te138  1  0.55709236  0.58104432  0.08486431  1
  Te  Te139  1  0.58937762  0.55414030  0.41628724  1
  Te  Te140  1  0.57438285  0.58412675  0.73775448  1
  Te  Te141  1  0.58351265  0.92886934  0.10448593  1
  Te  Te142  1  0.57818438  0.93219938  0.42117298  1
  Te  Te143  1  0.59855322  0.92531192  0.76139267  1
  Te  Te144  1  0.91800698  0.26740638  0.09328485  1
  Te  Te145  1  0.90631426  0.24222193  0.40614698  1
  Te  Te146  1  0.92142065  0.27277697  0.74700063  1
  Te  Te147  1  0.89402411  0.57500383  0.06654785  1
  Te  Te148  1  0.95341891  0.57106490  0.44160749  1
  Te  Te149  1  0.89967231  0.59984881  0.73548327  1
  Te  Te150  1  0.91157298  0.88909406  0.06979344  1
  Te  Te151  1  0.90596253  0.91935290  0.40030442  1
  Te  Te152  1  0.92367413  0.92761168  0.73808998  1
  Te  Te153  1  0.28227461  0.12467090  0.24471056  1
  Te  Te154  1  0.24710338  0.09121227  0.58429510  1
  Te  Te155  1  0.26385610  0.08675956  0.90143913  1
  Te  Te156  1  0.25329210  0.42512719  0.25544293  1
  Te  Te157  1  0.21804355  0.38483832  0.56835430  1
  Te  Te158  1  0.26224529  0.41847897  0.90619283  1
  Te  Te159  1  0.23751291  0.74911524  0.23614462  1
  Te  Te160  1  0.26024620  0.72772363  0.59333384  1
  Te  Te161  1  0.23993672  0.75256064  0.93140191  1
  Te  Te162  1  0.57126137  0.10117458  0.25927932  1
  Te  Te163  1  0.56982487  0.08957067  0.58446374  1
  Te  Te164  1  0.59669534  0.09670463  0.92973931  1
  Te  Te165  1  0.56857345  0.40954787  0.24706965  1
  Te  Te166  1  0.59549872  0.39676221  0.57744201  1
  Te  Te167  1  0.61414454  0.43278810  0.92372509  1
  Te  Te168  1  0.58837775  0.76820004  0.26635942  1
  Te  Te169  1  0.58124727  0.75462438  0.59472989  1
  Te  Te170  1  0.58128371  0.76405571  0.92533748  1
  Te  Te171  1  0.92766436  0.10530224  0.24191896  1
  Te  Te172  1  0.92152732  0.09818609  0.56397424  1
  Te  Te173  1  0.92250731  0.09362596  0.91342408  1
  Te  Te174  1  0.90261735  0.43654797  0.26276591  1
  Te  Te175  1  0.92938629  0.40395459  0.57599256  1
  Te  Te176  1  0.89203371  0.42932687  0.93065275  1
  Te  Te177  1  0.91026549  0.74864740  0.25059334  1
  Te  Te178  1  0.92819704  0.74883657  0.58931716  1
  Te  Te179  1  0.91575435  0.73889891  0.90990679  1
