# generated using pymatgen
data_In2Te3
_symmetry_space_group_name_H-M   'P 1'
_cell_length_a   18.82660770
_cell_length_b   18.83980578
_cell_length_c   18.83322102
_cell_angle_alpha   89.94532682
_cell_angle_beta   90.05270188
_cell_angle_gamma   90.03858485
_symmetry_Int_Tables_number   1
_chemical_formula_structural   In2Te3
_chemical_formula_sum   'In72 Te108'
_cell_volume   6679.94086428
_cell_formula_units_Z   36
loop_
 _symmetry_equiv_pos_site_id
 _symmetry_equiv_pos_as_xyz
  1  'x, y, z'
loop_
 _atom_site_type_symbol
 _atom_site_label
 _atom_site_symmetry_multiplicity
 _atom_site_fract_x
 _atom_site_fract_y
 _atom_site_fract_z
 _atom_site_occupancy
  In  In0  1  0.50533704  0.13611719  0.35902022  1
  In  In1  1  0.50895297  0.81448241  0.64986882  1
  In  In2  1  0.48381880  0.80778801  0.34252841  1
  In  In3  1  0.50422773  -0.03008510  0.18018871  1
  In  In4  1  0.31331655  0.02900108  0.65896385  1
  In  In5  1  0.83053488  0.50418854  0.35952825  1
  In  In6  1  0.17277646  0.83433361  0.35097415  1
  In  In7  1  0.67235415  0.32258884  0.66095716  1
  In  In8  1  0.15105213  0.17014984  0.34253973  1
  In  In9  1  0.16562585  -0.00542244  0.17169436  1
  In  In10  1  0.15118147  0.47834330  0.33557335  1
  In  In11  1  0.48636750  0.49096263  0.68548733  1
  In  In12  1  0.68098579  0.69586047  0.32610437  1
  In  In13  1  0.01859475  0.33298120  -0.00832937  1
  In  In14  1  0.68060089  0.83740583  0.85743525  1
  In  In15  1  0.01378905  0.65755162  0.66257852  1
  In  In16  1  0.35801764  0.81763906  0.19079257  1
  In  In17  1  0.13872972  0.33802242  0.81011775  1
  In  In18  1  0.48652053  0.30719926  0.13140282  1
  In  In19  1  0.31522177  0.67442574  0.33916182  1
  In  In20  1  0.50195125  0.65853805  0.15842600  1
  In  In21  1  -0.01015538  0.14931627  0.17727411  1
  In  In22  1  0.00688375  0.51572256  0.14446692  1
  In  In23  1  0.83722612  -0.00877054  0.48710690  1
  In  In24  1  0.50577183  0.16687936  -0.00708815  1
  In  In25  1  0.01049698  -0.02141051  0.66539471  1
  In  In26  1  0.68889805  0.49624152  0.48242065  1
  In  In27  1  0.85227765  0.49717018  -0.01105054  1
  In  In28  1  0.00141650  0.15700672  0.49386714  1
  In  In29  1  0.49094846  0.66115771  0.49535404  1
  In  In30  1  0.68955377  0.17080034  0.81540507  1
  In  In31  1  0.49935491  0.47653768  0.32556292  1
  In  In32  1  0.67642445  0.16744210  0.51877929  1
  In  In33  1  0.68781957  0.02227213  0.68009914  1
  In  In34  1  0.65103201  0.35924208  -0.00186364  1
  In  In35  1  0.27563625  0.52369974  0.13429698  1
  In  In36  1  0.49281559  0.66901776  0.83593096  1
  In  In37  1  0.71339708  0.82900547  0.13468473  1
  In  In38  1  0.30157758  0.46799178  0.52487734  1
  In  In39  1  0.83196896  0.66918878  0.48485271  1
  In  In40  1  0.67448910  0.51776420  0.18693438  1
  In  In41  1  0.65768539  0.50116702  0.82654950  1
  In  In42  1  0.33319822  0.83917590  0.81960703  1
  In  In43  1  0.50267121  0.02088274  0.81243257  1
  In  In44  1  0.31933148  0.34307721  -0.00787766  1
  In  In45  1  0.33307919  0.16981199  0.15285966  1
  In  In46  1  0.30676510  0.49801387  0.80339492  1
  In  In47  1  0.16871414  0.80410416  0.65125806  1
  In  In48  1  0.46908439  0.17835552  0.66133229  1
  In  In49  1  0.87349879  0.49602328  0.64814451  1
  In  In50  1  0.66359498  -0.01899732  0.32055167  1
  In  In51  1  0.85380173  0.69351095  0.85505917  1
  In  In52  1  0.70679285  0.34101135  0.33517494  1
  In  In53  1  0.00602271  0.84083083  0.49972578  1
  In  In54  1  0.14266538  0.64598308  0.83548366  1
  In  In55  1  -0.00337778  0.32186702  0.34659928  1
  In  In56  1  0.82843852  0.85595077  0.68145092  1
  In  In57  1  0.72870860  0.02091559  0.01058553  1
  In  In58  1  0.31170925  0.30968405  0.34230022  1
  In  In59  1  0.84858750  0.32739148  0.83960760  1
  In  In60  1  0.49354083  0.82931876  0.02306520  1
  In  In61  1  0.00292885  0.82612971  0.16701595  1
  In  In62  1  0.16343827  0.83322282  0.00469213  1
  In  In63  1  0.50119752  0.51197845  -0.00280267  1
  In  In64  1  0.16860978  0.02557875  0.85178322  1
  In  In65  1  -0.02568777  0.02614391  -0.01092753  1
  In  In66  1  0.47204882  -0.00049559  0.48721722  1
  In  In67  1  0.49460453  0.30738777  0.52454639  1
  In  In68  1  0.85073442  0.31973375  0.17630094  1
  In  In69  1  -0.00139404  0.67567511  0.34112164  1
  In  In70  1  0.31016524  0.01173442  -0.02146484  1
  In  In71  1  0.16562343  0.18070613  0.66534441  1
  Te  Te72  1  0.08809003  0.08446226  0.07873430  1
  Te  Te73  1  0.06484824  0.06401586  0.39776282  1
  Te  Te74  1  0.07516565  0.08910503  0.74992054  1
  Te  Te75  1  0.09876869  0.41783955  0.08441688  1
  Te  Te76  1  0.07552436  0.40561831  0.44058892  1
  Te  Te77  1  0.07600612  0.44301030  0.71814313  1
  Te  Te78  1  0.08219362  0.73226946  0.07949473  1
  Te  Te79  1  0.09869057  0.73421664  0.44108172  1
  Te  Te80  1  0.07002950  0.75930367  0.76180205  1
  Te  Te81  1  0.42743611  0.06586781  0.08345745  1
  Te  Te82  1  0.38752105  0.11438964  0.44427464  1
  Te  Te83  1  0.38590248  0.10524157  0.77113297  1
  Te  Te84  1  0.41257301  0.43569278  0.09506977  1
  Te  Te85  1  0.41118170  0.40698871  0.42660628  1
  Te  Te86  1  0.39215452  0.39234381  0.74133660  1
  Te  Te87  1  0.39553476  0.72396110  0.07130625  1
  Te  Te88  1  0.37658879  0.76804131  0.45062706  1
  Te  Te89  1  0.40489093  0.73766452  0.73145078  1
  Te  Te90  1  0.79746177  0.09744365  0.11581122  1
  Te  Te91  1  0.73973824  0.08157384  0.41068408  1
  Te  Te92  1  0.79357888  0.06997417  0.77513625  1
  Te  Te93  1  0.75742640  0.42169985  0.09169770  1
  Te  Te94  1  0.79041611  0.38652624  0.45364358  1
  Te  Te95  1  0.75759072  0.42011150  0.74351506  1
  Te  Te96  1  0.78737640  0.73159901  0.05295685  1
  Te  Te97  1  0.76118661  0.77996148  0.41637510  1
  Te  Te98  1  0.74939652  0.74693730  0.75528004  1
  Te  Te99  1  0.08072400  0.25704318  0.23709735  1
  Te  Te100  1  0.05336174  0.25717587  0.59533914  1
  Te  Te101  1  0.09406945  0.23461822  0.90844854  1
  Te  Te102  1  0.08823760  0.58917022  0.25234589  1
  Te  Te103  1  0.12114814  0.56137989  0.61627194  1
  Te  Te104  1  0.07876006  0.57037427  0.94504871  1
  Te  Te105  1  0.07520460  0.91919272  0.26698982  1
  Te  Te106  1  0.11379397  0.92323972  0.56827052  1
  Te  Te107  1  0.07712031  0.92688128  0.92257762  1
  Te  Te108  1  0.42914827  0.24542486  0.25901773  1
  Te  Te109  1  0.36940140  0.25265405  0.57946629  1
  Te  Te110  1  0.41783294  0.25908127  0.92025710  1
  Te  Te111  1  0.41478265  0.58563944  0.25926506  1
  Te  Te112  1  0.40605646  0.56837653  0.58055327  1
  Te  Te113  1  0.39650769  0.57706196  0.90854690  1
  Te  Te114  1  0.39713180  0.93405211  0.28807110  1
  Te  Te115  1  0.40866505  0.92370408  0.60336981  1
  Te  Te116  1  0.42923508  0.91784629  0.91141862  1
  Te  Te117  1  0.75951011  0.23124569  0.25290628  1
  Te  Te118  1  0.77471254  0.23145047  0.60769949  1
  Te  Te119  1  0.74412796  0.25973191  0.92809534  1
  Te  Te120  1  0.77933849  0.60493007  0.25301392  1
  Te  Te121  1  0.75993716  0.58026784  0.58778096  1
  Te  Te122  1  0.75394745  0.58387149  0.90781544  1
  Te  Te123  1  0.77224169  0.92636706  0.23253424  1
  Te  Te124  1  0.73543865  0.91970645  0.57841693  1
  Te  Te125  1  0.78762988  0.92427816  0.91400543  1
  Te  Te126  1  0.24051833  0.26315746  0.08866101  1
  Te  Te127  1  0.20607125  0.27212743  0.43715455  1
  Te  Te128  1  0.25558488  0.27351034  0.74202259  1
  Te  Te129  1  0.18938369  0.60686715  0.04382448  1
  Te  Te130  1  0.24416995  0.56648405  0.42201364  1
  Te  Te131  1  0.23780382  0.60660602  0.72597307  1
  Te  Te132  1  0.27346984  0.91177354  0.09150149  1
  Te  Te133  1  0.28061611  0.92452154  0.39124337  1
  Te  Te134  1  0.23147862  0.92683801  0.74874069  1
  Te  Te135  1  0.60994314  0.23421426  0.08269962  1
  Te  Te136  1  0.59230224  0.25867669  0.41736204  1
  Te  Te137  1  0.57400086  0.24760992  0.74998507  1
  Te  Te138  1  0.60818979  0.59317222  0.07149416  1
  Te  Te139  1  0.59242853  0.58250768  0.39244793  1
  Te  Te140  1  0.58359730  0.59830632  0.73529430  1
  Te  Te141  1  0.60779348  0.92609262  0.07009371  1
  Te  Te142  1  0.57325256  0.90643503  0.41945826  1
  Te  Te143  1  0.59003473  0.91161889  0.74965216  1
  Te  Te144  1  0.92227442  0.24193752  0.06871957  1
  Te  Te145  1  0.90546092  0.21874024  0.39752463  1
  Te  Te146  1  0.91777060  0.21613467  0.77345089  1
  Te  Te147  1  0.90545725  0.60368097  0.07887834  1
  Te  Te148  1  0.94073429  0.57192418  0.44141558  1
  Te  Te149  1  0.91863164  0.58913594  0.76074583  1
  Te  Te150  1  0.91955185  0.90810796  0.06894801  1
  Te  Te151  1  0.90972651  0.89460228  0.40166740  1
  Te  Te152  1  0.93483577  0.90591603  0.76984901  1
  Te  Te153  1  0.25146134  0.09034103  0.25338443  1
  Te  Te154  1  0.22322879  0.09064686  0.56126044  1
  Te  Te155  1  0.23854323  0.13264268  0.92910511  1
  Te  Te156  1  0.25949752  0.41645372  0.24780971  1
  Te  Te157  1  0.20054422  0.41867236  0.62275144  1
  Te  Te158  1  0.22378138  0.42710266  0.90894689  1
  Te  Te159  1  0.23146799  0.74797944  0.23543648  1
  Te  Te160  1  0.26567558  0.74747673  0.56030895  1
  Te  Te161  1  0.24347794  0.75147106  0.90320452  1
  Te  Te162  1  0.58529115  0.08558816  0.23884255  1
  Te  Te163  1  0.56948771  0.08056263  0.58996653  1
  Te  Te164  1  0.60489621  0.07401905  0.91309735  1
  Te  Te165  1  0.59200113  0.39743649  0.23426962  1
  Te  Te166  1  0.58581636  0.42674539  0.57526415  1
  Te  Te167  1  0.55345964  0.41258166  0.89374848  1
  Te  Te168  1  0.58408612  0.76864730  0.22950631  1
  Te  Te169  1  0.59720804  0.73808062  0.56106765  1
  Te  Te170  1  0.58375002  0.74520306  0.93227684  1
  Te  Te171  1  0.89545395  0.04178594  0.21991608  1
  Te  Te172  1  0.91532970  0.07060407  0.58905053  1
  Te  Te173  1  0.90606986  0.12096856  0.89137148  1
  Te  Te174  1  0.91872978  0.43272232  0.25377428  1
  Te  Te175  1  0.96389604  0.38683784  0.60827998  1
  Te  Te176  1  0.94839436  0.42911698  0.89289019  1
  Te  Te177  1  0.90761592  0.75202992  0.25436809  1
  Te  Te178  1  0.91368839  0.75538426  0.59206050  1
  Te  Te179  1  0.89882328  0.79002205  0.96117163  1
