# generated using pymatgen
data_In2Te3
_symmetry_space_group_name_H-M   'P 1'
_cell_length_a   18.78511278
_cell_length_b   18.78893194
_cell_length_c   18.79115516
_cell_angle_alpha   90.04168264
_cell_angle_beta   90.05698173
_cell_angle_gamma   90.03847895
_symmetry_Int_Tables_number   1
_chemical_formula_structural   In2Te3
_chemical_formula_sum   'In72 Te108'
_cell_volume   6632.37312331
_cell_formula_units_Z   36
loop_
 _symmetry_equiv_pos_site_id
 _symmetry_equiv_pos_as_xyz
  1  'x, y, z'
loop_
 _atom_site_type_symbol
 _atom_site_label
 _atom_site_symmetry_multiplicity
 _atom_site_fract_x
 _atom_site_fract_y
 _atom_site_fract_z
 _atom_site_occupancy
  In  In0  1  0.17609806  0.16377056  0.64833228  1
  In  In1  1  0.16788257  0.82354343  0.66798105  1
  In  In2  1  0.67360078  0.81097747  0.80404347  1
  In  In3  1  0.68292433  0.02341293  -0.00653439  1
  In  In4  1  0.00501136  0.86313064  0.17288459  1
  In  In5  1  0.49568883  0.51820337  0.31684285  1
  In  In6  1  0.16286402  0.52039072  0.64374880  1
  In  In7  1  0.47930870  0.83322139  0.36212549  1
  In  In8  1  0.18103103  0.67772560  0.18273285  1
  In  In9  1  0.48112411  0.18398340  0.65846004  1
  In  In10  1  0.82759982  0.36368185  0.80915961  1
  In  In11  1  0.84793081  0.66711904  0.50776589  1
  In  In12  1  0.33328516  0.32913365  -0.00185254  1
  In  In13  1  0.31932523  0.66616225  0.00062891  1
  In  In14  1  0.48424369  -0.00358212  0.49515015  1
  In  In15  1  0.51620531  0.50668079  -0.01475142  1
  In  In16  1  0.66641766  0.50305457  0.51806105  1
  In  In17  1  0.18469873  0.17575493  0.00604415  1
  In  In18  1  -0.00430907  0.66077952  -0.02096023  1
  In  In19  1  0.65210129  0.66063096  0.33624721  1
  In  In20  1  0.66698373  0.63026545  -0.02034809  1
  In  In21  1  0.63219364  0.79937890  0.54533395  1
  In  In22  1  0.67916549  0.82030007  0.18208905  1
  In  In23  1  0.15384447  0.47861488  0.37308559  1
  In  In24  1  0.66907392  0.17995360  0.16117552  1
  In  In25  1  0.31825416  -0.01448235  0.66249874  1
  In  In26  1  0.33659517  0.52534554  0.51976205  1
  In  In27  1  0.64278100  0.16355712  0.84126351  1
  In  In28  1  0.47771006  0.15778093  0.36392040  1
  In  In29  1  0.67290560  0.19624834  0.50760035  1
  In  In30  1  0.85627569  0.49934423  0.33252651  1
  In  In31  1  0.51081889  0.15685566  0.01449483  1
  In  In32  1  0.84559586  0.51250156  -0.01659647  1
  In  In33  1  0.85222831  0.65358399  0.13200011  1
  In  In34  1  0.83830417  -0.01417257  0.83114096  1
  In  In35  1  0.47766549  -0.00989507  0.14922426  1
  In  In36  1  0.00239005  0.81912392  0.50433978  1
  In  In37  1  0.81146859  0.17660014  0.65194105  1
  In  In38  1  0.65651180  -0.02873147  0.65515404  1
  In  In39  1  0.00799634  -0.01845505  0.67177926  1
  In  In40  1  0.50783882  0.33560596  0.17754729  1
  In  In41  1  0.16162687  0.81474436  -0.02329249  1
  In  In42  1  0.32373707  0.84492219  0.18213731  1
  In  In43  1  0.32245944  0.50144670  0.80240361  1
  In  In44  1  -0.00012299  0.79720067  0.82473076  1
  In  In45  1  0.00365562  -0.02854295  0.00918663  1
  In  In46  1  0.16230472  0.00149020  0.19165860  1
  In  In47  1  0.02405667  0.68465904  0.34558892  1
  In  In48  1  0.85937898  0.35890866  0.51376782  1
  In  In49  1  0.50705715  0.34019835  0.51060334  1
  In  In50  1  0.49355037  0.83629480  -0.00770909  1
  In  In51  1  0.03052163  0.17914155  0.83861558  1
  In  In52  1  -0.00966792  0.34495203  0.65374265  1
  In  In53  1  0.82927519  0.17165707  -0.00495574  1
  In  In54  1  0.86751441  0.17282246  0.31620083  1
  In  In55  1  -0.00159627  0.17877250  0.18690679  1
  In  In56  1  0.34483936  -0.01222359  -0.01522501  1
  In  In57  1  -0.00774189  0.53191857  0.80995855  1
  In  In58  1  0.18192718  0.32259924  0.82933591  1
  In  In59  1  0.17705767  0.17388100  0.33839119  1
  In  In60  1  0.32125347  0.33504724  0.33197523  1
  In  In61  1  0.84456083  0.83740719  0.34772287  1
  In  In62  1  0.32519509  0.51589095  0.18064890  1
  In  In63  1  0.32890490  0.15753148  0.82395447  1
  In  In64  1  0.51557559  0.65208006  0.78356292  1
  In  In65  1  0.49758402  0.36522302  0.82379089  1
  In  In66  1  0.85132798  0.35710880  0.17637281  1
  In  In67  1  0.82404374  -0.01981439  0.50871664  1
  In  In68  1  0.01323698  0.16628955  0.49083776  1
  In  In69  1  0.67008032  0.50311110  0.14748912  1
  In  In70  1  0.31697505  0.84050427  0.50108315  1
  In  In71  1  0.66447797  0.01856625  0.33535510  1
  Te  Te72  1  0.08069482  0.08368734  0.07875622  1
  Te  Te73  1  0.09413268  0.07359265  0.41219285  1
  Te  Te74  1  0.10047929  0.07738362  0.74909301  1
  Te  Te75  1  0.01201758  0.40296263  0.11673088  1
  Te  Te76  1  0.05590692  0.38710897  0.43697879  1
  Te  Te77  1  0.08922206  0.41539603  0.75033664  1
  Te  Te78  1  0.07812054  0.75177740  0.09124567  1
  Te  Te79  1  0.11491810  0.72781313  0.45818751  1
  Te  Te80  1  0.08718438  0.71600326  0.73607397  1
  Te  Te81  1  0.39005928  0.09748352  0.08435794  1
  Te  Te82  1  0.37446860  0.07302294  0.43095862  1
  Te  Te83  1  0.42421052  0.07176092  0.74306300  1
  Te  Te84  1  0.42251946  0.42777544  0.08830158  1
  Te  Te85  1  0.41743162  0.42637471  0.41192830  1
  Te  Te86  1  0.40603487  0.41269961  0.71762111  1
  Te  Te87  1  0.40774227  0.75526203  0.08962488  1
  Te  Te88  1  0.41874211  0.73868856  0.45639488  1
  Te  Te89  1  0.40795512  0.73260646  0.71619100  1
  Te  Te90  1  0.77173890  0.08180475  0.10421726  1
  Te  Te91  1  0.76416003  0.10147528  0.42499114  1
  Te  Te92  1  0.74076941  0.07747408  0.74669792  1
  Te  Te93  1  0.76031148  0.41447327  0.06442620  1
  Te  Te94  1  0.75537902  0.42413106  0.41841244  1
  Te  Te95  1  0.72980751  0.45756669  0.75337521  1
  Te  Te96  1  0.74009989  0.73627496  0.07036251  1
  Te  Te97  1  0.74230515  0.75075989  0.42167775  1
  Te  Te98  1  0.75124525  0.70266476  0.73844030  1
  Te  Te99  1  0.10178674  0.26503806  0.24558852  1
  Te  Te100  1  0.09571052  0.27000914  0.57082985  1
  Te  Te101  1  0.08681659  0.27552268  0.94073298  1
  Te  Te102  1  0.09394484  0.58070096  0.26146911  1
  Te  Te103  1  0.03430482  0.54031102  0.57145897  1
  Te  Te104  1  0.09464608  0.58332999  0.90408057  1
  Te  Te105  1  0.10427687  0.89366069  0.28060864  1
  Te  Te106  1  0.09904742  0.92190127  0.56869149  1
  Te  Te107  1  0.07951892  0.91282262  0.89241123  1
  Te  Te108  1  0.41387040  0.24225670  0.25108370  1
  Te  Te109  1  0.39997986  0.24365111  0.55005321  1
  Te  Te110  1  0.42594842  0.24541602  0.90735350  1
  Te  Te111  1  0.40132255  0.61508752  0.25820606  1
  Te  Te112  1  0.41549747  0.61907853  0.61005304  1
  Te  Te113  1  0.41145818  0.58246741  0.90565044  1
  Te  Te114  1  0.40799470  0.93704026  0.27272864  1
  Te  Te115  1  0.42755174  0.89996182  0.59518931  1
  Te  Te116  1  0.39731263  0.88562169  0.89060426  1
  Te  Te117  1  0.75655060  0.26023173  0.25681727  1
  Te  Te118  1  0.73981389  0.29838672  0.59871989  1
  Te  Te119  1  0.75113697  0.25607529  0.89693622  1
  Te  Te120  1  0.75899790  0.59110544  0.24670390  1
  Te  Te121  1  0.73972576  0.60925967  0.59499804  1
  Te  Te122  1  0.77404070  0.59577151  0.87755404  1
  Te  Te123  1  0.75956651  0.92734899  0.25611782  1
  Te  Te124  1  0.75977579  0.87457877  0.59615387  1
  Te  Te125  1  0.73773881  0.90636499  0.91230156  1
  Te  Te126  1  0.24440811  0.27189626  0.10059145  1
  Te  Te127  1  0.25740764  0.25465952  0.43774473  1
  Te  Te128  1  0.27119345  0.25751322  0.72475697  1
  Te  Te129  1  0.22532361  0.57383958  0.07775345  1
  Te  Te130  1  0.24901013  0.58385626  0.41440836  1
  Te  Te131  1  0.23705847  0.60680925  0.74054477  1
  Te  Te132  1  0.23589014  0.91492258  0.07595476  1
  Te  Te133  1  0.23566514  0.88163402  0.38217761  1
  Te  Te134  1  0.24928749  0.90299041  0.76445110  1
  Te  Te135  1  0.59426795  0.27325476  0.06518410  1
  Te  Te136  1  0.58458030  0.26112542  0.40219561  1
  Te  Te137  1  0.58365431  0.26072628  0.74084160  1
  Te  Te138  1  0.56597626  0.60008271  0.09568013  1
  Te  Te139  1  0.56564435  0.58806435  0.43628394  1
  Te  Te140  1  0.58632342  0.51963523  0.76335525  1
  Te  Te141  1  0.59685563  0.91886172  0.08605560  1
  Te  Te142  1  0.60244143  0.91368809  0.42846880  1
  Te  Te143  1  0.57156984  0.90639785  0.75515758  1
  Te  Te144  1  0.92179088  0.26069289  0.07428075  1
  Te  Te145  1  0.94073802  0.27904053  0.40776189  1
  Te  Te146  1  0.92126976  0.23860966  0.74818432  1
  Te  Te147  1  0.95721547  0.54975311  0.09271790  1
  Te  Te148  1  0.94555827  0.57507098  0.43070945  1
  Te  Te149  1  0.89089102  0.63091160  0.76207870  1
  Te  Te150  1  0.89730519  0.89668401  0.07812067  1
  Te  Te151  1  0.93777793  0.93335638  0.41955428  1
  Te  Te152  1  0.90560503  0.88959072  0.73628461  1
  Te  Te153  1  0.26371697  0.09147978  0.24666956  1
  Te  Te154  1  0.25128361  0.07040748  0.55963672  1
  Te  Te155  1  0.23882227  0.07061874  0.90934250  1
  Te  Te156  1  0.22823926  0.41863917  0.24521451  1
  Te  Te157  1  0.25233212  0.42102527  0.58136053  1
  Te  Te158  1  0.24846896  0.42701287  0.91936303  1
  Te  Te159  1  0.25619845  0.75829910  0.28755064  1
  Te  Te160  1  0.23408428  0.73203990  0.56733378  1
  Te  Te161  1  0.26109494  0.74792240  0.89073857  1
  Te  Te162  1  0.57059416  0.09148609  0.23852393  1
  Te  Te163  1  0.58686372  0.08931086  0.57507368  1
  Te  Te164  1  0.55820358  0.05607780  0.91030614  1
  Te  Te165  1  0.60248405  0.42366070  0.25905903  1
  Te  Te166  1  0.55934923  0.44328761  0.60587681  1
  Te  Te167  1  0.61254494  0.42816867  0.90046820  1
  Te  Te168  1  0.56385458  0.75566919  0.25509965  1
  Te  Te169  1  0.55628307  0.71015994  0.64291166  1
  Te  Te170  1  0.57499842  0.73439993  0.91006611  1
  Te  Te171  1  0.93725804  0.05998770  0.25183782  1
  Te  Te172  1  0.91855893  0.08445571  0.59050336  1
  Te  Te173  1  0.92541275  0.08370643  0.91119652  1
  Te  Te174  1  0.96522499  0.41628475  0.26072052  1
  Te  Te175  1  0.90384847  0.46340525  0.61497148  1
  Te  Te176  1  0.93364709  0.41827866  0.90231738  1
  Te  Te177  1  0.91277759  0.74127132  0.24945681  1
  Te  Te178  1  0.94253798  0.72840696  0.60612580  1
  Te  Te179  1  0.90126617  0.76229193  0.93031140  1
