# generated using pymatgen
data_In2Te3
_symmetry_space_group_name_H-M   'P 1'
_cell_length_a   19.05295514
_cell_length_b   18.98940027
_cell_length_c   18.99011660
_cell_angle_alpha   89.93836635
_cell_angle_beta   90.01665811
_cell_angle_gamma   89.86666650
_symmetry_Int_Tables_number   1
_chemical_formula_structural   In2Te3
_chemical_formula_sum   'In72 Te108'
_cell_volume   6870.68090890
_cell_formula_units_Z   36
loop_
 _symmetry_equiv_pos_site_id
 _symmetry_equiv_pos_as_xyz
  1  'x, y, z'
loop_
 _atom_site_type_symbol
 _atom_site_label
 _atom_site_symmetry_multiplicity
 _atom_site_fract_x
 _atom_site_fract_y
 _atom_site_fract_z
 _atom_site_occupancy
  In  In0  1  -0.02273837  0.32433455  0.34874639  1
  In  In1  1  0.34593202  0.16265081  0.16557196  1
  In  In2  1  0.36105705  0.84601615  0.50865787  1
  In  In3  1  0.48172409  0.51799629  0.67645177  1
  In  In4  1  0.49020277  0.01016113  0.14942647  1
  In  In5  1  0.47533886  0.13840725  0.66872951  1
  In  In6  1  0.17993898  -0.02851259  0.52505313  1
  In  In7  1  0.31820764  0.65357476  0.64560424  1
  In  In8  1  0.81925429  0.30688614  0.15433115  1
  In  In9  1  0.63393856  0.03355767  0.30989444  1
  In  In10  1  0.64152942  0.67531496  -0.00268815  1
  In  In11  1  0.82839560  0.01764723  0.83305001  1
  In  In12  1  0.02364561  0.51076000  0.53455784  1
  In  In13  1  -0.02207233  0.15321443  0.17337714  1
  In  In14  1  0.65893987  0.40884410  0.16563106  1
  In  In15  1  0.49089758  0.84914924  0.32162720  1
  In  In16  1  0.48968345  0.67308533  0.81269969  1
  In  In17  1  0.18939136  0.17110443  0.68582622  1
  In  In18  1  0.43375086  0.29203660  0.81834838  1
  In  In19  1  0.32538082  0.15246423  0.48504285  1
  In  In20  1  0.84701453  0.69845297  0.18567537  1
  In  In21  1  0.00007687  -0.01034183  -0.00158053  1
  In  In22  1  -0.03437286  0.02262071  0.64329457  1
  In  In23  1  0.33487475  0.31952794  0.00324148  1
  In  In24  1  0.67865029  0.49060988  0.49544200  1
  In  In25  1  0.00801252  0.17428958  0.82619557  1
  In  In26  1  0.81731544  0.48688134  0.66371217  1
  In  In27  1  0.66012447  0.67994066  0.36862117  1
  In  In28  1  0.22651396  0.48066923  0.42447744  1
  In  In29  1  0.67860520  0.84702227  0.53185779  1
  In  In30  1  0.67443332  0.84911184  0.19631887  1
  In  In31  1  0.68067104  0.02971534  -0.00260712  1
  In  In32  1  0.49372618  0.84828020  -0.00608527  1
  In  In33  1  0.49366009  0.46783236  -0.00622735  1
  In  In34  1  0.19265925  -0.00456012  0.15558273  1
  In  In35  1  0.82748919  0.67260554  0.82118782  1
  In  In36  1  0.84316421  0.15373807  0.35830193  1
  In  In37  1  0.48226064  0.65208405  0.15393564  1
  In  In38  1  0.48439133  0.34313591  0.50359859  1
  In  In39  1  0.17966117  0.82262022  0.00500260  1
  In  In40  1  -0.00181628  0.49226705  0.82422824  1
  In  In41  1  0.67363086  0.32100778  0.67262522  1
  In  In42  1  0.36919509  0.68510257  -0.01990107  1
  In  In43  1  0.67651276  0.16342175  0.83170943  1
  In  In44  1  0.00946991  0.49087573  0.18633537  1
  In  In45  1  0.33053042  0.50487999  0.16090532  1
  In  In46  1  -0.00854147  0.67554344  0.32668279  1
  In  In47  1  0.65812275  0.17127535  0.51792738  1
  In  In48  1  0.83983585  0.47351794  -0.00183664  1
  In  In49  1  0.19682057  0.13707269  -0.03455185  1
  In  In50  1  0.34244663  0.84858083  0.83495537  1
  In  In51  1  0.16455402  0.35771753  0.16074624  1
  In  In52  1  0.65549635  0.32132709  0.33813558  1
  In  In53  1  0.49569411  -0.00113702  0.50138417  1
  In  In54  1  0.17218411  0.83094723  0.35726273  1
  In  In55  1  -0.01304900  0.30503688  0.66206931  1
  In  In56  1  0.17819201  0.82352381  0.69085339  1
  In  In57  1  0.00354490  0.85483303  0.15168301  1
  In  In58  1  0.17665757  0.36467339  0.52725689  1
  In  In59  1  0.82692421  0.67903387  0.48978713  1
  In  In60  1  0.64336871  0.50244954  0.84323078  1
  In  In61  1  0.02460686  0.81481008  0.83073815  1
  In  In62  1  0.18806322  0.33841220  0.81994140  1
  In  In63  1  0.79768741  0.49701124  0.34256023  1
  In  In64  1  0.13474291  0.15337219  0.34079418  1
  In  In65  1  0.81459939  0.86162645  -0.01074695  1
  In  In66  1  0.18134889  0.71091390  0.17555610  1
  In  In67  1  -0.01757384  0.63255580  -0.01414517  1
  In  In68  1  0.17077714  0.50495029  0.00719259  1
  In  In69  1  -0.01320728  0.84608815  0.48754985  1
  In  In70  1  0.33575763  0.31671618  0.33202220  1
  In  In71  1  0.84186452  0.83920716  0.66685078  1
  Te  Te72  1  0.08769825  0.08034412  0.08367480  1
  Te  Te73  1  0.08457015  0.05590745  0.44287797  1
  Te  Te74  1  0.07656195  0.07940031  0.73158338  1
  Te  Te75  1  0.06298580  0.41670824  0.06391879  1
  Te  Te76  1  0.07023622  0.42567698  0.41511306  1
  Te  Te77  1  0.08055634  0.40134395  0.73534560  1
  Te  Te78  1  0.06219605  0.73686910  0.07456693  1
  Te  Te79  1  0.07902744  0.73786145  0.43296741  1
  Te  Te80  1  0.08471929  0.71881430  0.73651829  1
  Te  Te81  1  0.40033148  0.08231607  0.05430906  1
  Te  Te82  1  0.42562854  0.08485363  0.40474352  1
  Te  Te83  1  0.40945341  0.07117583  0.78233236  1
  Te  Te84  1  0.41847221  0.39659328  0.10457238  1
  Te  Te85  1  0.38226775  0.42127438  0.42820236  1
  Te  Te86  1  0.39252206  0.41071063  0.72656963  1
  Te  Te87  1  0.40946139  0.77217636  0.09515167  1
  Te  Te88  1  0.44864671  0.75464232  0.43037553  1
  Te  Te89  1  0.40205192  0.75818181  0.72809581  1
  Te  Te90  1  0.77368001  0.12904559  0.04860002  1
  Te  Te91  1  0.73115221  0.07775985  0.42468562  1
  Te  Te92  1  0.73770882  0.07275151  0.73284635  1
  Te  Te93  1  0.71985215  0.38129653  0.02147794  1
  Te  Te94  1  0.76024132  0.37992332  0.43151368  1
  Te  Te95  1  0.74381393  0.41139512  0.77226033  1
  Te  Te96  1  0.74941348  0.75196948  0.08067910  1
  Te  Te97  1  0.75844764  0.78451435  0.40861732  1
  Te  Te98  1  0.74092856  0.75999469  0.74093382  1
  Te  Te99  1  0.07314973  0.26484925  0.24532088  1
  Te  Te100  1  0.10292238  0.24393879  0.58475764  1
  Te  Te101  1  0.10812289  0.24836067  0.91270560  1
  Te  Te102  1  0.09341280  0.60000089  0.24321911  1
  Te  Te103  1  0.11053770  0.58739459  0.62102388  1
  Te  Te104  1  0.09579452  0.58285884  0.90023659  1
  Te  Te105  1  0.10316235  0.91485705  0.24688379  1
  Te  Te106  1  0.06707098  0.90707291  0.60622642  1
  Te  Te107  1  0.10049834  0.91652133  0.91355026  1
  Te  Te108  1  0.43193153  0.24764284  0.24818543  1
  Te  Te109  1  0.40364762  0.24081113  0.58018359  1
  Te  Te110  1  0.42815773  0.21828403  0.94925908  1
  Te  Te111  1  0.40325417  0.58684539  0.25772256  1
  Te  Te112  1  0.42012086  0.58443273  0.55938314  1
  Te  Te113  1  0.42132604  0.56969447  0.90030136  1
  Te  Te114  1  0.40444445  0.93135299  0.23803438  1
  Te  Te115  1  0.42208099  0.93245199  0.61019144  1
  Te  Te116  1  0.45047109  0.93840776  0.88389518  1
  Te  Te117  1  0.75192554  0.22775187  0.26176027  1
  Te  Te118  1  0.76758100  0.24126024  0.59082094  1
  Te  Te119  1  0.75946850  0.22718999  0.93876903  1
  Te  Te120  1  0.74583313  0.61092079  0.25829653  1
  Te  Te121  1  0.74382201  0.59481000  0.58361235  1
  Te  Te122  1  0.75176257  0.58655719  0.92307892  1
  Te  Te123  1  0.74694498  0.96457937  0.24439467  1
  Te  Te124  1  0.78767432  0.93644988  0.57237558  1
  Te  Te125  1  0.72271178  0.92263907  0.88967714  1
  Te  Te126  1  0.23322237  0.24465919  0.08964663  1
  Te  Te127  1  0.22538490  0.25293029  0.41433718  1
  Te  Te128  1  0.29257044  0.24335119  0.76899605  1
  Te  Te129  1  0.25546369  0.60876208  0.07716121  1
  Te  Te130  1  0.27054719  0.60023575  0.49564746  1
  Te  Te131  1  0.23340006  0.54524212  0.70704275  1
  Te  Te132  1  0.26982136  0.92686745  0.05177699  1
  Te  Te133  1  0.27153276  0.92955011  0.41334007  1
  Te  Te134  1  0.24094094  0.93390460  0.76617873  1
  Te  Te135  1  0.60759780  0.29967297  0.08711605  1
  Te  Te136  1  0.56065191  0.23918519  0.42377708  1
  Te  Te137  1  0.56358247  0.24269830  0.73974428  1
  Te  Te138  1  0.58068249  0.56321131  0.07836230  1
  Te  Te139  1  0.58271125  0.55956550  0.40601941  1
  Te  Te140  1  0.59685724  0.59820260  0.73641130  1
  Te  Te141  1  0.60206396  0.91448285  0.07800507  1
  Te  Te142  1  0.59001383  0.91910181  0.40809015  1
  Te  Te143  1  0.60141218  0.83089884  0.66127890  1
  Te  Te144  1  0.92671744  0.24833343  0.07524390  1
  Te  Te145  1  0.94319853  0.21876847  0.44787893  1
  Te  Te146  1  0.89883642  0.24934913  0.76379135  1
  Te  Te147  1  0.90195782  0.57641784  0.10397234  1
  Te  Te148  1  0.90954490  0.57703507  0.41036703  1
  Te  Te149  1  0.91178438  0.58129370  0.73583358  1
  Te  Te150  1  0.89187800  0.94044172  0.09253269  1
  Te  Te151  1  0.95511691  0.97276146  0.41999017  1
  Te  Te152  1  0.93003955  0.91795470  0.77045584  1
  Te  Te153  1  0.24546191  0.09236312  0.25949025  1
  Te  Te154  1  0.26530932  0.07167431  0.59867787  1
  Te  Te155  1  0.27311810  0.07328019  0.85713686  1
  Te  Te156  1  0.23996971  0.43228557  0.26526960  1
  Te  Te157  1  0.27540758  0.42024316  0.62345464  1
  Te  Te158  1  0.26430011  0.42518818  0.91963143  1
  Te  Te159  1  0.26717487  0.74192349  0.28733497  1
  Te  Te160  1  0.24459160  0.76688751  0.56900268  1
  Te  Te161  1  0.25428313  0.74013129  0.90154343  1
  Te  Te162  1  0.57678998  0.11579263  0.20314767  1
  Te  Te163  1  0.58988724  0.06568444  0.60295088  1
  Te  Te164  1  0.57918796  0.10987227  0.92850531  1
  Te  Te165  1  0.57721902  0.43678543  0.28545601  1
  Te  Te166  1  0.58381948  0.42008103  0.59735717  1
  Te  Te167  1  0.54589869  0.39357121  0.87552349  1
  Te  Te168  1  0.57836006  0.74103466  0.24071144  1
  Te  Te169  1  0.56797625  0.74392273  0.54795725  1
  Te  Te170  1  0.57841904  0.76351773  0.89526667  1
  Te  Te171  1  0.93682813  0.06219851  0.28118099  1
  Te  Te172  1  0.90087267  0.13868490  0.58345114  1
  Te  Te173  1  0.92185948  0.09377109  0.92342210  1
  Te  Te174  1  0.89064466  0.41117379  0.24538913  1
  Te  Te175  1  0.91664776  0.41418624  0.57543867  1
  Te  Te176  1  0.91726883  0.39797642  0.90160667  1
  Te  Te177  1  0.92157900  0.79816190  0.26976483  1
  Te  Te178  1  0.92533917  0.74325140  0.58262695  1
  Te  Te179  1  0.91069645  0.75949948  0.92628587  1
