# generated using pymatgen
data_In2Te3
_symmetry_space_group_name_H-M   'P 1'
_cell_length_a   18.85713341
_cell_length_b   18.85931230
_cell_length_c   18.86433929
_cell_angle_alpha   90.01673447
_cell_angle_beta   89.97842232
_cell_angle_gamma   89.94107767
_symmetry_Int_Tables_number   1
_chemical_formula_structural   In2Te3
_chemical_formula_sum   'In72 Te108'
_cell_volume   6708.76911721
_cell_formula_units_Z   36
loop_
 _symmetry_equiv_pos_site_id
 _symmetry_equiv_pos_as_xyz
  1  'x, y, z'
loop_
 _atom_site_type_symbol
 _atom_site_label
 _atom_site_symmetry_multiplicity
 _atom_site_fract_x
 _atom_site_fract_y
 _atom_site_fract_z
 _atom_site_occupancy
  In  In0  1  0.33660426  0.67471082  0.67358639  1
  In  In1  1  0.53189782  0.51480185  0.70504033  1
  In  In2  1  0.32085975  0.33839199  0.34861225  1
  In  In3  1  0.80677703  0.85567179  0.69088984  1
  In  In4  1  0.34978661  0.15804843  0.83309439  1
  In  In5  1  0.17938575  -0.01439077  0.82350327  1
  In  In6  1  0.48971725  0.84112197  0.33731596  1
  In  In7  1  0.81175014  0.66296854  0.52279291  1
  In  In8  1  0.16748593  0.82535810  -0.00558004  1
  In  In9  1  0.35624200  0.47434222  0.48710384  1
  In  In10  1  0.66883309  0.67242716  -0.01681311  1
  In  In11  1  0.50050140  0.16672337  0.67361407  1
  In  In12  1  0.00281829  0.02039690  0.35055104  1
  In  In13  1  0.84800806  0.50732416  0.33278090  1
  In  In14  1  0.13095022  0.32279754  0.14572441  1
  In  In15  1  0.16699195  0.16175462  -0.00876103  1
  In  In16  1  0.66864271  0.18342260  0.15915342  1
  In  In17  1  0.16125080  0.81344165  0.70660956  1
  In  In18  1  0.14953972  0.63560481  0.49786353  1
  In  In19  1  0.00790385  0.33787776  0.32764636  1
  In  In20  1  0.84015837  0.17781575  0.32971611  1
  In  In21  1  0.16301602  0.30648471  0.50536165  1
  In  In22  1  0.34147057  0.67306738  0.28656789  1
  In  In23  1  0.32958937  0.30994596  0.66963772  1
  In  In24  1  -0.01942890  -0.00991712  0.68611879  1
  In  In25  1  0.52844117  0.32040708  0.84003450  1
  In  In26  1  0.15967750  0.50327420  0.67986904  1
  In  In27  1  -0.02837233  0.18387963  0.83355334  1
  In  In28  1  0.33896537  0.00084168  0.32229075  1
  In  In29  1  0.17020174  0.36982872  0.84283239  1
  In  In30  1  0.15227758  0.16632240  0.64616603  1
  In  In31  1  0.33563408  0.84529601  0.51893700  1
  In  In32  1  0.16697555  0.65417940  0.15412200  1
  In  In33  1  0.49703390  0.34521446  0.52179025  1
  In  In34  1  0.34112647  0.14890448  0.14702872  1
  In  In35  1  -0.03179378  0.33976667  0.00454670  1
  In  In36  1  -0.01854103  0.65072216  -0.01334429  1
  In  In37  1  0.65731263  0.00028712  -0.01159799  1
  In  In38  1  -0.02056428  0.84863520  0.17874575  1
  In  In39  1  0.64903849  0.33676297  0.33123795  1
  In  In40  1  0.85965056  0.34634691  0.51270858  1
  In  In41  1  0.64808038  0.83349594  0.86099570  1
  In  In42  1  0.51863355  0.33787001  0.16988207  1
  In  In43  1  0.18412073  0.00544129  0.50418736  1
  In  In44  1  0.83759019  0.80927326  0.33085317  1
  In  In45  1  0.79803256  0.15689348  0.70194993  1
  In  In46  1  0.65799803  0.50502151  0.51088495  1
  In  In47  1  0.81192575  0.00780521  0.15209813  1
  In  In48  1  -0.00050092  0.01487513  -0.02571191  1
  In  In49  1  0.52156528  0.84107401  0.67589388  1
  In  In50  1  0.65574777  0.83244389  0.13172276  1
  In  In51  1  0.36447452  0.85843657  0.85616582  1
  In  In52  1  0.50736003  0.67101309  0.14856225  1
  In  In53  1  0.68385549  0.65612672  0.33970257  1
  In  In54  1  0.50496978  0.67463364  0.51810885  1
  In  In55  1  0.64214239  -0.00429372  0.32848137  1
  In  In56  1  0.34045197  0.81719204  0.14521752  1
  In  In57  1  0.50989453  0.50148572  -0.01649359  1
  In  In58  1  0.15537504  -0.00086349  0.15765922  1
  In  In59  1  0.17491448  0.49984929  0.31975238  1
  In  In60  1  -0.02321123  0.50929266  0.13274764  1
  In  In61  1  0.83306528  0.00412658  0.53276762  1
  In  In62  1  0.67349853  0.14298719  0.52235271  1
  In  In63  1  -0.00079565  0.51072885  0.83330529  1
  In  In64  1  0.00406578  0.49562821  0.53961995  1
  In  In65  1  0.34541066  0.49962969  0.84110079  1
  In  In66  1  0.00038034  0.82406443  0.51531953  1
  In  In67  1  0.52150619  0.16448663  -0.01072423  1
  In  In68  1  -0.01743376  0.69399796  0.33118063  1
  In  In69  1  0.50685356  0.14782548  0.32790672  1
  In  In70  1  0.33832534  0.51985108  0.13966984  1
  In  In71  1  0.83165049  0.67041720  0.84023220  1
  Te  Te72  1  0.06516431  0.09787530  0.08426906  1
  Te  Te73  1  0.08530081  0.09743990  0.44374877  1
  Te  Te74  1  0.07989778  0.08751187  0.76587982  1
  Te  Te75  1  0.08789542  0.43802182  0.06028589  1
  Te  Te76  1  0.09206693  0.42857589  0.42701461  1
  Te  Te77  1  0.06577528  0.39933605  0.73852023  1
  Te  Te78  1  0.06977612  0.75630687  0.09177318  1
  Te  Te79  1  0.09375197  0.75417317  0.41639406  1
  Te  Te80  1  0.05331054  0.72413679  0.74009772  1
  Te  Te81  1  0.42265608  0.06898780  0.05017535  1
  Te  Te82  1  0.42986636  0.06291344  0.41921811  1
  Te  Te83  1  0.44129981  0.06619853  0.76570117  1
  Te  Te84  1  0.42425836  0.41263240  0.07510448  1
  Te  Te85  1  0.45135781  0.40692106  0.38980956  1
  Te  Te86  1  0.42453440  0.40136831  0.74502836  1
  Te  Te87  1  0.41243304  0.72896566  0.05015421  1
  Te  Te88  1  0.40594803  0.73857413  0.41716716  1
  Te  Te89  1  0.43168211  0.75123298  0.76084977  1
  Te  Te90  1  0.75200569  0.10811650  0.05714010  1
  Te  Te91  1  0.75544332  0.07378944  0.40322105  1
  Te  Te92  1  0.70641229  0.05655235  0.76311798  1
  Te  Te93  1  0.81401629  0.34587116  0.03598146  1
  Te  Te94  1  0.75501886  0.41946467  0.41991012  1
  Te  Te95  1  0.72072304  0.35143094  0.79123574  1
  Te  Te96  1  0.76128388  0.75736649  0.06355900  1
  Te  Te97  1  0.73623908  0.76238099  0.43481450  1
  Te  Te98  1  0.72330095  0.74329263  0.75700439  1
  Te  Te99  1  0.08803786  0.23805572  0.25603357  1
  Te  Te100  1  0.05963968  0.27389730  0.60517218  1
  Te  Te101  1  0.07678858  0.26151973  0.91653252  1
  Te  Te102  1  0.06624049  0.58363616  0.25487647  1
  Te  Te103  1  0.06297773  0.61706592  0.62679984  1
  Te  Te104  1  0.09425654  0.58408788  0.91883370  1
  Te  Te105  1  0.08148751  0.92018326  0.26541076  1
  Te  Te106  1  0.08550990  0.91822420  0.60096321  1
  Te  Te107  1  0.07615347  0.90555177  0.90054886  1
  Te  Te108  1  0.41965224  0.24367990  0.24450187  1
  Te  Te109  1  0.40497833  0.23364229  0.56370679  1
  Te  Te110  1  0.41744285  0.25889216  0.92405020  1
  Te  Te111  1  0.43844924  0.56759848  0.24368485  1
  Te  Te112  1  0.41870222  0.56662821  0.59739459  1
  Te  Te113  1  0.44364476  0.59734462  0.89187572  1
  Te  Te114  1  0.42342288  0.91825006  0.22501095  1
  Te  Te115  1  0.43760219  0.92549612  0.58548572  1
  Te  Te116  1  0.45311707  0.94471144  0.93775861  1
  Te  Te117  1  0.75795003  0.27192827  0.24434772  1
  Te  Te118  1  0.76002099  0.25125825  0.58100610  1
  Te  Te119  1  0.79131093  0.26108275  0.88509710  1
  Te  Te120  1  0.75792209  0.57799492  0.23998671  1
  Te  Te121  1  0.74209605  0.56932237  0.61374280  1
  Te  Te122  1  0.72523173  0.56821991  0.88763214  1
  Te  Te123  1  0.74617639  0.90637953  0.24739298  1
  Te  Te124  1  0.72538068  0.92285695  0.58661374  1
  Te  Te125  1  0.75576417  0.90336284  0.93559960  1
  Te  Te126  1  0.25148607  0.25242331  0.07857282  1
  Te  Te127  1  0.25697994  0.22987988  0.42279006  1
  Te  Te128  1  0.23457230  0.24545952  0.76764291  1
  Te  Te129  1  0.25611453  0.60199197  0.04988333  1
  Te  Te130  1  0.27055417  0.57912133  0.40812309  1
  Te  Te131  1  0.24721327  0.59184858  0.76609243  1
  Te  Te132  1  0.25494498  0.92289777  0.07196544  1
  Te  Te133  1  0.25217249  0.90869281  0.40812638  1
  Te  Te134  1  0.27473158  0.90770431  0.73607261  1
  Te  Te135  1  0.60246936  0.27594814  0.05810053  1
  Te  Te136  1  0.58799209  0.23766855  0.42916397  1
  Te  Te137  1  0.61034724  0.25077772  0.73479814  1
  Te  Te138  1  0.60327150  0.57433025  0.08183719  1
  Te  Te139  1  0.57223137  0.58307838  0.41374949  1
  Te  Te140  1  0.62058280  0.60586693  0.77898384  1
  Te  Te141  1  0.55218428  0.90898509  0.05445423  1
  Te  Te142  1  0.58033220  0.90969161  0.43001479  1
  Te  Te143  1  0.60130815  0.93925247  0.76271648  1
  Te  Te144  1  0.90219309  0.24527692  0.09806129  1
  Te  Te145  1  0.93554557  0.24592936  0.42664920  1
  Te  Te146  1  0.88031128  0.27735910  0.75683083  1
  Te  Te147  1  0.87306561  0.56796922  0.04631515  1
  Te  Te148  1  0.92600856  0.59357648  0.43885162  1
  Te  Te149  1  0.89767104  0.57566228  0.74407162  1
  Te  Te150  1  0.91175841  0.92669547  0.06928685  1
  Te  Te151  1  0.91272735  0.91375945  0.42228346  1
  Te  Te152  1  0.89071656  0.93180113  0.78653086  1
  Te  Te153  1  0.24114677  0.09013213  0.24603592  1
  Te  Te154  1  0.26109614  0.07698478  0.60778748  1
  Te  Te155  1  0.26206463  0.06722735  0.92102527  1
  Te  Te156  1  0.25764190  0.41270771  0.22922448  1
  Te  Te157  1  0.25020353  0.41892122  0.58556853  1
  Te  Te158  1  0.27077609  0.41618735  0.93741757  1
  Te  Te159  1  0.23146386  0.76406647  0.24067475  1
  Te  Te160  1  0.23760801  0.74004817  0.57688662  1
  Te  Te161  1  0.25322196  0.76603059  0.88946134  1
  Te  Te162  1  0.57794052  0.07413440  0.21410588  1
  Te  Te163  1  0.57087151  0.06449180  0.59006214  1
  Te  Te164  1  0.61828018  0.10779032  0.88776914  1
  Te  Te165  1  0.61842532  0.43290857  0.22488193  1
  Te  Te166  1  0.59829789  0.40848337  0.61360994  1
  Te  Te167  1  0.61484125  0.42078504  0.90950688  1
  Te  Te168  1  0.58702155  0.75257168  0.25220970  1
  Te  Te169  1  0.60353095  0.73948737  0.60301738  1
  Te  Te170  1  0.54926976  0.75218144  0.94002973  1
  Te  Te171  1  0.91542755  0.08064497  0.23995839  1
  Te  Te172  1  0.91449988  0.10377108  0.60934689  1
  Te  Te173  1  0.88840370  0.09076691  0.91117907  1
  Te  Te174  1  0.91466766  0.41208997  0.23347354  1
  Te  Te175  1  0.88695674  0.44753449  0.61857818  1
  Te  Te176  1  0.89514164  0.43844691  0.91561276  1
  Te  Te177  1  0.89206840  0.72768822  0.21361969  1
  Te  Te178  1  0.89631368  0.76084443  0.60402984  1
  Te  Te179  1  0.93086190  0.76077950  0.90261426  1
