# generated using pymatgen
data_In2Te3
_symmetry_space_group_name_H-M   'P 1'
_cell_length_a   18.83088695
_cell_length_b   18.82691540
_cell_length_c   18.83926216
_cell_angle_alpha   90.02755211
_cell_angle_beta   89.93870823
_cell_angle_gamma   90.01427433
_symmetry_Int_Tables_number   1
_chemical_formula_structural   In2Te3
_chemical_formula_sum   'In72 Te108'
_cell_volume   6679.03201128
_cell_formula_units_Z   36
loop_
 _symmetry_equiv_pos_site_id
 _symmetry_equiv_pos_as_xyz
  1  'x, y, z'
loop_
 _atom_site_type_symbol
 _atom_site_label
 _atom_site_symmetry_multiplicity
 _atom_site_fract_x
 _atom_site_fract_y
 _atom_site_fract_z
 _atom_site_occupancy
  In  In0  1  -0.00509643  0.17945809  0.47954958  1
  In  In1  1  0.83309340  0.51434010  0.00034120  1
  In  In2  1  -0.01724989  0.33759361  0.02529247  1
  In  In3  1  0.66759582  0.00475189  0.34757764  1
  In  In4  1  0.15926210  0.49717318  -0.00973044  1
  In  In5  1  0.84393170  0.64500626  0.49869478  1
  In  In6  1  0.50539043  0.54958824  -0.04968223  1
  In  In7  1  0.67225549  0.15721306  0.83898782  1
  In  In8  1  0.63098737  0.53614990  0.49330901  1
  In  In9  1  0.31434410  -0.00675287  0.66418558  1
  In  In10  1  0.18454378  -0.00957673  0.84149105  1
  In  In11  1  0.67377532  -0.03767311  -0.01798076  1
  In  In12  1  0.36893611  0.76903796  0.52377180  1
  In  In13  1  0.83209337  0.00483928  0.49581906  1
  In  In14  1  0.32090474  0.81109293  0.17162343  1
  In  In15  1  0.15521224  0.82743437  0.67114283  1
  In  In16  1  0.66907571  0.81380677  0.15767853  1
  In  In17  1  0.84593058  0.17612991  -0.00241202  1
  In  In18  1  0.50844177  0.33560559  0.16527994  1
  In  In19  1  0.15626009  0.33363857  0.84894137  1
  In  In20  1  0.81704414  0.33755152  0.80631957  1
  In  In21  1  0.00268066  -0.00725512  0.01848709  1
  In  In22  1  0.84536800  0.68474960  0.84749478  1
  In  In23  1  0.13204630  0.00761039  0.18127202  1
  In  In24  1  0.85177575  0.02719307  0.15626907  1
  In  In25  1  0.13706486  0.17409255  0.69738171  1
  In  In26  1  0.15719334  0.18290893  0.32253354  1
  In  In27  1  0.86307437  0.84663674  0.68570951  1
  In  In28  1  0.64526965  0.80035136  0.80661888  1
  In  In29  1  0.66477816  -0.01994858  0.67540561  1
  In  In30  1  0.32793746  0.51683680  0.17331817  1
  In  In31  1  0.34458447  0.37297786  0.67806906  1
  In  In32  1  0.31420475  0.14295287  0.84135648  1
  In  In33  1  0.02113852  0.50646811  0.83539411  1
  In  In34  1  0.51123359  0.16232363  0.34134506  1
  In  In35  1  0.32103973  -0.03043661  0.33824911  1
  In  In36  1  0.53245931  0.17807291  0.00379450  1
  In  In37  1  0.00823642  0.66821291  0.65864720  1
  In  In38  1  0.00110934  0.85162293  0.18623165  1
  In  In39  1  0.50651531  0.33808570  0.48661885  1
  In  In40  1  0.17166276  -0.02108279  0.50727240  1
  In  In41  1  0.69202716  0.33822841  0.31192835  1
  In  In42  1  0.17663237  0.52944638  0.65019788  1
  In  In43  1  -0.00313332  -0.00710274  0.30649902  1
  In  In44  1  0.32875668  0.16604493  0.47139463  1
  In  In45  1  0.14670075  0.68455128  0.48829791  1
  In  In46  1  0.50126806  0.14844203  0.64614728  1
  In  In47  1  0.01875150  0.13128790  0.83666993  1
  In  In48  1  0.66762202  0.49438311  0.17503084  1
  In  In49  1  0.66710585  0.33810753  0.65323062  1
  In  In50  1  0.64348534  0.79769551  0.51090124  1
  In  In51  1  0.34304162  -0.01767531  -0.01373949  1
  In  In52  1  0.81886728  0.48612870  0.66175513  1
  In  In53  1  0.82790485  0.83588693  0.32935042  1
  In  In54  1  0.52012302  -0.02391677  0.53012511  1
  In  In55  1  0.17913579  0.82739996  0.01177564  1
  In  In56  1  0.83420296  0.50305258  0.33673040  1
  In  In57  1  0.48862151  -0.00387319  0.18849145  1
  In  In58  1  0.33407949  0.34488917  0.00861416  1
  In  In59  1  0.16633160  0.65415819  0.17814145  1
  In  In60  1  0.50604993  0.80443289  -0.02720041  1
  In  In61  1  0.35331885  0.54841747  0.51877195  1
  In  In62  1  0.50304021  0.66232809  0.18035164  1
  In  In63  1  0.18387397  0.67032399  0.83625889  1
  In  In64  1  0.15470371  0.49292088  0.33397139  1
  In  In65  1  0.83659711  0.66050167  0.15286986  1
  In  In66  1  0.33081660  0.37028974  0.33243225  1
  In  In67  1  0.50749575  0.34627458  0.84784453  1
  In  In68  1  0.32353285  0.18497839  0.15097421  1
  In  In69  1  -0.02252728  0.33380425  0.64971217  1
  In  In70  1  0.81909980  0.16056022  0.65983325  1
  In  In71  1  -0.00828695  0.33842049  0.30799904  1
  Te  Te72  1  0.04875981  0.10523232  0.10686023  1
  Te  Te73  1  0.09380811  0.07340502  0.41172618  1
  Te  Te74  1  0.08111155  0.03212029  0.72889547  1
  Te  Te75  1  0.06306350  0.44313010  0.08919723  1
  Te  Te76  1  0.07779866  0.39663758  0.41451532  1
  Te  Te77  1  0.09006119  0.41145091  0.73446232  1
  Te  Te78  1  0.07837416  0.75401399  0.09683828  1
  Te  Te79  1  0.08818337  0.78295552  0.39813810  1
  Te  Te80  1  0.06800076  0.75081727  0.77059294  1
  Te  Te81  1  0.42301591  0.08865423  0.08267841  1
  Te  Te82  1  0.43066688  0.06052922  0.42474364  1
  Te  Te83  1  0.41474467  0.07431058  0.74801990  1
  Te  Te84  1  0.42662155  0.43760639  0.08552127  1
  Te  Te85  1  0.42417132  0.44925625  0.42246592  1
  Te  Te86  1  0.45098575  0.44170044  0.75104295  1
  Te  Te87  1  0.41582263  0.73737861  0.07862230  1
  Te  Te88  1  0.43061212  0.70640374  0.40374202  1
  Te  Te89  1  0.44315813  0.71413343  0.76181204  1
  Te  Te90  1  0.74477996  0.07497937  0.05867231  1
  Te  Te91  1  0.76760937  0.10055761  0.40148321  1
  Te  Te92  1  0.76145453  0.06179900  0.76113774  1
  Te  Te93  1  0.77267307  0.41871460  0.09900873  1
  Te  Te94  1  0.72705369  0.43696401  0.42456163  1
  Te  Te95  1  0.71054881  0.43664871  0.76186956  1
  Te  Te96  1  0.75006786  0.73987924  0.06012072  1
  Te  Te97  1  0.75135341  0.73920742  0.41886349  1
  Te  Te98  1  0.76519683  0.73981193  0.72900303  1
  Te  Te99  1  0.06668958  0.23789590  0.22111932  1
  Te  Te100  1  0.08838549  0.25626249  0.57876597  1
  Te  Te101  1  0.06698641  0.24391136  0.93048939  1
  Te  Te102  1  0.06367762  0.58304975  0.25928907  1
  Te  Te103  1  0.06364628  0.56825615  0.55949295  1
  Te  Te104  1  0.07414013  0.61221109  0.92857243  1
  Te  Te105  1  0.11822158  0.88912828  0.28629820  1
  Te  Te106  1  0.06944856  0.89328948  0.56967942  1
  Te  Te107  1  0.08454276  0.90701892  0.92290939  1
  Te  Te108  1  0.41275943  0.25150387  0.26498572  1
  Te  Te109  1  0.41223052  0.25252073  0.57515487  1
  Te  Te110  1  0.41299121  0.23914681  0.91884271  1
  Te  Te111  1  0.40115804  0.60061148  0.27285085  1
  Te  Te112  1  0.44651442  0.61779395  0.61520751  1
  Te  Te113  1  0.39922349  0.62594106  0.88081618  1
  Te  Te114  1  0.42283837  0.88307499  0.26529056  1
  Te  Te115  1  0.41640121  0.89472349  0.60357418  1
  Te  Te116  1  0.42874647  0.90527373  0.89502387  1
  Te  Te117  1  0.75492105  0.24919827  0.21397499  1
  Te  Te118  1  0.77305971  0.27199375  0.57524388  1
  Te  Te119  1  0.74561541  0.26312925  0.91991445  1
  Te  Te120  1  0.74384975  0.59716687  0.25683142  1
  Te  Te121  1  0.73418137  0.59233220  0.59193716  1
  Te  Te122  1  0.74998400  0.58603196  0.90183597  1
  Te  Te123  1  0.75013691  0.92784089  0.23546890  1
  Te  Te124  1  0.74743140  0.90162139  0.57301785  1
  Te  Te125  1  0.75556174  0.88081971  0.88615393  1
  Te  Te126  1  0.22882404  0.26463269  0.07302658  1
  Te  Te127  1  0.24024677  0.27472014  0.41320185  1
  Te  Te128  1  0.26191191  0.25705407  0.75053395  1
  Te  Te129  1  0.25277508  0.59277373  0.06548229  1
  Te  Te130  1  0.24156036  0.58621517  0.41962336  1
  Te  Te131  1  0.26488294  0.57111342  0.75975038  1
  Te  Te132  1  0.25174365  0.93428437  0.10502286  1
  Te  Te133  1  0.28134608  0.88647139  0.45665163  1
  Te  Te134  1  0.26405543  0.88784923  0.76253164  1
  Te  Te135  1  0.61454218  0.25377224  0.10087892  1
  Te  Te136  1  0.60829274  0.25120114  0.41559647  1
  Te  Te137  1  0.58186349  0.23845033  0.74403928  1
  Te  Te138  1  0.58791816  0.58337865  0.08133965  1
  Te  Te139  1  0.57091909  0.63848125  0.40275705  1
  Te  Te140  1  0.56756978  0.63839763  0.74843834  1
  Te  Te141  1  0.56565986  0.91061050  0.08519785  1
  Te  Te142  1  0.57880240  0.89842948  0.41271617  1
  Te  Te143  1  0.56038939  0.90998303  0.75112658  1
  Te  Te144  1  0.87976742  0.26309309  0.11773932  1
  Te  Te145  1  0.90270633  0.26075354  0.40096031  1
  Te  Te146  1  0.92473302  0.23165493  0.75854547  1
  Te  Te147  1  0.93874826  0.58834909  0.07147266  1
  Te  Te148  1  0.93877079  0.59008793  0.39797861  1
  Te  Te149  1  0.91816792  0.57492966  0.74507729  1
  Te  Te150  1  0.89835671  0.89915459  0.08188129  1
  Te  Te151  1  0.92481737  0.91283950  0.41692879  1
  Te  Te152  1  0.95071506  0.94432341  0.74854237  1
  Te  Te153  1  0.26286836  0.08482476  0.25679435  1
  Te  Te154  1  0.24335287  0.10211258  0.58228242  1
  Te  Te155  1  0.22868972  0.08553281  0.95205232  1
  Te  Te156  1  0.23403123  0.40885216  0.22398560  1
  Te  Te157  1  0.26023398  0.43074023  0.56818338  1
  Te  Te158  1  0.26505625  0.42746645  0.90079393  1
  Te  Te159  1  0.24513174  0.73712199  0.27363155  1
  Te  Te160  1  0.24332206  0.72445670  0.60165545  1
  Te  Te161  1  0.27173106  0.75608169  0.92169767  1
  Te  Te162  1  0.59737150  0.09039778  0.23864416  1
  Te  Te163  1  0.61623136  0.08783067  0.56939775  1
  Te  Te164  1  0.57629021  0.06489915  0.91230281  1
  Te  Te165  1  0.56861306  0.42728550  0.26976589  1
  Te  Te166  1  0.56628976  0.43280126  0.59026764  1
  Te  Te167  1  0.58405565  0.42465507  0.94531935  1
  Te  Te168  1  0.59857349  0.74104142  0.26627769  1
  Te  Te169  1  0.55859135  0.72773160  0.61420899  1
  Te  Te170  1  0.60871508  0.70879235  0.92116481  1
  Te  Te171  1  0.89498294  0.09780986  0.27903971  1
  Te  Te172  1  0.92754681  0.08626593  0.58259700  1
  Te  Te173  1  0.90894008  0.06186129  0.91754326  1
  Te  Te174  1  0.89351776  0.42096543  0.22710294  1
  Te  Te175  1  0.90311766  0.42173290  0.55914753  1
  Te  Te176  1  0.91920438  0.40943229  0.89818623  1
  Te  Te177  1  0.92014248  0.74159658  0.25514727  1
  Te  Te178  1  0.92006382  0.75620098  0.57318539  1
  Te  Te179  1  0.87819818  0.79929171  0.93488485  1
