# generated using pymatgen
data_In2Te3
_symmetry_space_group_name_H-M   'P 1'
_cell_length_a   18.95120421
_cell_length_b   18.96596636
_cell_length_c   18.96078281
_cell_angle_alpha   90.19311187
_cell_angle_beta   89.95472942
_cell_angle_gamma   89.99483716
_symmetry_Int_Tables_number   1
_chemical_formula_structural   In2Te3
_chemical_formula_sum   'In72 Te108'
_cell_volume   6814.99350924
_cell_formula_units_Z   36
loop_
 _symmetry_equiv_pos_site_id
 _symmetry_equiv_pos_as_xyz
  1  'x, y, z'
loop_
 _atom_site_type_symbol
 _atom_site_label
 _atom_site_symmetry_multiplicity
 _atom_site_fract_x
 _atom_site_fract_y
 _atom_site_fract_z
 _atom_site_occupancy
  In  In0  1  0.66830636  0.16052705  0.16916785  1
  In  In1  1  -0.01078266  0.32872864  0.36862023  1
  In  In2  1  0.86040481  0.82906124  -0.00931763  1
  In  In3  1  0.49947614  0.67480002  0.51774817  1
  In  In4  1  0.17229004  0.51525446  0.01994024  1
  In  In5  1  0.34417274  0.32518710  0.00943792  1
  In  In6  1  0.81693566  0.65199104  0.49753920  1
  In  In7  1  0.83318678  0.51154731  0.65370477  1
  In  In8  1  0.46170262  0.53201777  0.34535401  1
  In  In9  1  0.53333810  0.29337201  0.59189251  1
  In  In10  1  0.81558012  0.16702411  -0.00331274  1
  In  In11  1  0.50044956  0.48558007  0.64289325  1
  In  In12  1  -0.00032780  0.15161855  0.16906765  1
  In  In13  1  0.68297561  0.80750569  0.18597090  1
  In  In14  1  0.53555756  -0.02681308  0.46892965  1
  In  In15  1  0.03219744  0.53414811  0.51846179  1
  In  In16  1  0.00783868  0.51528375  0.78552334  1
  In  In17  1  0.66551203  0.15481195  0.50895443  1
  In  In18  1  0.83463844  0.16264877  0.32970327  1
  In  In19  1  0.46925607  0.82324419  0.00773782  1
  In  In20  1  0.15840843  0.34171530  0.83641297  1
  In  In21  1  0.67922738  -0.01913346  0.01516704  1
  In  In22  1  0.65984062  0.31292349  0.35995829  1
  In  In23  1  0.68671837  0.19000118  0.74244912  1
  In  In24  1  0.51276769  0.31641276  0.20075633  1
  In  In25  1  0.31052680  0.66920172  0.04034970  1
  In  In26  1  -0.00634966  0.31840025  0.63851208  1
  In  In27  1  0.66550689  0.65631549  0.33434323  1
  In  In28  1  0.31728226  -0.01964692  0.65901501  1
  In  In29  1  0.51527860  0.04022815  0.82131527  1
  In  In30  1  0.50975986  0.48744038  0.00941802  1
  In  In31  1  -0.02984695  0.49806982  0.17251713  1
  In  In32  1  0.34656463  0.32704376  0.33603273  1
  In  In33  1  0.30267124  0.52332900  0.48620390  1
  In  In34  1  0.20279436  0.31873038  0.17438396  1
  In  In35  1  0.00204843  -0.01379777  0.00118077  1
  In  In36  1  0.69554581  -0.00924796  0.65411865  1
  In  In37  1  0.01054053  0.18485406  0.84023843  1
  In  In38  1  0.16338700  0.68375334  0.80678845  1
  In  In39  1  0.82912384  0.34458409  0.83606959  1
  In  In40  1  0.00667401  0.68560149  -0.01685110  1
  In  In41  1  -0.03610931  0.03763703  0.63810171  1
  In  In42  1  0.30617225  0.83244987  0.19959849  1
  In  In43  1  0.67517386  0.48317595  0.16668464  1
  In  In44  1  0.17444556  0.18214135  0.66501186  1
  In  In45  1  0.01065046  0.83336677  0.49483137  1
  In  In46  1  0.69662888  0.82182440  0.82688568  1
  In  In47  1  0.13121683  -0.03163865  0.20298166  1
  In  In48  1  0.48244790  0.66271586  0.82680446  1
  In  In49  1  0.31632023  0.79630361  0.50564997  1
  In  In50  1  -0.00244312  0.32429854  0.00064290  1
  In  In51  1  0.65424058  0.49856188  0.81627066  1
  In  In52  1  0.65910337  0.63650802  -0.02226719  1
  In  In53  1  0.84105278  0.84219069  0.64315165  1
  In  In54  1  0.15800433  0.15753414  0.33225556  1
  In  In55  1  0.15456804  0.01435186  0.49113018  1
  In  In56  1  0.81571170  0.50405269  -0.01910985  1
  In  In57  1  0.32805665  0.16136321  0.84044376  1
  In  In58  1  0.33201542  0.85025385  0.82274282  1
  In  In59  1  0.01477466  0.69398865  0.33652130  1
  In  In60  1  0.17400135  0.67330475  0.16715104  1
  In  In61  1  0.16129354  0.85118479  -0.01865784  1
  In  In62  1  0.80997821  0.48291437  0.36457123  1
  In  In63  1  0.52463694  -0.01283551  0.21279481  1
  In  In64  1  0.35174628  0.50963012  0.81975604  1
  In  In65  1  0.17386548  0.33805738  0.49326040  1
  In  In66  1  0.33287662  0.02602355  0.00045476  1
  In  In67  1  0.83887487  0.69917790  0.16941112  1
  In  In68  1  0.33006272  0.00280696  0.36032619  1
  In  In69  1  0.49580639  0.83902784  0.67244371  1
  In  In70  1  0.49494356  0.16596751  0.02512823  1
  In  In71  1  0.83084172  0.81996588  0.35209505  1
  Te  Te72  1  0.09696262  0.06550040  0.09091122  1
  Te  Te73  1  0.05595217  0.07082456  0.39518810  1
  Te  Te74  1  0.07459839  0.09552130  0.73700742  1
  Te  Te75  1  0.07877992  0.41825736  0.09164926  1
  Te  Te76  1  0.08800575  0.43671471  0.41522609  1
  Te  Te77  1  0.08968188  0.40825912  0.71863399  1
  Te  Te78  1  0.08711609  0.76527036  0.08263276  1
  Te  Te79  1  0.11238059  0.72966792  0.44499007  1
  Te  Te80  1  0.08675598  0.73834005  0.69263280  1
  Te  Te81  1  0.43102154  0.06091922  0.11103293  1
  Te  Te82  1  0.43610124  0.07496524  0.43143187  1
  Te  Te83  1  0.40593509  0.08689224  0.73112502  1
  Te  Te84  1  0.42847175  0.40448364  0.10618056  1
  Te  Te85  1  0.41646446  0.41968849  0.43636971  1
  Te  Te86  1  0.44674850  0.41538468  0.76259056  1
  Te  Te87  1  0.41280422  0.74574795  0.12253240  1
  Te  Te88  1  0.41899500  0.74300936  0.41608005  1
  Te  Te89  1  0.39439230  0.74373555  0.73412681  1
  Te  Te90  1  0.76786660  0.06709451  0.10311614  1
  Te  Te91  1  0.72045104  0.08534516  0.38833913  1
  Te  Te92  1  0.75982157  0.06488355  0.76319008  1
  Te  Te93  1  0.76205163  0.40792972  0.07535427  1
  Te  Te94  1  0.74155944  0.39116944  0.45714675  1
  Te  Te95  1  0.74615333  0.41217287  0.73073468  1
  Te  Te96  1  0.74148901  0.74172999  0.05403311  1
  Te  Te97  1  0.72330722  0.75404641  0.43549024  1
  Te  Te98  1  0.73455751  0.75491243  0.70299409  1
  Te  Te99  1  0.07459022  0.26271671  0.25355767  1
  Te  Te100  1  0.08270373  0.23139967  0.55374309  1
  Te  Te101  1  0.10985804  0.24219040  0.94016811  1
  Te  Te102  1  0.07129851  0.58639931  0.24171483  1
  Te  Te103  1  0.12779597  0.61284098  0.60288220  1
  Te  Te104  1  0.09126947  0.58032574  0.90867722  1
  Te  Te105  1  0.07769809  0.85816191  0.28074457  1
  Te  Te106  1  0.07190528  0.93552086  0.58943944  1
  Te  Te107  1  0.05664111  0.90106357  0.89270439  1
  Te  Te108  1  0.41099785  0.22566139  0.25102017  1
  Te  Te109  1  0.38919721  0.32768196  0.57162214  1
  Te  Te110  1  0.43160333  0.24691355  0.91355702  1
  Te  Te111  1  0.39186670  0.57957579  0.22952299  1
  Te  Te112  1  0.39875540  0.58467106  0.58788786  1
  Te  Te113  1  0.41313392  0.58963130  0.94641615  1
  Te  Te114  1  0.41467288  0.90538039  0.27797790  1
  Te  Te115  1  0.41381559  0.90798631  0.56455461  1
  Te  Te116  1  0.42827671  0.93350473  0.90929490  1
  Te  Te117  1  0.74971050  0.26165479  0.24967057  1
  Te  Te118  1  0.75718309  0.21867113  0.60915213  1
  Te  Te119  1  0.73724916  0.24218398  0.89359500  1
  Te  Te120  1  0.77063675  0.58532833  0.24531166  1
  Te  Te121  1  0.72345754  0.56541974  0.57058961  1
  Te  Te122  1  0.76187423  0.59489308  0.87425031  1
  Te  Te123  1  0.73996895  0.91399375  0.27316334  1
  Te  Te124  1  0.77680671  0.93441421  0.54349478  1
  Te  Te125  1  0.77151873  0.92424710  0.90926354  1
  Te  Te126  1  0.26583483  0.22531030  0.08337236  1
  Te  Te127  1  0.25551571  0.23408963  0.41845856  1
  Te  Te128  1  0.26255900  0.26861044  0.75339941  1
  Te  Te129  1  0.27478456  0.54826744  0.12895541  1
  Te  Te130  1  0.22734195  0.62293339  0.40597608  1
  Te  Te131  1  0.24069178  0.57126563  0.74901419  1
  Te  Te132  1  0.26282081  0.91214021  0.07694114  1
  Te  Te133  1  0.23715224  0.90518377  0.42742202  1
  Te  Te134  1  0.22394026  0.92066327  0.75489581  1
  Te  Te135  1  0.59564148  0.26236785  0.08452939  1
  Te  Te136  1  0.55847622  0.24275142  0.44516416  1
  Te  Te137  1  0.55955159  0.26212405  0.73459125  1
  Te  Te138  1  0.58573586  0.58612277  0.09989934  1
  Te  Te139  1  0.57893652  0.57657109  0.42895541  1
  Te  Te140  1  0.57433852  0.59381880  0.73120920  1
  Te  Te141  1  0.57743177  0.89843460  0.09272526  1
  Te  Te142  1  0.61648983  0.90229619  0.36907264  1
  Te  Te143  1  0.58751441  0.91778329  0.76726186  1
  Te  Te144  1  0.90788881  0.24535926  0.09170326  1
  Te  Te145  1  0.89840016  0.23818813  0.44393153  1
  Te  Te146  1  0.91280476  0.25218805  0.74738836  1
  Te  Te147  1  0.91360976  0.59381705  0.06685665  1
  Te  Te148  1  0.91833953  0.58722908  0.40198473  1
  Te  Te149  1  0.91847215  0.61033253  0.72327745  1
  Te  Te150  1  0.91208158  0.91717493  0.09462139  1
  Te  Te151  1  0.90133883  0.91980582  0.43753552  1
  Te  Te152  1  0.90767609  0.93960607  0.73180026  1
  Te  Te153  1  0.24068632  0.06125859  0.24893509  1
  Te  Te154  1  0.25646533  0.09122057  0.57460035  1
  Te  Te155  1  0.23606449  0.06278877  0.89770800  1
  Te  Te156  1  0.24362223  0.41397786  0.27569219  1
  Te  Te157  1  0.26107923  0.41545127  0.58743504  1
  Te  Te158  1  0.25575554  0.42311029  0.92821256  1
  Te  Te159  1  0.25458680  0.72085151  0.28582613  1
  Te  Te160  1  0.21713633  0.74524451  0.60513089  1
  Te  Te161  1  0.26007424  0.74309556  0.91725355  1
  Te  Te162  1  0.59401529  0.09891092  0.28195471  1
  Te  Te163  1  0.57763647  0.05800828  0.58996163  1
  Te  Te164  1  0.59521048  0.08487730  0.94193509  1
  Te  Te165  1  0.58675396  0.42673089  0.27653622  1
  Te  Te166  1  0.61221307  0.41891873  0.56897191  1
  Te  Te167  1  0.60605106  0.41493183  0.92639008  1
  Te  Te168  1  0.57452967  0.73656009  0.25278834  1
  Te  Te169  1  0.59361527  0.76461800  0.59105937  1
  Te  Te170  1  0.57348977  0.75239523  0.91271865  1
  Te  Te171  1  0.93594293  0.06755436  0.27215782  1
  Te  Te172  1  0.87397295  0.12679460  0.56109794  1
  Te  Te173  1  0.92351968  0.09189305  0.92156454  1
  Te  Te174  1  0.90069825  0.40434933  0.26913342  1
  Te  Te175  1  0.92850719  0.43249597  0.56369713  1
  Te  Te176  1  0.93982046  0.42644850  0.90401159  1
  Te  Te177  1  0.94128752  0.78998605  0.24079353  1
  Te  Te178  1  0.92120210  0.73416314  0.56951484  1
  Te  Te179  1  0.92564674  0.75340923  0.88246454  1
