# generated using pymatgen
data_In2Te3
_symmetry_space_group_name_H-M   'P 1'
_cell_length_a   18.93175241
_cell_length_b   18.94249852
_cell_length_c   18.94331047
_cell_angle_alpha   89.99627772
_cell_angle_beta   90.19718292
_cell_angle_gamma   90.10237367
_symmetry_Int_Tables_number   1
_chemical_formula_structural   In2Te3
_chemical_formula_sum   'In72 Te108'
_cell_volume   6793.29836292
_cell_formula_units_Z   36
loop_
 _symmetry_equiv_pos_site_id
 _symmetry_equiv_pos_as_xyz
  1  'x, y, z'
loop_
 _atom_site_type_symbol
 _atom_site_label
 _atom_site_symmetry_multiplicity
 _atom_site_fract_x
 _atom_site_fract_y
 _atom_site_fract_z
 _atom_site_occupancy
  In  In0  1  -0.00277080  -0.00894268  0.66430692  1
  In  In1  1  0.50871888  0.51149717  0.33166117  1
  In  In2  1  0.49015210  0.01405135  0.52082356  1
  In  In3  1  0.18028771  0.17064096  0.67320052  1
  In  In4  1  0.33081405  0.66726094  0.69379949  1
  In  In5  1  0.00469433  0.52987532  0.14202509  1
  In  In6  1  0.84360055  -0.01469444  0.15398163  1
  In  In7  1  0.16890720  0.54317239  0.03069871  1
  In  In8  1  0.46971985  0.48610198  0.65315370  1
  In  In9  1  0.83311224  0.15425041  0.69796578  1
  In  In10  1  0.17990632  0.33670611  0.14352763  1
  In  In11  1  0.33461766  -0.01085901  0.68914621  1
  In  In12  1  -0.03260050  0.64776700  0.33355609  1
  In  In13  1  0.51795140  0.84896576  0.30469138  1
  In  In14  1  0.62637000  0.34467727  0.67648983  1
  In  In15  1  0.68129573  0.01983439  0.70659384  1
  In  In16  1  0.15604824  0.47826108  0.30735435  1
  In  In17  1  0.46446083  0.01307443  0.14983213  1
  In  In18  1  0.84122393  0.83213552  0.68804607  1
  In  In19  1  0.31073208  0.84039531  0.48403235  1
  In  In20  1  -0.01202712  0.46420091  0.83349352  1
  In  In21  1  0.52057055  0.32748518  0.85856310  1
  In  In22  1  0.16316177  0.35422183  0.48929991  1
  In  In23  1  0.51256771  0.69160675  0.48957068  1
  In  In24  1  0.31394860  0.67738415  0.30573084  1
  In  In25  1  0.72008060  0.65107029  0.27241290  1
  In  In26  1  0.50784094  0.00752839  0.83596789  1
  In  In27  1  0.00877672  0.70747782  -0.01492452  1
  In  In28  1  0.48413873  0.30807761  0.48298592  1
  In  In29  1  0.65656673  0.35079325  0.33496223  1
  In  In30  1  -0.00973180  0.15217964  0.83331089  1
  In  In31  1  0.14581073  0.30495507  0.83898264  1
  In  In32  1  0.66900878  0.02371506  0.33993932  1
  In  In33  1  0.84547040  0.82774520  0.32393039  1
  In  In34  1  0.83198589  0.50994372  0.66322400  1
  In  In35  1  0.68278984  0.65101356  0.02053191  1
  In  In36  1  0.30677351  0.49118790  0.83860902  1
  In  In37  1  -0.00135841  -0.00478401  0.34004879  1
  In  In38  1  0.32960413  0.32133664  -0.01016352  1
  In  In39  1  0.68474326  0.16469246  0.51235081  1
  In  In40  1  -0.00933370  -0.00622492  -0.00001742  1
  In  In41  1  0.69712636  0.84559726  0.50277876  1
  In  In42  1  0.34758198  -0.00979987  0.33127165  1
  In  In43  1  0.66749481  0.16518158  0.18872744  1
  In  In44  1  0.48834312  0.31058792  0.15980181  1
  In  In45  1  0.31670026  0.18345046  0.50085813  1
  In  In46  1  0.70010806  0.50959554  0.52395408  1
  In  In47  1  0.15886669  0.82411686  0.32901442  1
  In  In48  1  0.66275133  0.81812263  0.15533679  1
  In  In49  1  0.35931687  0.48962180  0.47208637  1
  In  In50  1  0.17752228  -0.02156674  0.16270558  1
  In  In51  1  0.16896347  0.15226989  0.32073259  1
  In  In52  1  0.50629889  0.50117874  -0.01544681  1
  In  In53  1  0.18127662  0.66643593  0.85754632  1
  In  In54  1  0.82013736  0.35440829  0.15584006  1
  In  In55  1  0.14883019  0.65993036  0.48785923  1
  In  In56  1  -0.04138819  0.31776867  -0.00834047  1
  In  In57  1  -0.01818429  0.33796965  0.33640217  1
  In  In58  1  0.16834637  0.84447646  0.68428221  1
  In  In59  1  0.30151465  0.31704742  0.66813411  1
  In  In60  1  0.47736060  0.80540082  0.02872082  1
  In  In61  1  0.00917268  0.13970998  0.17807236  1
  In  In62  1  -0.00118461  0.67073548  0.65461921  1
  In  In63  1  0.65453439  0.49554485  0.85613041  1
  In  In64  1  0.31898036  0.03321423  -0.02503780  1
  In  In65  1  0.81961828  0.33959251  0.48977193  1
  In  In66  1  0.67812369  -0.00655301  -0.00863722  1
  In  In67  1  0.67723377  0.65115550  0.64422191  1
  In  In68  1  0.69296501  0.84902008  0.83871882  1
  In  In69  1  0.52592871  0.67050852  0.83937861  1
  In  In70  1  -0.00507944  0.31398444  0.66018220  1
  In  In71  1  0.34037728  0.79948501  0.86362039  1
  Te  Te72  1  0.09804321  0.07566240  0.07562924  1
  Te  Te73  1  0.08339414  0.08746876  0.41841449  1
  Te  Te74  1  0.09466262  0.07561148  0.75397341  1
  Te  Te75  1  0.07086357  0.41318257  0.06998937  1
  Te  Te76  1  0.06058718  0.44077279  0.41899079  1
  Te  Te77  1  0.09237802  0.40315567  0.73746000  1
  Te  Te78  1  0.12314462  0.73740738  0.07398978  1
  Te  Te79  1  0.05617047  0.75119252  0.41230539  1
  Te  Te80  1  0.09059866  0.74027647  0.76024645  1
  Te  Te81  1  0.41918109  0.11434247  0.05172359  1
  Te  Te82  1  0.41287815  0.09543104  0.41931132  1
  Te  Te83  1  0.42645512  0.08848482  0.74354069  1
  Te  Te84  1  0.41556999  0.41588053  0.07124612  1
  Te  Te85  1  0.41190586  0.38427873  0.37040348  1
  Te  Te86  1  0.40517719  0.40190669  0.76199260  1
  Te  Te87  1  0.40250184  0.69137994  0.08129970  1
  Te  Te88  1  0.41374964  0.76487191  0.39799832  1
  Te  Te89  1  0.43701466  0.75669093  0.74924184  1
  Te  Te90  1  0.75222334  0.08647604  0.08687409  1
  Te  Te91  1  0.76948944  0.07632476  0.43210381  1
  Te  Te92  1  0.77774120  0.07174479  0.80831359  1
  Te  Te93  1  0.72971114  0.44900997  0.08570506  1
  Te  Te94  1  0.76214422  0.44819344  0.39645810  1
  Te  Te95  1  0.73528516  0.42699044  0.74777203  1
  Te  Te96  1  0.77439797  0.74240036  0.09546903  1
  Te  Te97  1  0.73394388  0.74906226  0.39275576  1
  Te  Te98  1  0.74720064  0.73257446  0.75434471  1
  Te  Te99  1  0.08265901  0.26291513  0.24668082  1
  Te  Te100  1  0.09514975  0.24492712  0.57019429  1
  Te  Te101  1  0.07188390  0.22636431  0.94117961  1
  Te  Te102  1  0.08761677  0.59901063  0.24909232  1
  Te  Te103  1  0.06872106  0.57167024  0.57167421  1
  Te  Te104  1  0.07713428  0.56764513  0.91074249  1
  Te  Te105  1  0.06398963  0.90429914  0.23696516  1
  Te  Te106  1  0.08687812  0.90779115  0.58097308  1
  Te  Te107  1  0.03387316  0.89513491  0.89428416  1
  Te  Te108  1  0.42103721  0.26170577  0.27878289  1
  Te  Te109  1  0.41835285  0.24415918  0.60308774  1
  Te  Te110  1  0.43540179  0.23236176  0.93278102  1
  Te  Te111  1  0.41497283  0.58827050  0.24590180  1
  Te  Te112  1  0.41306676  0.60611619  0.56946612  1
  Te  Te113  1  0.41095723  0.58454096  0.89544273  1
  Te  Te114  1  0.39891189  0.89549884  0.22342458  1
  Te  Te115  1  0.40838154  0.90255588  0.58285112  1
  Te  Te116  1  0.42611643  0.91000130  0.92986178  1
  Te  Te117  1  0.75693835  0.26254658  0.26407483  1
  Te  Te118  1  0.74290837  0.27159893  0.60465499  1
  Te  Te119  1  0.81649891  0.30025698  0.95035078  1
  Te  Te120  1  0.77686824  0.53312539  0.19972323  1
  Te  Te121  1  0.80332682  0.62433736  0.55535739  1
  Te  Te122  1  0.74397352  0.60589659  0.89499487  1
  Te  Te123  1  0.73393358  0.92111852  0.24823885  1
  Te  Te124  1  0.76033932  0.93504517  0.60596463  1
  Te  Te125  1  0.77774671  0.88796197  0.95449349  1
  Te  Te126  1  0.26676947  0.23222937  0.08968432  1
  Te  Te127  1  0.24265222  0.26506946  0.39661318  1
  Te  Te128  1  0.27251835  0.22521792  0.79110295  1
  Te  Te129  1  0.29695095  0.57625309  0.09418178  1
  Te  Te130  1  0.25076592  0.57574931  0.40585774  1
  Te  Te131  1  0.22490867  0.57247553  0.73974747  1
  Te  Te132  1  0.25109472  0.92265193  0.04662007  1
  Te  Te133  1  0.22603427  0.93789483  0.40641008  1
  Te  Te134  1  0.25627691  0.90530726  0.79154204  1
  Te  Te135  1  0.59795400  0.24535925  0.08713619  1
  Te  Te136  1  0.59319715  0.23343583  0.41110918  1
  Te  Te137  1  0.60977106  0.24177359  0.77899155  1
  Te  Te138  1  0.56008529  0.59943391  0.08199580  1
  Te  Te139  1  0.59855434  0.58408930  0.43032734  1
  Te  Te140  1  0.57384354  0.57071489  0.72698424  1
  Te  Te141  1  0.57448244  0.92408279  0.08835544  1
  Te  Te142  1  0.57740697  0.92307252  0.42556542  1
  Te  Te143  1  0.58639599  0.90981048  0.74818494  1
  Te  Te144  1  0.91019036  0.23476343  0.11280790  1
  Te  Te145  1  0.91194160  0.24632455  0.42572097  1
  Te  Te146  1  0.90505268  0.26711412  0.77162148  1
  Te  Te147  1  0.92151141  0.60554424  0.04800801  1
  Te  Te148  1  0.87360279  0.57935949  0.42215995  1
  Te  Te149  1  0.92290659  0.58130023  0.76084157  1
  Te  Te150  1  0.95169887  0.89702199  0.10648247  1
  Te  Te151  1  0.90338364  0.91826232  0.42260480  1
  Te  Te152  1  0.92301972  0.92348443  0.77694738  1
  Te  Te153  1  0.26865123  0.07868529  0.23439391  1
  Te  Te154  1  0.25561391  0.07315907  0.58493925  1
  Te  Te155  1  0.23273093  0.10570266  0.88256010  1
  Te  Te156  1  0.26275053  0.43399971  0.21873216  1
  Te  Te157  1  0.26158851  0.43080028  0.57708583  1
  Te  Te158  1  0.21702139  0.41267064  0.92981729  1
  Te  Te159  1  0.22586208  0.75586200  0.21546061  1
  Te  Te160  1  0.24788738  0.74291611  0.58252905  1
  Te  Te161  1  0.23183290  0.76074252  0.96557860  1
  Te  Te162  1  0.55627013  0.08023365  0.25125461  1
  Te  Te163  1  0.58857244  0.09217730  0.60461756  1
  Te  Te164  1  0.60363806  0.09102345  0.91152139  1
  Te  Te165  1  0.57731595  0.42326579  0.23036524  1
  Te  Te166  1  0.57071457  0.42224236  0.54928271  1
  Te  Te167  1  0.61561345  0.39342832  0.96149832  1
  Te  Te168  1  0.58515670  0.72647590  0.24748254  1
  Te  Te169  1  0.59650133  0.76937206  0.58883555  1
  Te  Te170  1  0.59191188  0.76920406  0.93297127  1
  Te  Te171  1  0.89814575  0.07887030  0.26046003  1
  Te  Te172  1  0.92081354  0.09785971  0.59772140  1
  Te  Te173  1  0.89838937  0.08971159  0.93219486  1
  Te  Te174  1  0.92160622  0.43751079  0.23772799  1
  Te  Te175  1  0.91751694  0.41663053  0.57975819  1
  Te  Te176  1  0.87598659  0.43671280  0.93515392  1
  Te  Te177  1  0.89067314  0.72266512  0.22921249  1
  Te  Te178  1  0.93782263  0.78663168  0.58607255  1
  Te  Te179  1  0.91745764  0.79805191  0.90937465  1
