# generated using pymatgen
data_In2Te3
_symmetry_space_group_name_H-M   'P 1'
_cell_length_a   18.99151930
_cell_length_b   18.98340873
_cell_length_c   18.98116552
_cell_angle_alpha   90.00345681
_cell_angle_beta   90.03061275
_cell_angle_gamma   90.04565282
_symmetry_Int_Tables_number   1
_chemical_formula_structural   In2Te3
_chemical_formula_sum   'In72 Te108'
_cell_volume   6843.15825503
_cell_formula_units_Z   36
loop_
 _symmetry_equiv_pos_site_id
 _symmetry_equiv_pos_as_xyz
  1  'x, y, z'
loop_
 _atom_site_type_symbol
 _atom_site_label
 _atom_site_symmetry_multiplicity
 _atom_site_fract_x
 _atom_site_fract_y
 _atom_site_fract_z
 _atom_site_occupancy
  In  In0  1  0.32648633  0.52299034  0.16550217  1
  In  In1  1  0.67487926  0.51197020  0.15837594  1
  In  In2  1  0.17083098  0.33727212  0.52211541  1
  In  In3  1  0.15907438  0.17328173  0.33397897  1
  In  In4  1  0.67911076  0.00331793  0.29685455  1
  In  In5  1  -0.01051296  0.67708291  -0.02343284  1
  In  In6  1  0.82851167  0.82750883  0.66433370  1
  In  In7  1  0.35519087  0.83462533  0.50866870  1
  In  In8  1  0.68048489  0.83921308  0.14064999  1
  In  In9  1  0.52466775  0.69313914  0.85896567  1
  In  In10  1  0.33178099  0.50410601  0.84116747  1
  In  In11  1  0.01187181  0.85665444  0.48904263  1
  In  In12  1  0.82201271  0.49311941  0.33883673  1
  In  In13  1  0.83999721  0.49908602  -0.00280529  1
  In  In14  1  0.80841446  0.02928913  0.85908659  1
  In  In15  1  -0.02226422  0.19920881  0.46254076  1
  In  In16  1  0.51342764  0.68413953  0.14917958  1
  In  In17  1  0.22249166  0.84887239  0.30741976  1
  In  In18  1  0.17269118  0.51158664  0.34732637  1
  In  In19  1  -0.01477980  0.87679594  0.86386169  1
  In  In20  1  0.50545052  0.48051632  -0.01552553  1
  In  In21  1  0.14774946  0.33810759  0.18786432  1
  In  In22  1  0.15049469  0.02011913  0.49840468  1
  In  In23  1  0.65754650  0.15562437  0.15816377  1
  In  In24  1  0.67902547  0.16141300  0.84052048  1
  In  In25  1  0.35732102  0.00582640  0.00238279  1
  In  In26  1  0.14359228  0.16617268  0.00219017  1
  In  In27  1  0.16311665  0.65419785  0.49303837  1
  In  In28  1  0.82468688  0.64382718  0.51307821  1
  In  In29  1  0.50612123  -0.00088838  0.83858763  1
  In  In30  1  0.65555104  0.00173217  0.68077062  1
  In  In31  1  -0.01573909  0.31885470  0.02608084  1
  In  In32  1  0.50514690  0.30573167  0.16825302  1
  In  In33  1  0.43747536  0.66609065  0.63801144  1
  In  In34  1  0.66134568  0.32157761  0.67690323  1
  In  In35  1  0.64370219  0.64715912  0.66063380  1
  In  In36  1  -0.02207385  0.49338103  0.17933544  1
  In  In37  1  0.16780717  0.69755560  0.17386378  1
  In  In38  1  -0.01788642  0.46776789  0.50149254  1
  In  In39  1  0.81651891  0.34202536  0.17636583  1
  In  In40  1  0.17771681  0.01490621  0.15684093  1
  In  In41  1  0.18537690  0.84528257  -0.00893258  1
  In  In42  1  0.00542823  0.68104904  0.69491868  1
  In  In43  1  -0.00939249  0.03333394  0.65324134  1
  In  In44  1  0.49481157  -0.00854974  0.50211788  1
  In  In45  1  -0.00105013  0.48419634  0.80431992  1
  In  In46  1  0.32728829  0.17057741  0.17240971  1
  In  In47  1  -0.01872200  0.29444126  0.67745887  1
  In  In48  1  0.65924004  0.80321034  0.49949516  1
  In  In49  1  0.33176488  0.34208710  0.66154917  1
  In  In50  1  0.32890486  0.34166452  -0.01767065  1
  In  In51  1  -0.04127726  0.01236276  0.28186796  1
  In  In52  1  0.18146132  0.66741400  0.84094111  1
  In  In53  1  0.50078916  0.49230426  0.34971377  1
  In  In54  1  0.50088097  0.32974139  0.51033979  1
  In  In55  1  0.83161018  0.00184525  0.47685523  1
  In  In56  1  0.66052818  0.33662799  0.36531892  1
  In  In57  1  0.18264658  0.16881410  0.68775715  1
  In  In58  1  0.67213595  0.16191045  0.50053088  1
  In  In59  1  0.49255264  0.84874231  0.33257564  1
  In  In60  1  0.16841430  0.49470858  0.66786444  1
  In  In61  1  0.17588446  0.00138806  0.83314280  1
  In  In62  1  -0.01396159  0.88754891  0.13907629  1
  In  In63  1  0.84128975  0.65893743  0.83143160  1
  In  In64  1  0.48299791  0.30866632  0.83415732  1
  In  In65  1  0.65231345  -0.01667098  0.00131093  1
  In  In66  1  0.68270755  0.47202279  0.81465440  1
  In  In67  1  -0.01939643  0.70100981  0.31082220  1
  In  In68  1  0.20418900  0.84002569  0.69035082  1
  In  In69  1  0.34410209  0.69434339  0.03386067  1
  In  In70  1  0.34189621  0.14719286  0.49784907  1
  In  In71  1  0.66670054  0.64665899  0.33934132  1
  Te  Te72  1  0.06892880  0.10701863  0.11670271  1
  Te  Te73  1  0.05117113  0.07292898  0.39660393  1
  Te  Te74  1  0.07540653  0.09338202  0.76392332  1
  Te  Te75  1  0.07720242  0.42746222  0.08802759  1
  Te  Te76  1  0.08791203  0.40348953  0.41409436  1
  Te  Te77  1  0.09171209  0.38562277  0.73746334  1
  Te  Te78  1  0.07913766  0.76289181  0.06640869  1
  Te  Te79  1  0.08833975  0.75515227  0.40466874  1
  Te  Te80  1  0.08534327  0.77684408  0.78518752  1
  Te  Te81  1  0.42552391  0.08007033  0.11022588  1
  Te  Te82  1  0.40814392  0.05673488  0.40399636  1
  Te  Te83  1  0.40041566  0.03727973  0.74316128  1
  Te  Te84  1  0.41583252  0.42083758  0.09220915  1
  Te  Te85  1  0.41313854  0.39240639  0.40974476  1
  Te  Te86  1  0.42304353  0.42212382  0.75368341  1
  Te  Te87  1  0.45469077  0.79015100  0.06211430  1
  Te  Te88  1  0.44246696  0.74888494  0.42835710  1
  Te  Te89  1  0.42578046  0.74306512  0.76098740  1
  Te  Te90  1  0.75854997  0.06372157  0.08195607  1
  Te  Te91  1  0.75593500  0.09728051  0.38936334  1
  Te  Te92  1  0.76490832  0.09288888  0.72834719  1
  Te  Te93  1  0.73859971  0.41004529  0.06543439  1
  Te  Te94  1  0.73176896  0.44107160  0.44171491  1
  Te  Te95  1  0.77584931  0.36163777  0.77105089  1
  Te  Te96  1  0.71497397  0.73053935  0.04955226  1
  Te  Te97  1  0.76644988  0.74111196  0.41351711  1
  Te  Te98  1  0.74365531  0.73364200  0.74185544  1
  Te  Te99  1  0.06297471  0.22525170  0.23371776  1
  Te  Te100  1  0.08509931  0.22335141  0.57378130  1
  Te  Te101  1  0.05969725  0.25108981  0.91917403  1
  Te  Te102  1  0.07979633  0.59230477  0.24846417  1
  Te  Te103  1  0.06982418  0.57350906  0.58446084  1
  Te  Te104  1  0.07480672  0.57849431  0.90037599  1
  Te  Te105  1  0.09377170  0.91555491  0.24476133  1
  Te  Te106  1  0.08857738  0.91979547  0.60500241  1
  Te  Te107  1  0.08660313  0.95135219  0.94758282  1
  Te  Te108  1  0.40496700  0.25924240  0.26193397  1
  Te  Te109  1  0.41667119  0.23504841  0.59613763  1
  Te  Te110  1  0.40882220  0.23102213  0.93315329  1
  Te  Te111  1  0.44144834  0.58633476  0.24138446  1
  Te  Te112  1  0.48003349  0.54519941  0.56923755  1
  Te  Te113  1  0.41381423  0.59304173  0.93592140  1
  Te  Te114  1  0.36699684  0.87910862  0.26069716  1
  Te  Te115  1  0.41083173  0.93083453  0.60905016  1
  Te  Te116  1  0.44260015  0.90483947  0.93568722  1
  Te  Te117  1  0.72561080  0.25311006  0.25771683  1
  Te  Te118  1  0.74723749  0.26830905  0.56906159  1
  Te  Te119  1  0.78753556  0.24659853  0.89393114  1
  Te  Te120  1  0.77123754  0.59564358  0.23943184  1
  Te  Te121  1  0.73414404  0.55602766  0.58598316  1
  Te  Te122  1  0.74345849  0.57474243  0.90955791  1
  Te  Te123  1  0.76519897  0.89584460  0.24714486  1
  Te  Te124  1  0.74697711  0.91856958  0.57361242  1
  Te  Te125  1  0.72183770  0.91095982  0.88831110  1
  Te  Te126  1  0.23700867  0.26275226  0.08875327  1
  Te  Te127  1  0.25073118  0.24860636  0.42736492  1
  Te  Te128  1  0.26487558  0.26092353  0.76395906  1
  Te  Te129  1  0.23114890  0.59914646  0.07541630  1
  Te  Te130  1  0.27156792  0.59501282  0.41470967  1
  Te  Te131  1  0.26097859  0.59245607  0.73652702  1
  Te  Te132  1  0.26989413  0.91295235  0.09396800  1
  Te  Te133  1  0.24508109  0.91821158  0.43931414  1
  Te  Te134  1  0.29288231  0.92821136  0.77434617  1
  Te  Te135  1  0.59561798  0.25366911  0.06797805  1
  Te  Te136  1  0.56624292  0.22928765  0.41514256  1
  Te  Te137  1  0.57318622  0.22165803  0.74926047  1
  Te  Te138  1  0.58800059  0.58568934  0.05920837  1
  Te  Te139  1  0.57524460  0.58637582  0.43988749  1
  Te  Te140  1  0.57697108  0.57575083  0.77635241  1
  Te  Te141  1  0.56762438  0.92877833  0.11023239  1
  Te  Te142  1  0.60615642  0.91946585  0.41703768  1
  Te  Te143  1  0.59488109  0.90163198  0.76782644  1
  Te  Te144  1  0.88718620  0.23520432  0.10084576  1
  Te  Te145  1  0.89025907  0.26915688  0.37270540  1
  Te  Te146  1  0.89250428  0.23842639  0.78065124  1
  Te  Te147  1  0.91769630  0.59574032  0.08333401  1
  Te  Te148  1  0.92904805  0.58617825  0.40950374  1
  Te  Te149  1  0.90255899  0.56925848  0.72574925  1
  Te  Te150  1  0.87967800  0.95708029  0.05914723  1
  Te  Te151  1  0.91140569  0.90889869  0.38912821  1
  Te  Te152  1  0.91505269  0.92731472  0.73780917  1
  Te  Te153  1  0.25558989  0.07624015  0.27119758  1
  Te  Te154  1  0.25264469  0.07108183  0.59744894  1
  Te  Te155  1  0.25261029  0.09064023  0.92893751  1
  Te  Te156  1  0.25461828  0.42346624  0.25485406  1
  Te  Te157  1  0.26868649  0.44371573  0.56658618  1
  Te  Te158  1  0.23278573  0.42636801  0.91414808  1
  Te  Te159  1  0.29194665  0.73056695  0.24878763  1
  Te  Te160  1  0.24868625  0.74701558  0.58199388  1
  Te  Te161  1  0.27845056  0.75911389  0.91059934  1
  Te  Te162  1  0.56400618  0.07525786  0.23995206  1
  Te  Te163  1  0.57347616  0.08828015  0.58925994  1
  Te  Te164  1  0.57839264  0.09612339  0.93209967  1
  Te  Te165  1  0.59490610  0.42049316  0.24815222  1
  Te  Te166  1  0.56934453  0.42103555  0.60771308  1
  Te  Te167  1  0.59304776  0.38757696  0.90550811  1
  Te  Te168  1  0.59437564  0.75291852  0.25898654  1
  Te  Te169  1  0.55802430  0.75672649  0.59892853  1
  Te  Te170  1  0.63642445  0.76946418  0.92859557  1
  Te  Te171  1  0.87058682  0.08668806  0.18860582  1
  Te  Te172  1  0.89889703  0.10824714  0.56142577  1
  Te  Te173  1  0.92782650  0.04545013  0.94175551  1
  Te  Te174  1  0.92650699  0.39008869  0.28067322  1
  Te  Te175  1  0.90259624  0.38023078  0.58651795  1
  Te  Te176  1  0.92608738  0.40998154  0.91326383  1
  Te  Te177  1  0.91399824  0.77460619  0.20355514  1
  Te  Te178  1  0.92686351  0.75470587  0.57322564  1
  Te  Te179  1  0.88853181  0.77476804  0.92118258  1
