# generated using pymatgen
data_In2Te3
_symmetry_space_group_name_H-M   'P 1'
_cell_length_a   18.98144016
_cell_length_b   18.99878218
_cell_length_c   18.95649512
_cell_angle_alpha   89.93736254
_cell_angle_beta   89.94347474
_cell_angle_gamma   89.99265143
_symmetry_Int_Tables_number   1
_chemical_formula_structural   In2Te3
_chemical_formula_sum   'In72 Te108'
_cell_volume   6836.16431230
_cell_formula_units_Z   36
loop_
 _symmetry_equiv_pos_site_id
 _symmetry_equiv_pos_as_xyz
  1  'x, y, z'
loop_
 _atom_site_type_symbol
 _atom_site_label
 _atom_site_symmetry_multiplicity
 _atom_site_fract_x
 _atom_site_fract_y
 _atom_site_fract_z
 _atom_site_occupancy
  In  In0  1  0.68234983  0.01345678  -0.02109938  1
  In  In1  1  0.47367301  0.68981899  0.14802507  1
  In  In2  1  0.34085599  0.52033762  0.17259156  1
  In  In3  1  0.63978668  0.17703145  0.52029379  1
  In  In4  1  0.00370031  -0.01423559  0.66402027  1
  In  In5  1  0.34664512  0.68069956  0.66485415  1
  In  In6  1  0.00049666  0.12951952  0.50502129  1
  In  In7  1  0.33225684  0.49327350  0.47878237  1
  In  In8  1  0.67167475  0.80783730  0.82156487  1
  In  In9  1  -0.00215815  0.31667705  0.66546268  1
  In  In10  1  0.81258648  -0.02606661  0.16532468  1
  In  In11  1  0.83165691  0.18524284  -0.02069149  1
  In  In12  1  0.33871526  0.52098020  0.80986764  1
  In  In13  1  0.83014264  0.33571377  0.48579773  1
  In  In14  1  0.00686210  -0.02438047  0.31766900  1
  In  In15  1  0.48299133  0.51005068  -0.00720820  1
  In  In16  1  -0.01545356  0.48007826  0.14050067  1
  In  In17  1  0.34283993  0.31435691  0.34495296  1
  In  In18  1  0.16826292  0.51581275  0.32613386  1
  In  In19  1  0.01129731  0.81009463  0.16744411  1
  In  In20  1  0.46464231  0.84588217  0.01638019  1
  In  In21  1  0.67662669  0.68414863  -0.00279316  1
  In  In22  1  0.81149897  0.57801087  0.66809826  1
  In  In23  1  0.32303103  -0.01496410  0.31123721  1
  In  In24  1  0.17789521  0.65842952  0.16783548  1
  In  In25  1  0.47603708  -0.00909064  0.84553932  1
  In  In26  1  0.15927144  0.66733941  0.83885693  1
  In  In27  1  0.66003379  0.20688457  0.84813148  1
  In  In28  1  0.28654157  -0.02154283  0.03383878  1
  In  In29  1  0.82745127  0.34117599  0.14761488  1
  In  In30  1  0.86132456  0.80950332  0.67429422  1
  In  In31  1  -0.02180059  0.15728951  0.17601654  1
  In  In32  1  0.33049857  0.33197358  0.00526900  1
  In  In33  1  0.52480548  0.52756467  0.68033213  1
  In  In34  1  0.82859135  -0.00351480  0.80882049  1
  In  In35  1  0.66232200  0.01348762  0.65744688  1
  In  In36  1  -0.00278926  0.16401063  0.83323850  1
  In  In37  1  0.53649161  0.32283248  0.18204417  1
  In  In38  1  0.49236493  0.02584611  0.18000025  1
  In  In39  1  0.16630170  -0.02611469  0.49369738  1
  In  In40  1  0.67928663  0.33639392  0.67461222  1
  In  In41  1  0.84144811  0.51381005  0.32483475  1
  In  In42  1  0.49595846  0.18558813  0.02765527  1
  In  In43  1  0.15613652  0.32551877  0.48906447  1
  In  In44  1  0.87468975  0.82343497  0.00152315  1
  In  In45  1  0.00075747  0.63335300  -0.00879085  1
  In  In46  1  0.52777278  0.36487723  0.82682792  1
  In  In47  1  0.80859964  0.81890498  0.33477041  1
  In  In48  1  -0.03079652  0.47746201  0.82193858  1
  In  In49  1  0.49319964  0.83084490  0.66646354  1
  In  In50  1  0.51040732  0.84214836  0.35036020  1
  In  In51  1  0.49804418  0.35858132  0.51061519  1
  In  In52  1  0.31241941  0.33736467  0.64052394  1
  In  In53  1  0.01169278  0.51810569  0.50918913  1
  In  In54  1  0.33084296  0.16400646  0.84124109  1
  In  In55  1  0.64403495  0.83294637  0.16394098  1
  In  In56  1  0.14917221  0.17242183  0.02148367  1
  In  In57  1  0.52251871  0.67969459  0.49607993  1
  In  In58  1  0.17322855  0.33425436  0.83531843  1
  In  In59  1  0.17005317  -0.03161297  0.81646205  1
  In  In60  1  0.82072776  0.17035462  0.36440393  1
  In  In61  1  0.04834223  0.01223463  -0.00412221  1
  In  In62  1  0.68516455  0.50488925  0.85270539  1
  In  In63  1  0.68801813  0.37505651  0.31922347  1
  In  In64  1  0.81293237  -0.02696574  0.49415770  1
  In  In65  1  0.32273714  0.13452974  0.49321071  1
  In  In66  1  0.68154319  0.65296644  0.35487351  1
  In  In67  1  0.00593715  0.68241440  0.35031929  1
  In  In68  1  0.51464583  0.17302228  0.34279449  1
  In  In69  1  0.14238780  0.32771563  0.17576119  1
  In  In70  1  0.32504149  -0.03895194  0.66674365  1
  In  In71  1  0.16599327  0.67697391  0.50728583  1
  Te  Te72  1  0.09801311  0.07108613  0.12939109  1
  Te  Te73  1  0.09178017  0.06981702  0.39966125  1
  Te  Te74  1  0.08978200  0.07760946  0.74946808  1
  Te  Te75  1  0.09409054  0.41404336  0.06804936  1
  Te  Te76  1  0.07600269  0.42577291  0.40681736  1
  Te  Te77  1  0.08692656  0.41290521  0.73952458  1
  Te  Te78  1  0.09039190  0.73192424  0.06572081  1
  Te  Te79  1  0.11697113  0.76602430  0.39736595  1
  Te  Te80  1  0.05890907  0.76988439  0.80352415  1
  Te  Te81  1  0.40143153  0.07630436  0.07006541  1
  Te  Te82  1  0.42000406  0.06888963  0.39882264  1
  Te  Te83  1  0.40191129  0.07431707  0.74355645  1
  Te  Te84  1  0.42613462  0.40899092  0.09563479  1
  Te  Te85  1  0.43502920  0.42589550  0.38900921  1
  Te  Te86  1  0.41292985  0.40962412  0.73168656  1
  Te  Te87  1  0.36211241  0.73993503  0.05751214  1
  Te  Te88  1  0.42103599  0.77316196  0.44544386  1
  Te  Te89  1  0.42090612  0.75404101  0.76696568  1
  Te  Te90  1  0.76208459  0.08996758  0.08225105  1
  Te  Te91  1  0.72215386  0.07952476  0.43328149  1
  Te  Te92  1  0.73390711  0.10106425  0.76168977  1
  Te  Te93  1  0.80127797  0.45228473  0.05255459  1
  Te  Te94  1  0.74981973  0.45131570  0.43412837  1
  Te  Te95  1  0.76224080  0.44689031  0.73439375  1
  Te  Te96  1  0.76076003  0.76995440  0.09214170  1
  Te  Te97  1  0.75490050  0.74186193  0.45170439  1
  Te  Te98  1  0.77349658  0.71973451  0.75824815  1
  Te  Te99  1  0.06893696  0.23433688  0.26096612  1
  Te  Te100  1  0.08831522  0.22751409  0.58306149  1
  Te  Te101  1  0.07350140  0.26007648  0.92214186  1
  Te  Te102  1  0.05923154  0.58096770  0.24292135  1
  Te  Te103  1  0.05637333  0.62969800  0.60033566  1
  Te  Te104  1  0.08184761  0.54734849  0.89806494  1
  Te  Te105  1  0.10500824  0.87862379  0.26135181  1
  Te  Te106  1  0.06385692  0.88913994  0.56806843  1
  Te  Te107  1  0.11201895  0.89698545  0.93162379  1
  Te  Te108  1  0.42111305  0.23761353  0.24169941  1
  Te  Te109  1  0.40479290  0.24960140  0.55815294  1
  Te  Te110  1  0.42702687  0.26490003  0.90504184  1
  Te  Te111  1  0.40857782  0.61610572  0.25830907  1
  Te  Te112  1  0.41595319  0.57074212  0.57923795  1
  Te  Te113  1  0.40822120  0.60885887  0.90899637  1
  Te  Te114  1  0.42966109  0.90215596  0.23490775  1
  Te  Te115  1  0.42319369  0.91309511  0.56745951  1
  Te  Te116  1  0.36889214  0.91345864  0.91852330  1
  Te  Te117  1  0.75790404  0.25559463  0.25714769  1
  Te  Te118  1  0.75953555  0.24444011  0.58470753  1
  Te  Te119  1  0.77356090  0.29181497  0.89349589  1
  Te  Te120  1  0.74606617  0.58576252  0.24048961  1
  Te  Te121  1  0.72244924  0.64271053  0.57129920  1
  Te  Te122  1  0.76993249  0.61209796  0.90971432  1
  Te  Te123  1  0.71118363  0.92469658  0.27429693  1
  Te  Te124  1  0.75134427  0.89933402  0.61132006  1
  Te  Te125  1  0.76395892  0.89976433  0.91700681  1
  Te  Te126  1  0.25491171  0.24569682  0.10123934  1
  Te  Te127  1  0.23682116  0.22588873  0.40622358  1
  Te  Te128  1  0.24686598  0.24255368  0.73999966  1
  Te  Te129  1  0.22840136  0.54681376  0.08418441  1
  Te  Te130  1  0.25948766  0.60465573  0.40615529  1
  Te  Te131  1  0.23639586  0.59301175  0.72836072  1
  Te  Te132  1  0.22940851  0.89273360  0.14172579  1
  Te  Te133  1  0.26073215  0.89695846  0.41144020  1
  Te  Te134  1  0.23075585  0.86455577  0.73026570  1
  Te  Te135  1  0.61337758  0.25348145  0.07752529  1
  Te  Te136  1  0.59779689  0.28363574  0.41472667  1
  Te  Te137  1  0.56855559  0.25114194  0.73387308  1
  Te  Te138  1  0.57249103  0.60177060  0.07433240  1
  Te  Te139  1  0.57736291  0.57053263  0.41700942  1
  Te  Te140  1  0.58607564  0.59640494  0.79159741  1
  Te  Te141  1  0.58453269  0.93621468  0.06849849  1
  Te  Te142  1  0.62110304  0.91943906  0.40228326  1
  Te  Te143  1  0.59052266  0.92664940  0.76775637  1
  Te  Te144  1  0.92897215  0.25508157  0.07244623  1
  Te  Te145  1  0.93621598  0.24456634  0.42594872  1
  Te  Te146  1  0.90542171  0.24064071  0.74993655  1
  Te  Te147  1  0.89480646  0.58507740  0.08462799  1
  Te  Te148  1  0.91029848  0.59963754  0.43208423  1
  Te  Te149  1  0.94424440  0.59164177  0.72895358  1
  Te  Te150  1  0.93893363  0.92954614  0.09338724  1
  Te  Te151  1  0.91523597  0.89801469  0.41065803  1
  Te  Te152  1  0.94099755  0.90330842  0.77547865  1
  Te  Te153  1  0.24134371  0.04574050  0.20451189  1
  Te  Te154  1  0.23687976  0.06332843  0.59435978  1
  Te  Te155  1  0.23268236  0.08602189  0.92558700  1
  Te  Te156  1  0.25444981  0.40865801  0.26066711  1
  Te  Te157  1  0.22328082  0.43662117  0.56878711  1
  Te  Te158  1  0.26548207  0.42811178  0.90961485  1
  Te  Te159  1  0.28017753  0.75945790  0.20376752  1
  Te  Te160  1  0.24720197  0.76692510  0.59414186  1
  Te  Te161  1  0.26949389  0.68925108  0.93551345  1
  Te  Te162  1  0.59734607  0.10199385  0.24480442  1
  Te  Te163  1  0.55433695  0.07696162  0.58284576  1
  Te  Te164  1  0.56775446  0.09542413  0.91421876  1
  Te  Te165  1  0.61217984  0.44402124  0.21500946  1
  Te  Te166  1  0.60215849  0.43589104  0.58852774  1
  Te  Te167  1  0.59675993  0.41870074  0.94757231  1
  Te  Te168  1  0.58216169  0.73279074  0.25669244  1
  Te  Te169  1  0.59741148  0.73780451  0.61111265  1
  Te  Te170  1  0.57187515  0.77383935  0.93192096  1
  Te  Te171  1  0.88682599  0.06661292  0.27021371  1
  Te  Te172  1  0.89515471  0.06214348  0.58981629  1
  Te  Te173  1  0.91778413  0.06560358  0.92333236  1
  Te  Te174  1  0.91730961  0.40341726  0.25387327  1
  Te  Te175  1  0.92220146  0.41493868  0.57767110  1
  Te  Te176  1  0.88460727  0.41651583  0.92849338  1
  Te  Te177  1  0.90556070  0.73897498  0.24962326  1
  Te  Te178  1  0.96542245  0.76827360  0.57920801  1
  Te  Te179  1  0.94071264  0.73760437  0.89843008  1
