# generated using pymatgen
data_In2Te3
_symmetry_space_group_name_H-M   'P 1'
_cell_length_a   18.79520180
_cell_length_b   18.78901049
_cell_length_c   18.79371697
_cell_angle_alpha   90.03183369
_cell_angle_beta   89.93127297
_cell_angle_gamma   90.05119006
_symmetry_Int_Tables_number   1
_chemical_formula_structural   In2Te3
_chemical_formula_sum   'In72 Te108'
_cell_volume   6636.86572758
_cell_formula_units_Z   36
loop_
 _symmetry_equiv_pos_site_id
 _symmetry_equiv_pos_as_xyz
  1  'x, y, z'
loop_
 _atom_site_type_symbol
 _atom_site_label
 _atom_site_symmetry_multiplicity
 _atom_site_fract_x
 _atom_site_fract_y
 _atom_site_fract_z
 _atom_site_occupancy
  In  In0  1  0.84291474  0.65096103  0.84849288  1
  In  In1  1  0.33926329  0.65493330  0.67370014  1
  In  In2  1  0.67422961  0.00890030  0.01550678  1
  In  In3  1  0.18286170  0.33107251  0.49474394  1
  In  In4  1  0.33943448  0.65914382  0.01906372  1
  In  In5  1  0.63475904  0.50070739  0.18055228  1
  In  In6  1  0.15294266  -0.01685414  0.48242948  1
  In  In7  1  0.34808366  0.18165158  0.49932077  1
  In  In8  1  0.82188004  0.33706750  0.17537201  1
  In  In9  1  0.47907078  0.84026394  0.32144117  1
  In  In10  1  0.61870223  0.86708799  0.82750611  1
  In  In11  1  0.01330539  0.49175228  0.85565935  1
  In  In12  1  -0.00670228  0.16135200  0.17938279  1
  In  In13  1  0.49059262  0.50789700  0.33782034  1
  In  In14  1  0.85184515  0.50095603  0.00542942  1
  In  In15  1  0.82141717  -0.00582287  0.49966649  1
  In  In16  1  0.18601035  0.02443367  0.83493060  1
  In  In17  1  0.67061065  0.00346356  0.31241363  1
  In  In18  1  0.66329499  0.30302414  0.00084041  1
  In  In19  1  0.17155178  0.68583423  0.49112908  1
  In  In20  1  0.49951354  0.49768429  0.02492250  1
  In  In21  1  -0.00764241  0.17996358  0.83552356  1
  In  In22  1  0.17869136  0.51250080  0.66977811  1
  In  In23  1  0.49940663  0.82758779  0.01385317  1
  In  In24  1  0.00333877  0.32230243  0.00321904  1
  In  In25  1  0.49144757  0.66967420  0.86414006  1
  In  In26  1  0.81781084  0.82843782  0.01931821  1
  In  In27  1  0.49849920  0.01524494  0.50338955  1
  In  In28  1  0.66503915  0.83266779  0.16654837  1
  In  In29  1  0.80617955  0.49331029  0.64825819  1
  In  In30  1  0.18055923  0.17256548  0.67476850  1
  In  In31  1  -0.01046150  0.33267074  0.67518749  1
  In  In32  1  0.67500947  0.67578092  0.66115653  1
  In  In33  1  0.64794146  0.16222922  0.16136976  1
  In  In34  1  0.32879056  0.68234380  0.30019917  1
  In  In35  1  0.18700564  0.16606761  -0.00887739  1
  In  In36  1  0.66493109  0.66692107  0.32862404  1
  In  In37  1  0.67280278  0.82004823  0.50029219  1
  In  In38  1  0.65827841  0.15827468  0.84483563  1
  In  In39  1  0.68412597  0.49674695  0.83331550  1
  In  In40  1  -0.00213835  0.00042655  0.62128853  1
  In  In41  1  0.49115225  0.16399810  0.65949328  1
  In  In42  1  0.51079418  0.48077075  0.66796546  1
  In  In43  1  0.66572847  0.33231375  0.62949738  1
  In  In44  1  -0.01139351  0.65925035  0.33713118  1
  In  In45  1  0.34923679  0.49303566  0.49828410  1
  In  In46  1  -0.01029497  -0.01287207  -0.00442109  1
  In  In47  1  -0.01395009  0.14826371  0.48616082  1
  In  In48  1  0.17012377  0.33966654  0.14002431  1
  In  In49  1  0.81958570  0.02045311  0.81943601  1
  In  In50  1  0.81609998  0.17052172  0.33184597  1
  In  In51  1  -0.00549249  0.33568025  0.31153209  1
  In  In52  1  0.47681979  0.33943219  0.82831329  1
  In  In53  1  0.35054924  0.84460549  0.84773489  1
  In  In54  1  0.35287372  0.02503815  0.33638473  1
  In  In55  1  0.81508719  0.65952049  0.48265454  1
  In  In56  1  0.18293666  -0.01194763  0.16706605  1
  In  In57  1  0.00519821  0.83101586  0.16402041  1
  In  In58  1  0.35280102  0.84758894  0.49158502  1
  In  In59  1  0.33195258  0.15362549  0.84071942  1
  In  In60  1  0.83736431  0.84110314  0.64991650  1
  In  In61  1  -0.00116902  0.68285930  0.69353265  1
  In  In62  1  0.02076154  0.81714506  0.81162468  1
  In  In63  1  0.15879622  0.49548943  0.32173777  1
  In  In64  1  0.34366172  0.00796624  0.67082892  1
  In  In65  1  0.34154739  0.30199254  0.30723095  1
  In  In66  1  -0.02764241  0.51671488  0.50055855  1
  In  In67  1  0.00403012  0.84003638  0.47363972  1
  In  In68  1  0.18791624  0.84344933  0.02258734  1
  In  In69  1  0.34592899  0.33316477  0.01307519  1
  In  In70  1  0.01487731  0.67539373  0.03052355  1
  In  In71  1  0.17933088  0.50568054  0.00592472  1
  Te  Te72  1  0.08188112  0.08652495  0.06985319  1
  Te  Te73  1  0.07835075  0.07672818  0.39632621  1
  Te  Te74  1  0.07436678  0.07652921  0.74086368  1
  Te  Te75  1  0.06473914  0.43423119  0.08570340  1
  Te  Te76  1  0.07593964  0.41915656  0.43029817  1
  Te  Te77  1  0.09381139  0.41241695  0.75229787  1
  Te  Te78  1  0.13092402  0.73600917  0.11844011  1
  Te  Te79  1  0.10103730  0.76308622  0.38129586  1
  Te  Te80  1  0.12548621  0.73377182  0.74862043  1
  Te  Te81  1  0.41874250  0.14707671  0.11020444  1
  Te  Te82  1  0.45308449  0.12404107  0.40571708  1
  Te  Te83  1  0.44274247  0.06826719  0.77033777  1
  Te  Te84  1  0.41966427  0.41132173  0.11450982  1
  Te  Te85  1  0.41452333  0.38779580  0.40991007  1
  Te  Te86  1  0.39756544  0.43889166  0.75360363  1
  Te  Te87  1  0.41206588  0.75311412  0.10714533  1
  Te  Te88  1  0.41883864  0.73382332  0.41411464  1
  Te  Te89  1  0.42936748  0.75251422  0.75330579  1
  Te  Te90  1  0.76211399  0.09172871  0.09995990  1
  Te  Te91  1  0.72517017  0.08888996  0.42625646  1
  Te  Te92  1  0.72437355  0.08784116  0.73105487  1
  Te  Te93  1  0.73432947  0.41739857  0.07555342  1
  Te  Te94  1  0.71580387  0.38237324  0.45627498  1
  Te  Te95  1  0.75261014  0.39254769  0.74817116  1
  Te  Te96  1  0.75168239  0.72813619  0.10315611  1
  Te  Te97  1  0.76771445  0.77112210  0.39312054  1
  Te  Te98  1  0.76982873  0.75015660  0.75494239  1
  Te  Te99  1  0.09924527  0.25046830  0.24463600  1
  Te  Te100  1  0.08346117  0.24175195  0.57733306  1
  Te  Te101  1  0.10347773  0.25942639  0.90418747  1
  Te  Te102  1  0.06914166  0.57917711  0.24200185  1
  Te  Te103  1  0.08244908  0.59183002  0.57733072  1
  Te  Te104  1  0.09122581  0.60384503  0.91890261  1
  Te  Te105  1  0.07490006  0.92941848  0.24898587  1
  Te  Te106  1  0.09380066  0.88816794  0.58897232  1
  Te  Te107  1  0.09629023  0.91333522  0.91442852  1
  Te  Te108  1  0.44889200  0.21787967  0.23544016  1
  Te  Te109  1  0.41712631  0.27249171  0.59161241  1
  Te  Te110  1  0.42837183  0.23369147  0.92691055  1
  Te  Te111  1  0.40663786  0.57498034  0.23325515  1
  Te  Te112  1  0.43739085  0.58616165  0.57982145  1
  Te  Te113  1  0.40550190  0.55924685  0.92038944  1
  Te  Te114  1  0.39936885  0.92747730  0.23069372  1
  Te  Te115  1  0.44139067  0.91007160  0.60198646  1
  Te  Te116  1  0.44021788  0.93243047  0.92552108  1
  Te  Te117  1  0.71783031  0.26649087  0.26126110  1
  Te  Te118  1  0.74341580  0.25157054  0.53150498  1
  Te  Te119  1  0.76261161  0.23770480  0.91542760  1
  Te  Te120  1  0.74452445  0.56093604  0.26068378  1
  Te  Te121  1  0.71431722  0.57001866  0.55506406  1
  Te  Te122  1  0.74034268  0.58929295  0.94075755  1
  Te  Te123  1  0.76269347  0.91095774  0.24699236  1
  Te  Te124  1  0.72446431  0.92660318  0.59939174  1
  Te  Te125  1  0.75048339  0.91303448  0.90718915  1
  Te  Te126  1  0.27040919  0.22355408  0.10540661  1
  Te  Te127  1  0.24147278  0.22898687  0.40007247  1
  Te  Te128  1  0.27128805  0.25611540  0.75289212  1
  Te  Te129  1  0.26150100  0.57044201  0.11051584  1
  Te  Te130  1  0.25266161  0.57827875  0.41469364  1
  Te  Te131  1  0.25451375  0.58491660  0.77322180  1
  Te  Te132  1  0.29584216  0.91294444  0.10003476  1
  Te  Te133  1  0.25725992  0.91389842  0.39607277  1
  Te  Te134  1  0.25109714  0.91655040  0.74937598  1
  Te  Te135  1  0.55063528  0.25417967  0.08834774  1
  Te  Te136  1  0.62093542  0.28643810  0.39907567  1
  Te  Te137  1  0.58105876  0.26352541  0.74631610  1
  Te  Te138  1  0.57789603  0.60365272  0.09030735  1
  Te  Te139  1  0.58455022  0.58607204  0.42327764  1
  Te  Te140  1  0.58608843  0.58964866  0.76012779  1
  Te  Te141  1  0.57189143  0.93338149  0.10047132  1
  Te  Te142  1  0.57846989  0.91266711  0.41302511  1
  Te  Te143  1  0.55388256  0.94613112  0.72571643  1
  Te  Te144  1  0.90288014  0.24258730  0.08643370  1
  Te  Te145  1  0.91066837  0.26075297  0.41361949  1
  Te  Te146  1  0.89789689  0.23565788  0.73733183  1
  Te  Te147  1  0.90743737  0.60095095  0.09928875  1
  Te  Te148  1  0.87602364  0.55348853  0.39127950  1
  Te  Te149  1  0.91749827  0.56045553  0.74180303  1
  Te  Te150  1  0.89833999  0.92964470  0.10042004  1
  Te  Te151  1  0.91626852  0.93491492  0.40230259  1
  Te  Te152  1  0.92500420  0.92120017  0.74884055  1
  Te  Te153  1  0.24937741  0.09042300  0.25239558  1
  Te  Te154  1  0.25131019  0.07512073  0.56823967  1
  Te  Te155  1  0.28122198  0.05372349  0.94826556  1
  Te  Te156  1  0.25882033  0.41341321  0.24119481  1
  Te  Te157  1  0.26523284  0.40916583  0.59512291  1
  Te  Te158  1  0.24270520  0.39697933  0.92791939  1
  Te  Te159  1  0.21950476  0.76256245  0.24525283  1
  Te  Te160  1  0.26736259  0.75890237  0.58339423  1
  Te  Te161  1  0.25808102  0.75013830  0.92437664  1
  Te  Te162  1  0.55876834  0.07860091  0.24921281  1
  Te  Te163  1  0.59409996  0.10783085  0.56847222  1
  Te  Te164  1  0.57197738  0.07929523  0.93555657  1
  Te  Te165  1  0.57721411  0.39961537  0.27634419  1
  Te  Te166  1  0.56788940  0.41148663  0.54763962  1
  Te  Te167  1  0.58311468  0.41512027  0.91539048  1
  Te  Te168  1  0.56518942  0.74280530  0.24179299  1
  Te  Te169  1  0.57416309  0.74648112  0.58114020  1
  Te  Te170  1  0.60311800  0.75247471  0.92671994  1
  Te  Te171  1  0.91414394  0.07647013  0.27102229  1
  Te  Te172  1  0.88746331  0.09944902  0.59298425  1
  Te  Te173  1  0.90463646  0.09210504  0.92527216  1
  Te  Te174  1  0.91644757  0.43333022  0.23535382  1
  Te  Te175  1  0.90121826  0.40154840  0.57040460  1
  Te  Te176  1  0.90691297  0.39654369  0.90744363  1
  Te  Te177  1  0.91273289  0.74693425  0.24466730  1
  Te  Te178  1  0.92054395  0.73755091  0.56569955  1
  Te  Te179  1  0.92653941  0.75804066  0.92361215  1
