# generated using pymatgen
data_In2Te3
_symmetry_space_group_name_H-M   'P 1'
_cell_length_a   18.97250045
_cell_length_b   18.96461510
_cell_length_c   18.96311881
_cell_angle_alpha   89.96530167
_cell_angle_beta   90.18421730
_cell_angle_gamma   90.17514474
_symmetry_Int_Tables_number   1
_chemical_formula_structural   In2Te3
_chemical_formula_sum   'In72 Te108'
_cell_volume   6822.97876424
_cell_formula_units_Z   36
loop_
 _symmetry_equiv_pos_site_id
 _symmetry_equiv_pos_as_xyz
  1  'x, y, z'
loop_
 _atom_site_type_symbol
 _atom_site_label
 _atom_site_symmetry_multiplicity
 _atom_site_fract_x
 _atom_site_fract_y
 _atom_site_fract_z
 _atom_site_occupancy
  In  In0  1  0.84437033  0.00325988  0.48265600  1
  In  In1  1  -0.00715914  0.32744262  0.65882943  1
  In  In2  1  0.00291853  0.32540582  0.32861515  1
  In  In3  1  0.50160002  0.49623824  0.67362824  1
  In  In4  1  0.47763510  0.48306488  -0.00408858  1
  In  In5  1  0.65518734  0.48924249  0.82355262  1
  In  In6  1  0.01237825  0.00076195  0.66972676  1
  In  In7  1  0.12508102  0.49794415  0.34539043  1
  In  In8  1  0.03643477  0.69486647  0.35351777  1
  In  In9  1  0.51586376  0.67558093  0.47610255  1
  In  In10  1  0.84178551  0.29763503  0.17967831  1
  In  In11  1  0.15329652  0.83720239  -0.00187055  1
  In  In12  1  0.85309192  0.52640943  0.35500382  1
  In  In13  1  0.51271206  0.30388865  0.16081134  1
  In  In14  1  0.49970786  -0.00927597  0.47955027  1
  In  In15  1  0.65583167  0.49982496  0.15675783  1
  In  In16  1  0.31870602  0.35041812  0.68273348  1
  In  In17  1  0.50945657  0.66194894  0.85127716  1
  In  In18  1  0.85655166  0.68832715  0.18751946  1
  In  In19  1  0.31810801  0.02191924  0.65612725  1
  In  In20  1  0.33183124  0.33255745  0.00352392  1
  In  In21  1  0.00243785  0.15834610  0.49057273  1
  In  In22  1  0.30777806  -0.01086437  0.35323360  1
  In  In23  1  0.15529636  0.65738975  0.81679460  1
  In  In24  1  0.34385795  0.31383914  0.32439196  1
  In  In25  1  0.63713967  0.13720069  0.45174945  1
  In  In26  1  0.68938419  0.69843429  0.33008778  1
  In  In27  1  0.31408260  0.12594961  0.86548069  1
  In  In28  1  0.14803301  0.51492275  0.63945288  1
  In  In29  1  0.83542549  0.47421778  0.00272622  1
  In  In30  1  0.68080024  0.30766093  0.33151578  1
  In  In31  1  0.85209539  0.67417606  0.82532354  1
  In  In32  1  0.33599689  0.12822392  0.14497625  1
  In  In33  1  0.48778173  0.30498785  0.82967478  1
  In  In34  1  0.01233972  0.13614200  0.84472107  1
  In  In35  1  0.65268763  0.01815542  0.65789046  1
  In  In36  1  0.33553561  0.87188961  0.84259325  1
  In  In37  1  0.67627887  0.80090094  0.83996590  1
  In  In38  1  0.65622696  0.66955851  -0.01157584  1
  In  In39  1  0.51208373  -0.00139369  0.85979128  1
  In  In40  1  0.00877286  -0.00346228  0.01019995  1
  In  In41  1  0.83050576  -0.01466433  0.81601595  1
  In  In42  1  0.14410013  0.01294685  0.17073010  1
  In  In43  1  0.83770775  0.85714484  0.02640809  1
  In  In44  1  0.33040130  0.87308365  0.16561393  1
  In  In45  1  0.86423698  0.57818620  0.61654109  1
  In  In46  1  0.00073321  0.32817549  0.00315393  1
  In  In47  1  0.68825395  0.83066907  0.48329208  1
  In  In48  1  0.31184054  0.68708952  0.67190306  1
  In  In49  1  0.31651602  0.18420697  0.50581553  1
  In  In50  1  0.32043865  0.51888727  0.50808516  1
  In  In51  1  0.65661999  0.32934114  0.66436436  1
  In  In52  1  0.49597492  0.83337516  0.30671710  1
  In  In53  1  0.32602992  0.69683693  0.02384554  1
  In  In54  1  0.01208396  0.68357491  -0.01584742  1
  In  In55  1  0.82408551  0.19869215  0.66964620  1
  In  In56  1  0.16880330  0.31480269  0.18110359  1
  In  In57  1  0.49315955  0.84462962  0.65880645  1
  In  In58  1  0.00899423  -0.01869368  0.33289926  1
  In  In59  1  0.64488745  0.28356037  0.01620078  1
  In  In60  1  0.81601130  0.33023884  0.86385789  1
  In  In61  1  0.15211863  0.82571543  0.63746870  1
  In  In62  1  0.50273512  0.53049702  0.32515278  1
  In  In63  1  0.85199265  0.32129618  0.49486648  1
  In  In64  1  0.67542458  0.02739377  0.03048088  1
  In  In65  1  0.17588908  0.33708146  0.83804672  1
  In  In66  1  0.00332954  0.49836938  0.15147611  1
  In  In67  1  0.30332261  0.70020172  0.32656186  1
  In  In68  1  0.86042117  0.81602194  0.63557353  1
  In  In69  1  0.48958148  0.35298449  0.51561253  1
  In  In70  1  0.30621557  0.52460319  0.16866363  1
  In  In71  1  0.67766595  0.85531164  0.18330431  1
  Te  Te72  1  0.06314398  0.10862682  0.09134148  1
  Te  Te73  1  0.09313745  0.06986350  0.41862108  1
  Te  Te74  1  0.09951786  0.10266644  0.73088459  1
  Te  Te75  1  0.10281247  0.41118110  0.08161190  1
  Te  Te76  1  0.06240217  0.40307455  0.43692612  1
  Te  Te77  1  0.08915239  0.41500594  0.73755460  1
  Te  Te78  1  0.06094778  0.76992359  0.09370101  1
  Te  Te79  1  0.12440799  0.78056055  0.43953756  1
  Te  Te80  1  0.07072264  0.73906429  0.72760521  1
  Te  Te81  1  0.42334864  0.06100628  0.05011871  1
  Te  Te82  1  0.40168072  0.08996861  0.41995987  1
  Te  Te83  1  0.41592454  0.07071469  0.76668421  1
  Te  Te84  1  0.41092441  0.41529745  0.11644098  1
  Te  Te85  1  0.41418871  0.43901247  0.40931251  1
  Te  Te86  1  0.41540026  0.42558186  0.77540297  1
  Te  Te87  1  0.42069407  0.77875812  0.09772130  1
  Te  Te88  1  0.41301088  0.76527639  0.41289357  1
  Te  Te89  1  0.41954459  0.75374811  0.75739904  1
  Te  Te90  1  0.78353243  0.03962566  0.13429564  1
  Te  Te91  1  0.75705402  0.07025768  0.38189559  1
  Te  Te92  1  0.74635926  0.09367808  0.75050516  1
  Te  Te93  1  0.74168302  0.39395091  0.09064778  1
  Te  Te94  1  0.76624641  0.41151182  0.40583414  1
  Te  Te95  1  0.75715436  0.40951986  0.74679836  1
  Te  Te96  1  0.74938725  0.74295384  0.08424550  1
  Te  Te97  1  0.79553771  0.73650571  0.43159897  1
  Te  Te98  1  0.75865494  0.74399127  0.72829233  1
  Te  Te99  1  0.06638032  0.22784718  0.24031794  1
  Te  Te100  1  0.08064749  0.22853529  0.59642658  1
  Te  Te101  1  0.09418641  0.24044461  0.92145996  1
  Te  Te102  1  0.07728886  0.59568536  0.23947709  1
  Te  Te103  1  0.06947640  0.60790571  0.55684993  1
  Te  Te104  1  0.08207214  0.57765550  0.91483540  1
  Te  Te105  1  0.11503338  0.89948507  0.26357493  1
  Te  Te106  1  0.05844540  0.91292026  0.55862496  1
  Te  Te107  1  0.09469281  0.93652867  0.90033353  1
  Te  Te108  1  0.42134732  0.21544431  0.24462942  1
  Te  Te109  1  0.41222862  0.26077676  0.60433760  1
  Te  Te110  1  0.41398513  0.22693640  0.93359823  1
  Te  Te111  1  0.40318166  0.61213196  0.24639114  1
  Te  Te112  1  0.42920151  0.59628241  0.58223215  1
  Te  Te113  1  0.40032223  0.59341338  0.92788677  1
  Te  Te114  1  0.42260700  0.95415516  0.25571946  1
  Te  Te115  1  0.40021454  0.92175915  0.57157080  1
  Te  Te116  1  0.41130382  0.93863634  0.95413365  1
  Te  Te117  1  0.72986141  0.21559338  0.22843624  1
  Te  Te118  1  0.73283843  0.24299105  0.55687122  1
  Te  Te119  1  0.76164740  0.22541462  0.95044820  1
  Te  Te120  1  0.75438440  0.57958784  0.24208852  1
  Te  Te121  1  0.75893173  0.61932790  0.52446048  1
  Te  Te122  1  0.74804451  0.57280589  0.91545201  1
  Te  Te123  1  0.78923289  0.92873574  0.24725540  1
  Te  Te124  1  0.75267072  0.92587247  0.59010485  1
  Te  Te125  1  0.74108308  0.91285223  0.92047453  1
  Te  Te126  1  0.24717177  0.23350235  0.07975621  1
  Te  Te127  1  0.23824011  0.26379517  0.40929976  1
  Te  Te128  1  0.26376080  0.23687400  0.76650017  1
  Te  Te129  1  0.22462839  0.60942623  0.08317528  1
  Te  Te130  1  0.23501577  0.58934833  0.40648972  1
  Te  Te131  1  0.25306852  0.56810751  0.73967277  1
  Te  Te132  1  0.23764611  0.94659769  0.06400137  1
  Te  Te133  1  0.24110987  0.88265044  0.42912975  1
  Te  Te134  1  0.24395582  0.91153389  0.72975781  1
  Te  Te135  1  0.56813079  0.18451724  0.09506985  1
  Te  Te136  1  0.55976301  0.26615764  0.41489485  1
  Te  Te137  1  0.59195953  0.23615070  0.75616599  1
  Te  Te138  1  0.56253118  0.58438071  0.07440863  1
  Te  Te139  1  0.61648142  0.58445459  0.41047494  1
  Te  Te140  1  0.59382315  0.60036185  0.74132693  1
  Te  Te141  1  0.58664179  0.94360034  0.11208352  1
  Te  Te142  1  0.59732289  0.91083345  0.39401042  1
  Te  Te143  1  0.59490501  0.90808947  0.75410250  1
  Te  Te144  1  0.92459832  0.22897812  0.08159314  1
  Te  Te145  1  0.90590663  0.22421495  0.39303050  1
  Te  Te146  1  0.92062754  0.24639651  0.77661450  1
  Te  Te147  1  0.90422141  0.58891675  0.07537114  1
  Te  Te148  1  0.96918580  0.58089130  0.43112269  1
  Te  Te149  1  0.92179815  0.57148853  0.75076149  1
  Te  Te150  1  0.95452868  0.89705080  0.10944925  1
  Te  Te151  1  0.93922744  0.89947050  0.44007539  1
  Te  Te152  1  0.92952996  0.89703964  0.74513618  1
  Te  Te153  1  0.24225390  0.08950281  0.25836894  1
  Te  Te154  1  0.22513790  0.08009817  0.55843297  1
  Te  Te155  1  0.21335855  0.03668035  0.92630329  1
  Te  Te156  1  0.24090341  0.42377058  0.26442775  1
  Te  Te157  1  0.23687815  0.40962150  0.56966734  1
  Te  Te158  1  0.25378972  0.42653330  0.92511541  1
  Te  Te159  1  0.22722135  0.78634370  0.23203776  1
  Te  Te160  1  0.25018218  0.74948948  0.55264619  1
  Te  Te161  1  0.24555400  0.76067228  0.89708936  1
  Te  Te162  1  0.61710798  0.08253949  0.31617034  1
  Te  Te163  1  0.55509455  0.09557576  0.57686363  1
  Te  Te164  1  0.61294124  0.09111411  0.91202029  1
  Te  Te165  1  0.58066167  0.41246713  0.25667538  1
  Te  Te166  1  0.60063085  0.43890549  0.57476893  1
  Te  Te167  1  0.58780761  0.40222952  0.92819663  1
  Te  Te168  1  0.58545329  0.73789402  0.23044370  1
  Te  Te169  1  0.59036221  0.76061589  0.57775129  1
  Te  Te170  1  0.56111277  0.77658779  0.93719690  1
  Te  Te171  1  0.91058411  0.02882576  0.22847064  1
  Te  Te172  1  0.90190652  0.09024495  0.59870070  1
  Te  Te173  1  0.90165538  0.06608235  0.92232379  1
  Te  Te174  1  0.90857259  0.42612534  0.24525864  1
  Te  Te175  1  0.90428127  0.42700558  0.58765877  1
  Te  Te176  1  0.93368273  0.42146014  0.90285698  1
  Te  Te177  1  0.92267221  0.76735745  0.29085681  1
  Te  Te178  1  0.95636551  0.70747459  0.59874096  1
  Te  Te179  1  0.91399654  0.77640575  0.91669157  1
