# generated using pymatgen
data_In2Te3
_symmetry_space_group_name_H-M   'P 1'
_cell_length_a   18.77366403
_cell_length_b   18.76583051
_cell_length_c   18.76863417
_cell_angle_alpha   90.00156919
_cell_angle_beta   90.00351264
_cell_angle_gamma   89.95248809
_symmetry_Int_Tables_number   1
_chemical_formula_structural   In2Te3
_chemical_formula_sum   'In72 Te108'
_cell_volume   6612.25129342
_cell_formula_units_Z   36
loop_
 _symmetry_equiv_pos_site_id
 _symmetry_equiv_pos_as_xyz
  1  'x, y, z'
loop_
 _atom_site_type_symbol
 _atom_site_label
 _atom_site_symmetry_multiplicity
 _atom_site_fract_x
 _atom_site_fract_y
 _atom_site_fract_z
 _atom_site_occupancy
  In  In0  1  -0.01646958  0.16056663  0.17880785  1
  In  In1  1  0.34013944  0.34442169  -0.00790506  1
  In  In2  1  0.67534368  0.69916137  0.02323148  1
  In  In3  1  0.50326045  0.18181231  0.66530059  1
  In  In4  1  0.67841340  0.32699821  0.67410446  1
  In  In5  1  0.32580444  0.66621897  0.64905150  1
  In  In6  1  0.00703708  0.67046922  0.32002220  1
  In  In7  1  0.15873993  0.17226409  -0.00091887  1
  In  In8  1  0.33765947  0.83872790  0.83179677  1
  In  In9  1  0.48349497  0.31367928  0.48039707  1
  In  In10  1  0.50841740  0.01789264  0.16132560  1
  In  In11  1  0.83191262  0.14315250  0.66057241  1
  In  In12  1  -0.00606354  0.82610127  0.83829189  1
  In  In13  1  0.15421199  0.64978870  0.83222353  1
  In  In14  1  0.67807363  0.47910521  0.15483060  1
  In  In15  1  0.00606754  -0.01346630  0.65184360  1
  In  In16  1  0.15811329  -0.00945870  0.17161573  1
  In  In17  1  0.01298759  0.83735545  0.47097763  1
  In  In18  1  0.00124400  0.65597638  0.66253405  1
  In  In19  1  0.64697600  0.50720877  0.85946850  1
  In  In20  1  0.68042286  0.80651853  0.82389400  1
  In  In21  1  -0.00027744  0.34143703  0.32746234  1
  In  In22  1  0.64400100  0.49386357  0.49586418  1
  In  In23  1  0.48556274  0.66438059  0.18033215  1
  In  In24  1  0.01739820  0.48120579  0.49239503  1
  In  In25  1  0.64865623  0.32120071  0.31897409  1
  In  In26  1  0.49525229  0.65432426  0.49593718  1
  In  In27  1  -0.02339725  0.15487204  0.83990245  1
  In  In28  1  0.50428334  0.82446782  0.65629387  1
  In  In29  1  0.16261940  0.64444284  0.17545151  1
  In  In30  1  0.03154627  0.29113244  0.66398655  1
  In  In31  1  0.19336877  0.34684752  0.83183949  1
  In  In32  1  0.68716477  0.01319107  0.66424243  1
  In  In33  1  0.32478936  0.31155866  0.33018490  1
  In  In34  1  0.67570362  0.02229804  0.01086443  1
  In  In35  1  0.15714877  0.15461397  0.60711263  1
  In  In36  1  0.00698076  0.32734639  0.02916865  1
  In  In37  1  0.84232426  0.32051845  0.48982943  1
  In  In38  1  0.32801106  0.00614028  0.33170891  1
  In  In39  1  0.33506107  0.50185213  0.16503607  1
  In  In40  1  0.48728775  0.00554639  0.47698544  1
  In  In41  1  0.49530628  0.84222262  0.03463038  1
  In  In42  1  0.51015536  0.83708726  0.35413190  1
  In  In43  1  0.84184092  0.49361357  0.30538401  1
  In  In44  1  0.84726596  0.84209150  0.01057383  1
  In  In45  1  0.81990622  0.15214070  0.31504921  1
  In  In46  1  0.16616468  -0.00709072  0.83462413  1
  In  In47  1  0.67358359  0.17611199  0.15564925  1
  In  In48  1  0.31330878  0.84065209  0.48606119  1
  In  In49  1  0.35465936  0.35561328  0.67404241  1
  In  In50  1  0.84387270  0.00345380  0.48446215  1
  In  In51  1  0.83777795  0.02672928  0.84075275  1
  In  In52  1  0.83140881  0.68691380  0.48890990  1
  In  In53  1  -0.00531854  0.84836742  0.18133556  1
  In  In54  1  0.01204114  0.49298445  0.86509202  1
  In  In55  1  0.30049964  0.51791219  0.47093632  1
  In  In56  1  0.52432377  0.00272938  0.86199469  1
  In  In57  1  0.15656417  0.83955716  0.00742981  1
  In  In58  1  0.18552563  0.49666617  0.65928972  1
  In  In59  1  0.65927802  0.85844200  0.48511254  1
  In  In60  1  0.80727916  0.30235023  0.86850086  1
  In  In61  1  0.31283167  0.81849373  0.17712276  1
  In  In62  1  0.81300728  0.69131477  0.85194722  1
  In  In63  1  0.30746768  0.02729204  0.67084093  1
  In  In64  1  0.15673819  0.34809744  0.17283373  1
  In  In65  1  0.50631927  0.62622310  0.85438376  1
  In  In66  1  0.49674188  0.48039680  0.00480280  1
  In  In67  1  0.83030202  0.51346427  0.66972269  1
  In  In68  1  0.35655241  0.16259686  0.17330861  1
  In  In69  1  0.33291286  0.18148964  0.83295290  1
  In  In70  1  0.65040149  0.65195011  0.71499407  1
  In  In71  1  0.68365503  0.67926194  0.34629786  1
  Te  Te72  1  0.07245123  0.07808292  0.08055744  1
  Te  Te73  1  0.12929765  0.11659215  0.45472301  1
  Te  Te74  1  0.08283510  0.08970036  0.74916609  1
  Te  Te75  1  0.08596056  0.44167347  0.08134718  1
  Te  Te76  1  0.10782366  0.42363171  0.39133034  1
  Te  Te77  1  0.07543625  0.42306378  0.73714270  1
  Te  Te78  1  0.07610236  0.74854786  0.09641811  1
  Te  Te79  1  0.10168388  0.72198484  0.42459406  1
  Te  Te80  1  0.08846707  0.75517935  0.74185426  1
  Te  Te81  1  0.42862703  0.09488899  0.06351163  1
  Te  Te82  1  0.41361184  0.10670937  0.39912690  1
  Te  Te83  1  0.42504792  0.06967485  0.75755767  1
  Te  Te84  1  0.42726458  0.39276013  0.10911098  1
  Te  Te85  1  0.40553460  0.42138014  0.40734570  1
  Te  Te86  1  0.42734997  0.43443881  0.77273911  1
  Te  Te87  1  0.39604158  0.73577581  0.07677159  1
  Te  Te88  1  0.40463441  0.74235136  0.41062586  1
  Te  Te89  1  0.42671170  0.73743550  0.75446407  1
  Te  Te90  1  0.76669275  0.06275934  0.12010897  1
  Te  Te91  1  0.73837098  0.08368125  0.41865003  1
  Te  Te92  1  0.73020346  0.11203757  0.77201510  1
  Te  Te93  1  0.79396863  0.41969327  0.08255782  1
  Te  Te94  1  0.75292025  0.42116253  0.41430741  1
  Te  Te95  1  0.75203632  0.42774627  0.76954536  1
  Te  Te96  1  0.76737486  0.76996507  0.12052345  1
  Te  Te97  1  0.77820388  0.80023973  0.39260661  1
  Te  Te98  1  0.77048811  0.74932378  0.71531117  1
  Te  Te99  1  0.09005365  0.23800360  0.25493148  1
  Te  Te100  1  0.09133291  0.26625593  0.52888120  1
  Te  Te101  1  0.08211979  0.26137781  0.89957382  1
  Te  Te102  1  0.05698106  0.55775397  0.23662585  1
  Te  Te103  1  0.09949942  0.58577802  0.56952262  1
  Te  Te104  1  0.08067441  0.59271413  0.94818821  1
  Te  Te105  1  0.10164869  0.89952439  0.27593601  1
  Te  Te106  1  0.09959038  0.91944645  0.56079644  1
  Te  Te107  1  0.06143106  0.93125001  0.92693930  1
  Te  Te108  1  0.44020325  0.25323725  0.25424893  1
  Te  Te109  1  0.39195447  0.23871458  0.57953366  1
  Te  Te110  1  0.43017952  0.26077351  0.90924940  1
  Te  Te111  1  0.40316648  0.58356063  0.27038961  1
  Te  Te112  1  0.40737667  0.55996634  0.57481743  1
  Te  Te113  1  0.39774206  0.56883998  0.93606037  1
  Te  Te114  1  0.41929058  0.90974054  0.24496190  1
  Te  Te115  1  0.41187934  0.91966949  0.58398316  1
  Te  Te116  1  0.41341445  0.92468426  0.93310730  1
  Te  Te117  1  0.76740009  0.27251272  0.23844893  1
  Te  Te118  1  0.74576456  0.23455966  0.57199658  1
  Te  Te119  1  0.71671525  0.23830313  0.96734143  1
  Te  Te120  1  0.74951673  0.59321024  0.23785616  1
  Te  Te121  1  0.73841423  0.58841252  0.57381077  1
  Te  Te122  1  0.75502749  0.58351692  0.94991589  1
  Te  Te123  1  0.74369346  0.85155002  0.25314508  1
  Te  Te124  1  0.76607142  0.91301180  0.58252240  1
  Te  Te125  1  0.74606976  0.91422406  0.91286563  1
  Te  Te126  1  0.24951631  0.25633508  0.08835147  1
  Te  Te127  1  0.23411602  0.22588282  0.40923881  1
  Te  Te128  1  0.24032420  0.24403476  0.72895644  1
  Te  Te129  1  0.25749645  0.59011294  0.07386387  1
  Te  Te130  1  0.22565548  0.62393535  0.39751703  1
  Te  Te131  1  0.26759188  0.57554811  0.75978413  1
  Te  Te132  1  0.26081540  0.92563362  0.07941150  1
  Te  Te133  1  0.22492460  0.91061901  0.38643380  1
  Te  Te134  1  0.24017221  0.90534354  0.73353723  1
  Te  Te135  1  0.61409493  0.28822594  0.07419761  1
  Te  Te136  1  0.59421373  0.23300302  0.42393415  1
  Te  Te137  1  0.57632090  0.26534640  0.76208436  1
  Te  Te138  1  0.58217486  0.59079618  0.08087324  1
  Te  Te139  1  0.57415944  0.57798981  0.38966224  1
  Te  Te140  1  0.54652993  0.53223681  0.73572613  1
  Te  Te141  1  0.60724049  0.91634801  0.10241597  1
  Te  Te142  1  0.60157988  0.95656289  0.38311995  1
  Te  Te143  1  0.58997736  0.91507888  0.74536853  1
  Te  Te144  1  0.90314837  0.22866340  0.07242915  1
  Te  Te145  1  0.92374820  0.23013315  0.40127297  1
  Te  Te146  1  0.90273688  0.25850401  0.74351407  1
  Te  Te147  1  0.85688425  0.55344967  0.06300754  1
  Te  Te148  1  0.91239988  0.57610199  0.42213159  1
  Te  Te149  1  0.91584856  0.58872614  0.77281165  1
  Te  Te150  1  0.90946535  0.94219542  0.10048292  1
  Te  Te151  1  0.93671896  0.93656993  0.38653021  1
  Te  Te152  1  0.90958224  0.92266923  0.75329243  1
  Te  Te153  1  0.23871863  0.09704135  0.24567359  1
  Te  Te154  1  0.25703710  0.06575069  0.53480092  1
  Te  Te155  1  0.25508408  0.08186320  0.92118867  1
  Te  Te156  1  0.24421275  0.42879608  0.26673806  1
  Te  Te157  1  0.25491655  0.40196589  0.56467698  1
  Te  Te158  1  0.24248901  0.44044509  0.93316679  1
  Te  Te159  1  0.24113536  0.72908389  0.27449245  1
  Te  Te160  1  0.23453787  0.76105787  0.58414832  1
  Te  Te161  1  0.24124935  0.75337131  0.91303396  1
  Te  Te162  1  0.58437800  0.10596615  0.25201337  1
  Te  Te163  1  0.57876849  0.07922135  0.58057494  1
  Te  Te164  1  0.58752218  0.11585351  0.93396380  1
  Te  Te165  1  0.57535706  0.42778955  0.24818173  1
  Te  Te166  1  0.57305581  0.39218302  0.58087591  1
  Te  Te167  1  0.60405502  0.39025266  0.94570801  1
  Te  Te168  1  0.58823560  0.75678785  0.24923290  1
  Te  Te169  1  0.59876794  0.73983910  0.57158424  1
  Te  Te170  1  0.56863278  0.75813787  0.91976996  1
  Te  Te171  1  0.92659779  0.05425512  0.26917592  1
  Te  Te172  1  0.93904701  0.09418948  0.56510616  1
  Te  Te173  1  0.89598260  0.10513448  0.95433540  1
  Te  Te174  1  0.93039454  0.41425577  0.21578017  1
  Te  Te175  1  0.91551450  0.41408846  0.59028637  1
  Te  Te176  1  0.91118501  0.39964977  0.92853799  1
  Te  Te177  1  0.90493642  0.74167941  0.23840272  1
  Te  Te178  1  0.92946151  0.76192617  0.57858898  1
  Te  Te179  1  0.93062681  0.73343369  0.94214328  1
