# generated using pymatgen
data_In2Te3
_symmetry_space_group_name_H-M   'P 1'
_cell_length_a   18.88584989
_cell_length_b   18.91006218
_cell_length_c   18.89861559
_cell_angle_alpha   90.02310906
_cell_angle_beta   89.92713534
_cell_angle_gamma   90.16148804
_symmetry_Int_Tables_number   1
_chemical_formula_structural   In2Te3
_chemical_formula_sum   'In72 Te108'
_cell_volume   6749.27883719
_cell_formula_units_Z   36
loop_
 _symmetry_equiv_pos_site_id
 _symmetry_equiv_pos_as_xyz
  1  'x, y, z'
loop_
 _atom_site_type_symbol
 _atom_site_label
 _atom_site_symmetry_multiplicity
 _atom_site_fract_x
 _atom_site_fract_y
 _atom_site_fract_z
 _atom_site_occupancy
  In  In0  1  0.32356257  0.47236910  0.15579983  1
  In  In1  1  0.03024444  0.33738933  -0.01800905  1
  In  In2  1  0.66273463  0.35894884  -0.01227245  1
  In  In3  1  0.31023525  0.47357617  0.49705198  1
  In  In4  1  0.66533719  0.63256742  0.32236590  1
  In  In5  1  0.46744115  0.17928076  0.65424097  1
  In  In6  1  0.17442803  0.31885970  0.82489790  1
  In  In7  1  0.78759922  0.48476933  0.31441932  1
  In  In8  1  0.06566261  0.32493279  0.65167134  1
  In  In9  1  0.84950755  0.18799171  0.00144713  1
  In  In10  1  0.00497987  -0.01634700  -0.00613035  1
  In  In11  1  0.67028437  0.18435508  0.51179157  1
  In  In12  1  0.84570722  -0.01652820  0.83519859  1
  In  In13  1  0.31574794  -0.00149545  0.68673201  1
  In  In14  1  0.51382411  -0.00438476  0.14790007  1
  In  In15  1  0.91942518  0.13085977  0.69940220  1
  In  In16  1  0.50431098  0.81291638  0.33810956  1
  In  In17  1  0.15356497  0.87450603  0.33353506  1
  In  In18  1  0.66318544  0.00210304  0.33660003  1
  In  In19  1  0.46988756  0.01236690  0.53266947  1
  In  In20  1  0.84047406  0.63390867  -0.00120936  1
  In  In21  1  0.66636353  0.52518302  0.15891280  1
  In  In22  1  0.85337092  0.14872414  0.31154146  1
  In  In23  1  0.00101771  0.67233465  0.33576747  1
  In  In24  1  0.33480572  0.84267052  0.82611144  1
  In  In25  1  0.86220943  0.02075748  0.53002473  1
  In  In26  1  0.02035067  0.51486627  0.49276276  1
  In  In27  1  0.84659681  0.65849784  0.51318113  1
  In  In28  1  0.65388405  0.83270804  0.83864269  1
  In  In29  1  0.64183517  0.67426164  -0.01451431  1
  In  In30  1  0.83182047  0.32303103  0.15654177  1
  In  In31  1  0.83554959  0.49453811  0.64998523  1
  In  In32  1  0.86534498  -0.01803620  0.16542246  1
  In  In33  1  0.15167375  0.84222454  0.00180142  1
  In  In34  1  0.16839253  0.51515534  -0.02398136  1
  In  In35  1  0.68165655  -0.02224579  0.67919589  1
  In  In36  1  0.50667296  0.66180171  0.17200862  1
  In  In37  1  0.49206118  0.66692556  0.52937802  1
  In  In38  1  0.19744481  0.00229992  0.50635070  1
  In  In39  1  0.03750211  0.69709110  0.70085773  1
  In  In40  1  0.01679262  0.86697348  0.50535094  1
  In  In41  1  0.31725996  0.66820679  0.32412077  1
  In  In42  1  0.34383226  0.64213874  -0.01322841  1
  In  In43  1  0.18971164  0.16029153  0.34639601  1
  In  In44  1  0.64967055  0.16467844  0.81324233  1
  In  In45  1  0.49781799  0.18162635  -0.01670153  1
  In  In46  1  -0.01877158  0.55165843  0.86417466  1
  In  In47  1  0.85774924  0.31713624  0.47879770  1
  In  In48  1  0.17902361  0.47305847  0.31547755  1
  In  In49  1  0.83006642  0.83188667  0.68109762  1
  In  In50  1  0.35546681  0.00584575  0.35188439  1
  In  In51  1  0.49258686  0.84920896  -0.01236531  1
  In  In52  1  0.45528124  0.48681649  0.68716398  1
  In  In53  1  0.30444980  0.13670630  0.85334578  1
  In  In54  1  0.63580918  0.35229061  0.34482748  1
  In  In55  1  0.69717127  -0.01291065  -0.01573908  1
  In  In56  1  0.85153588  0.34719994  0.82613325  1
  In  In57  1  0.30824610  0.83539632  0.16186218  1
  In  In58  1  0.48023551  0.32624027  0.15318643  1
  In  In59  1  0.03157111  0.31220598  0.31594291  1
  In  In60  1  0.19053162  0.68720672  0.53783206  1
  In  In61  1  0.83979304  0.83859629  0.34794943  1
  In  In62  1  0.46693948  0.32702927  0.49984230  1
  In  In63  1  0.66308095  0.32134372  0.66520706  1
  In  In64  1  0.60032372  0.51538661  0.84860742  1
  In  In65  1  0.20462266  0.50002076  0.71304252  1
  In  In66  1  0.31704002  0.18343833  0.13677726  1
  In  In67  1  0.66707833  0.15234081  0.18669327  1
  In  In68  1  0.16212448  -0.00810387  0.15894879  1
  In  In69  1  -0.00778045  0.49136597  0.15397238  1
  In  In70  1  0.64531552  0.52508768  0.51377610  1
  In  In71  1  0.64282466  0.81024358  0.50747762  1
  Te  Te72  1  0.09332390  0.08562384  0.06433494  1
  Te  Te73  1  0.11523600  0.03671831  0.38603214  1
  Te  Te74  1  0.03927663  0.05019014  0.72565024  1
  Te  Te75  1  0.10819006  0.41719396  0.08811076  1
  Te  Te76  1  0.09654158  0.40137947  0.42386205  1
  Te  Te77  1  0.07992342  0.43091136  0.76658149  1
  Te  Te78  1  0.08791228  0.71660281  0.05421786  1
  Te  Te79  1  0.09074864  0.74852162  0.43196044  1
  Te  Te80  1  0.11862799  0.80842913  0.75619189  1
  Te  Te81  1  0.41969095  0.08450832  0.07216569  1
  Te  Te82  1  0.39769914  0.10817147  0.44863547  1
  Te  Te83  1  0.42013949  0.08374607  0.75947207  1
  Te  Te84  1  0.41097265  0.40993925  0.05448677  1
  Te  Te85  1  0.40670212  0.41685455  0.39940420  1
  Te  Te86  1  0.35807614  0.43080729  0.78637588  1
  Te  Te87  1  0.41500748  0.75034717  0.08805430  1
  Te  Te88  1  0.40417280  0.74199385  0.42586670  1
  Te  Te89  1  0.36327309  0.73036977  0.72825441  1
  Te  Te90  1  0.76168703  0.08817319  0.08586206  1
  Te  Te91  1  0.75422872  0.09065425  0.42270414  1
  Te  Te92  1  0.76520777  0.08854598  0.74587351  1
  Te  Te93  1  0.76058835  0.43140534  0.07948691  1
  Te  Te94  1  0.73974973  0.41641278  0.44861773  1
  Te  Te95  1  0.74254288  0.42229292  0.74924258  1
  Te  Te96  1  0.75068565  0.72816035  0.06838346  1
  Te  Te97  1  0.74506725  0.73154456  0.41699301  1
  Te  Te98  1  0.74013161  0.74489632  0.75489692  1
  Te  Te99  1  0.12820514  0.23777475  0.22921678  1
  Te  Te100  1  0.11305383  0.22122930  0.55537387  1
  Te  Te101  1  0.09285108  0.22231423  0.90896557  1
  Te  Te102  1  0.08104739  0.57152558  0.25326705  1
  Te  Te103  1  0.09527618  0.58608387  0.60423192  1
  Te  Te104  1  0.09959472  0.63455338  0.91362687  1
  Te  Te105  1  0.06684420  0.89191866  0.21565663  1
  Te  Te106  1  0.13170613  0.89821753  0.59419524  1
  Te  Te107  1  0.05524901  0.88214794  0.89385805  1
  Te  Te108  1  0.40201662  0.24134586  0.24461310  1
  Te  Te109  1  0.37569370  0.28603837  0.60925090  1
  Te  Te110  1  0.37884418  0.24288920  0.92554295  1
  Te  Te111  1  0.40508036  0.57591120  0.24365040  1
  Te  Te112  1  0.38500631  0.57465163  0.58573150  1
  Te  Te113  1  0.37998152  0.56781079  0.86148969  1
  Te  Te114  1  0.42628788  0.90229347  0.24203519  1
  Te  Te115  1  0.39082608  0.90477975  0.59553469  1
  Te  Te116  1  0.41123309  0.94044541  0.90865385  1
  Te  Te117  1  0.74489182  0.25906376  0.27224504  1
  Te  Te118  1  0.77991080  0.25028076  0.59441464  1
  Te  Te119  1  0.74761857  0.25286975  0.90151825  1
  Te  Te120  1  0.78207515  0.60542886  0.22489084  1
  Te  Te121  1  0.73614851  0.60563617  0.60390645  1
  Te  Te122  1  0.72683979  0.57343590  0.90599725  1
  Te  Te123  1  0.75122144  0.91717046  0.25005409  1
  Te  Te124  1  0.75615326  0.90782888  0.55944279  1
  Te  Te125  1  0.77884047  0.87713808  0.91851691  1
  Te  Te126  1  0.20878655  0.27522313  0.10001327  1
  Te  Te127  1  0.21170657  0.26341936  0.44916918  1
  Te  Te128  1  0.22989671  0.20674931  0.74276292  1
  Te  Te129  1  0.24662107  0.58619950  0.08949663  1
  Te  Te130  1  0.23022471  0.58476371  0.41998928  1
  Te  Te131  1  0.25870369  0.62255183  0.77651674  1
  Te  Te132  1  0.26239986  0.93447005  0.05824633  1
  Te  Te133  1  0.27553583  0.89671918  0.41768451  1
  Te  Te134  1  0.22049814  0.93309598  0.78387999  1
  Te  Te135  1  0.60575520  0.24703144  0.08447397  1
  Te  Te136  1  0.56523455  0.23955085  0.41769757  1
  Te  Te137  1  0.55308183  0.26432139  0.75401788  1
  Te  Te138  1  0.55818691  0.57059353  0.06259224  1
  Te  Te139  1  0.55262609  0.58198437  0.41018353  1
  Te  Te140  1  0.55785797  0.58468934  0.72766306  1
  Te  Te141  1  0.60786681  0.90165994  0.07461185  1
  Te  Te142  1  0.56832517  0.92531458  0.43011723  1
  Te  Te143  1  0.57078890  0.92071966  0.75466200  1
  Te  Te144  1  0.95009144  0.25681937  0.09114593  1
  Te  Te145  1  0.94929965  0.21950452  0.40787048  1
  Te  Te146  1  0.95595206  0.26796362  0.74952606  1
  Te  Te147  1  0.96576486  0.62335220  0.08825064  1
  Te  Te148  1  0.90338831  0.56551476  0.40736617  1
  Te  Te149  1  0.92124783  0.59229175  0.72684625  1
  Te  Te150  1  0.91417151  0.88954862  0.06395134  1
  Te  Te151  1  0.92691694  0.94614630  0.41049523  1
  Te  Te152  1  0.93591643  0.92942543  0.72638386  1
  Te  Te153  1  0.27187100  0.06671123  0.24103220  1
  Te  Te154  1  0.24173385  0.10369678  0.60833544  1
  Te  Te155  1  0.18742820  0.09754222  0.93860091  1
  Te  Te156  1  0.28743944  0.38259228  0.27080928  1
  Te  Te157  1  0.23604935  0.40147406  0.60539133  1
  Te  Te158  1  0.25484542  0.40881629  0.91554789  1
  Te  Te159  1  0.21740529  0.75323427  0.24859851  1
  Te  Te160  1  0.27156795  0.78512782  0.61497510  1
  Te  Te161  1  0.26583376  0.75989727  0.93552577  1
  Te  Te162  1  0.55653989  0.08492487  0.26550537  1
  Te  Te163  1  0.59265106  0.08806173  0.60018880  1
  Te  Te164  1  0.59079911  0.07394603  0.91934737  1
  Te  Te165  1  0.57218507  0.42602724  0.23245220  1
  Te  Te166  1  0.56953255  0.41270250  0.58417201  1
  Te  Te167  1  0.54292325  0.39602566  0.91200095  1
  Te  Te168  1  0.60578829  0.75218265  0.24382594  1
  Te  Te169  1  0.55600628  0.76724665  0.61675317  1
  Te  Te170  1  0.54115285  0.74113625  0.89430532  1
  Te  Te171  1  0.94920432  0.08949537  0.21938329  1
  Te  Te172  1  0.99056599  0.08895173  0.57010417  1
  Te  Te173  1  0.92240735  0.08958686  0.91412451  1
  Te  Te174  1  0.91786735  0.40382029  0.26318052  1
  Te  Te175  1  0.93879931  0.40814653  0.57709866  1
  Te  Te176  1  0.91782408  0.42910866  0.93516555  1
  Te  Te177  1  0.93590876  0.77576839  0.25320932  1
  Te  Te178  1  0.93453947  0.75919425  0.58284249  1
  Te  Te179  1  0.92895355  0.69010193  0.89301344  1
