# generated using pymatgen
data_In2Te3
_symmetry_space_group_name_H-M   'P 1'
_cell_length_a   19.00932479
_cell_length_b   19.01314331
_cell_length_c   18.99540927
_cell_angle_alpha   89.89086680
_cell_angle_beta   89.95760501
_cell_angle_gamma   90.22301576
_symmetry_Int_Tables_number   1
_chemical_formula_structural   In2Te3
_chemical_formula_sum   'In72 Te108'
_cell_volume   6865.38772139
_cell_formula_units_Z   36
loop_
 _symmetry_equiv_pos_site_id
 _symmetry_equiv_pos_as_xyz
  1  'x, y, z'
loop_
 _atom_site_type_symbol
 _atom_site_label
 _atom_site_symmetry_multiplicity
 _atom_site_fract_x
 _atom_site_fract_y
 _atom_site_fract_z
 _atom_site_occupancy
  In  In0  1  0.82975006  0.51848587  0.65597211  1
  In  In1  1  0.81179176  0.52214988  0.33178270  1
  In  In2  1  0.50764727  0.16971425  0.67066227  1
  In  In3  1  0.84853856  0.48898818  0.02780716  1
  In  In4  1  0.80742433  0.68246319  0.85076427  1
  In  In5  1  0.16217187  0.34917397  0.15963193  1
  In  In6  1  0.51261749  0.51975889  0.36391253  1
  In  In7  1  0.82398375  0.00909553  0.82901725  1
  In  In8  1  -0.02156540  0.17389459  0.82094916  1
  In  In9  1  0.16452384  0.83054413  0.66274737  1
  In  In10  1  0.83024730  0.67820936  0.48525209  1
  In  In11  1  -0.00100706  0.18552924  0.15399815  1
  In  In12  1  0.49608268  0.68216801  0.17086478  1
  In  In13  1  0.63684437  0.86940204  0.20746035  1
  In  In14  1  0.49478582  0.46990338  -0.01243592  1
  In  In15  1  -0.00245943  0.50873548  0.83671260  1
  In  In16  1  0.15141367  0.15664938  0.65695971  1
  In  In17  1  -0.02253115  0.83435957  0.82218860  1
  In  In18  1  0.17692577  0.67356292  0.18407778  1
  In  In19  1  -0.01973595  0.32643606  -0.04237230  1
  In  In20  1  -0.00097035  -0.00224750  0.00411488  1
  In  In21  1  0.53903601  0.49602846  0.66814221  1
  In  In22  1  0.48970399  0.82038296  0.00130964  1
  In  In23  1  0.18065743  0.00154253  0.83560679  1
  In  In24  1  0.50520641  0.31192284  0.49699846  1
  In  In25  1  -0.02370298  0.67144848  0.32420351  1
  In  In26  1  -0.01569742  0.85110578  0.49810080  1
  In  In27  1  0.62766664  0.13467596  0.17225109  1
  In  In28  1  0.82341263  0.35681710  0.49681638  1
  In  In29  1  0.68778234  0.34312002  0.66194825  1
  In  In30  1  0.36001221  0.52389589  0.52288993  1
  In  In31  1  0.83831253  0.01238276  0.50376302  1
  In  In32  1  0.00512658  0.67590500  0.64938610  1
  In  In33  1  0.34554092  0.15357530  0.16287422  1
  In  In34  1  0.66655777  0.67627620  0.65058232  1
  In  In35  1  0.16303589  0.82243452  0.33143009  1
  In  In36  1  0.49496908  0.14635712  0.00099877  1
  In  In37  1  0.18783135  0.35002443  0.52707927  1
  In  In38  1  0.36462585  0.81502718  0.81439834  1
  In  In39  1  0.67119748  0.01477335  -0.01338931  1
  In  In40  1  0.68842676  0.30270875  -0.01987114  1
  In  In41  1  0.79897239  0.00205615  0.17511530  1
  In  In42  1  0.17629990  0.81479574  0.01211991  1
  In  In43  1  0.80811668  0.80807426  0.02943663  1
  In  In44  1  0.66501472  0.00146937  0.66886638  1
  In  In45  1  0.64699951  0.67314329  0.02272840  1
  In  In46  1  0.33793177  0.63873686  -0.06163085  1
  In  In47  1  0.35852711  0.78210408  0.50939791  1
  In  In48  1  0.17551367  0.65379657  0.50790598  1
  In  In49  1  0.14800078  0.33100244  0.81660099  1
  In  In50  1  0.01374314  0.50424578  0.19087490  1
  In  In51  1  0.31474800  0.14167187  0.48933286  1
  In  In52  1  0.67717107  0.19179879  0.48037595  1
  In  In53  1  0.31941866  0.32352493  0.33322899  1
  In  In54  1  0.02573658  0.34595525  0.36592102  1
  In  In55  1  0.82892648  0.16868463  0.31494645  1
  In  In56  1  0.33811901  -0.02368270  0.33914856  1
  In  In57  1  0.35903365  0.35727705  0.67199493  1
  In  In58  1  0.63917912  0.84828164  0.81602298  1
  In  In59  1  0.17293797  0.47712719  -0.02198672  1
  In  In60  1  0.30232314  0.30484102  -0.02846389  1
  In  In61  1  0.67274282  0.83637665  0.46751854  1
  In  In62  1  0.34030548  0.50358583  0.16387443  1
  In  In63  1  0.33402235  0.83594235  0.16129279  1
  In  In64  1  0.81916637  0.33281339  0.17843060  1
  In  In65  1  0.17061972  -0.00932792  0.18329395  1
  In  In66  1  0.02019165  0.65632673  0.02433993  1
  In  In67  1  0.15558214  -0.00065852  0.49120951  1
  In  In68  1  0.48518204  -0.00869370  0.49820355  1
  In  In69  1  0.51233766  0.36240983  0.17660621  1
  In  In70  1  -0.00314995  0.15409134  0.50691833  1
  In  In71  1  0.33779983  0.15216901  0.81608683  1
  Te  Te72  1  0.08968721  0.08237566  0.08927187  1
  Te  Te73  1  0.07391410  0.08333545  0.40588406  1
  Te  Te74  1  0.07384549  0.07318221  0.75606744  1
  Te  Te75  1  0.05908545  0.41802819  0.06468277  1
  Te  Te76  1  0.11525577  0.43774655  0.43444932  1
  Te  Te77  1  0.05893841  0.41742572  0.74130440  1
  Te  Te78  1  0.07379809  0.77261596  0.11868769  1
  Te  Te79  1  0.07231996  0.74660149  0.43059059  1
  Te  Te80  1  0.08245828  0.74566903  0.75929700  1
  Te  Te81  1  0.43372274  0.05610835  0.09966505  1
  Te  Te82  1  0.42100094  0.09116358  0.39781861  1
  Te  Te83  1  0.43104369  0.06638490  0.74180382  1
  Te  Te84  1  0.38867529  0.39415709  0.07186932  1
  Te  Te85  1  0.40608760  0.40861904  0.42565281  1
  Te  Te86  1  0.46678927  0.40104793  0.75992589  1
  Te  Te87  1  0.38728206  0.72182932  0.06563906  1
  Te  Te88  1  0.46791477  0.74728014  0.41319664  1
  Te  Te89  1  0.43841697  0.71095497  0.73881911  1
  Te  Te90  1  0.74509888  0.10770235  0.08008847  1
  Te  Te91  1  0.74547908  0.08100807  0.40411088  1
  Te  Te92  1  0.72583283  0.09967705  0.76351989  1
  Te  Te93  1  0.73207523  0.41178427  0.08414361  1
  Te  Te94  1  0.73570657  0.41444101  0.39454234  1
  Te  Te95  1  0.74303841  0.44709987  0.75338485  1
  Te  Te96  1  0.73435139  0.72716335  0.13380292  1
  Te  Te97  1  0.76094370  0.75454966  0.38025704  1
  Te  Te98  1  0.74667519  0.76924207  0.74360149  1
  Te  Te99  1  0.08593603  0.25862726  0.25393833  1
  Te  Te100  1  0.07317964  0.26110592  0.58345910  1
  Te  Te101  1  0.08870569  0.23321844  0.91492170  1
  Te  Te102  1  0.10022636  0.58659376  0.28093810  1
  Te  Te103  1  0.08409816  0.57128203  0.58861058  1
  Te  Te104  1  0.09971998  0.59295976  0.91205142  1
  Te  Te105  1  0.07302630  0.91677766  0.26540069  1
  Te  Te106  1  0.07088618  0.92780402  0.59554399  1
  Te  Te107  1  0.08487025  0.90422662  0.92135529  1
  Te  Te108  1  0.42179559  0.25908389  0.24380896  1
  Te  Te109  1  0.39473674  0.24143814  0.57880371  1
  Te  Te110  1  0.42115697  0.24301061  0.90675381  1
  Te  Te111  1  0.41885459  0.58461539  0.26251853  1
  Te  Te112  1  0.44155025  0.60155841  0.62264031  1
  Te  Te113  1  0.46255592  0.57629037  0.88549737  1
  Te  Te114  1  0.42813272  0.91583705  0.23978661  1
  Te  Te115  1  0.39807416  0.90525529  0.57803085  1
  Te  Te116  1  0.42208912  0.90983992  0.90955785  1
  Te  Te117  1  0.71839636  0.24027450  0.24285395  1
  Te  Te118  1  0.77157294  0.24285233  0.58616808  1
  Te  Te119  1  0.75870948  0.22625046  0.87161740  1
  Te  Te120  1  0.77296612  0.59812387  0.21468699  1
  Te  Te121  1  0.73737519  0.58159692  0.55434692  1
  Te  Te122  1  0.75498060  0.58990927  0.95613946  1
  Te  Te123  1  0.77153432  0.88903345  0.26656558  1
  Te  Te124  1  0.74652506  0.91544944  0.57715146  1
  Te  Te125  1  0.75321844  0.89872333  0.91505127  1
  Te  Te126  1  0.23831194  0.23876056  0.09097082  1
  Te  Te127  1  0.22668430  0.24416191  0.42299917  1
  Te  Te128  1  0.24659275  0.25057529  0.73207319  1
  Te  Te129  1  0.23182114  0.57436601  0.08332322  1
  Te  Te130  1  0.28903372  0.60834095  0.42679374  1
  Te  Te131  1  0.33844924  0.60446536  0.79052686  1
  Te  Te132  1  0.25484318  0.92864190  0.07273468  1
  Te  Te133  1  0.25146442  0.89290220  0.43616244  1
  Te  Te134  1  0.26058136  0.91100521  0.74709749  1
  Te  Te135  1  0.57274937  0.25396226  0.08551232  1
  Te  Te136  1  0.57363815  0.24146095  0.38953506  1
  Te  Te137  1  0.57956592  0.27657912  0.74191243  1
  Te  Te138  1  0.55644097  0.57135337  0.08788896  1
  Te  Te139  1  0.54345460  0.62652268  0.46373361  1
  Te  Te140  1  0.63225564  0.57522279  0.75446576  1
  Te  Te141  1  0.60250537  0.90149103  0.06290163  1
  Te  Te142  1  0.58822513  0.94209492  0.40358764  1
  Te  Te143  1  0.55169729  0.92877373  0.73046081  1
  Te  Te144  1  0.90030060  0.26188465  0.06931559  1
  Te  Te145  1  0.91066234  0.25126056  0.41137290  1
  Te  Te146  1  0.87381209  0.26847755  0.78434381  1
  Te  Te147  1  0.91480863  0.59388092  0.11704058  1
  Te  Te148  1  0.92005053  0.57225461  0.42343121  1
  Te  Te149  1  0.90857154  0.61137282  0.76257257  1
  Te  Te150  1  0.89238360  0.92294901  0.08202448  1
  Te  Te151  1  0.91098344  0.93268843  0.40359550  1
  Te  Te152  1  0.90885018  0.93033119  0.73872819  1
  Te  Te153  1  0.25659076  0.08351146  0.26559325  1
  Te  Te154  1  0.24966059  0.05961075  0.59693814  1
  Te  Te155  1  0.25839026  0.08880316  0.92195408  1
  Te  Te156  1  0.24377921  0.43074157  0.25731918  1
  Te  Te157  1  0.25974387  0.45361175  0.61724390  1
  Te  Te158  1  0.26366779  0.41651952  0.87578205  1
  Te  Te159  1  0.27868411  0.74595384  0.26987801  1
  Te  Te160  1  0.25846811  0.72438627  0.61296740  1
  Te  Te161  1  0.24675960  0.75404439  0.89656635  1
  Te  Te162  1  0.60221342  0.01278049  0.25214168  1
  Te  Te163  1  0.58715758  0.09537087  0.56572891  1
  Te  Te164  1  0.58149652  0.08758851  0.89855600  1
  Te  Te165  1  0.59366653  0.44457200  0.26666649  1
  Te  Te166  1  0.59992717  0.41181550  0.55672214  1
  Te  Te167  1  0.60596226  0.40511944  0.91748891  1
  Te  Te168  1  0.56587480  0.75563348  0.27796823  1
  Te  Te169  1  0.58190258  0.75985799  0.55997445  1
  Te  Te170  1  0.57837741  0.74161669  0.90658449  1
  Te  Te171  1  0.91924519  0.08295423  0.23153932  1
  Te  Te172  1  0.90850435  0.09262507  0.60509754  1
  Te  Te173  1  0.90783066  0.08953137  0.92791284  1
  Te  Te174  1  0.92315736  0.40577137  0.26242529  1
  Te  Te175  1  0.91615640  0.42337388  0.58744084  1
  Te  Te176  1  0.88404309  0.42494449  0.89548690  1
  Te  Te177  1  0.95643816  0.77022863  0.22081750  1
  Te  Te178  1  0.89926111  0.76333275  0.58901701  1
  Te  Te179  1  0.92563240  0.74700226  0.94351164  1
