# generated using pymatgen
data_In2Te3
_symmetry_space_group_name_H-M   'P 1'
_cell_length_a   18.78911234
_cell_length_b   18.78333388
_cell_length_c   18.78628548
_cell_angle_alpha   89.99687080
_cell_angle_beta   90.04755809
_cell_angle_gamma   90.00526892
_symmetry_Int_Tables_number   1
_chemical_formula_structural   In2Te3
_chemical_formula_sum   'In72 Te108'
_cell_volume   6630.09432558
_cell_formula_units_Z   36
loop_
 _symmetry_equiv_pos_site_id
 _symmetry_equiv_pos_as_xyz
  1  'x, y, z'
loop_
 _atom_site_type_symbol
 _atom_site_label
 _atom_site_symmetry_multiplicity
 _atom_site_fract_x
 _atom_site_fract_y
 _atom_site_fract_z
 _atom_site_occupancy
  In  In0  1  0.83391632  0.80920366  0.68459601  1
  In  In1  1  -0.00270405  -0.00333495  0.67239794  1
  In  In2  1  0.36611191  0.68362902  -0.00995161  1
  In  In3  1  -0.00402632  0.50233526  0.16992642  1
  In  In4  1  0.48294688  0.16216136  0.67982825  1
  In  In5  1  -0.00895162  0.31317583  -0.00938628  1
  In  In6  1  0.32317388  0.51174556  0.50802563  1
  In  In7  1  0.50811240  -0.00679814  0.48246030  1
  In  In8  1  0.81147480  0.66387162  0.19671618  1
  In  In9  1  0.49252514  0.51079943  0.32716469  1
  In  In10  1  0.00459675  0.15833510  0.84123595  1
  In  In11  1  0.31038824  0.15585542  0.48233952  1
  In  In12  1  0.00592462  0.51792565  0.49772424  1
  In  In13  1  0.66818998  0.51608189  0.50714238  1
  In  In14  1  0.66739139  0.17802117  0.47579262  1
  In  In15  1  0.04205289  0.35107510  0.68511460  1
  In  In16  1  0.16840246  0.13941840  0.02378441  1
  In  In17  1  0.66687911  -0.01759091  -0.00777692  1
  In  In18  1  0.83482782  0.32565581  0.13519570  1
  In  In19  1  0.65153439  0.34334187  0.34539780  1
  In  In20  1  0.31610467  0.35422831  0.65708841  1
  In  In21  1  0.66093151  0.83601928  0.49392717  1
  In  In22  1  0.84938231  0.86437098  0.02588084  1
  In  In23  1  0.04210679  0.66804692  -0.01037746  1
  In  In24  1  0.63107788  0.68386242  -0.00290684  1
  In  In25  1  0.67430962  0.35782747  -0.00873916  1
  In  In26  1  0.85034959  0.00404793  0.49737602  1
  In  In27  1  0.49738200  0.68654245  0.16323737  1
  In  In28  1  0.00975051  0.31777384  0.30688248  1
  In  In29  1  0.18069635  0.50878938  0.34532783  1
  In  In30  1  0.65458334  0.83888340  0.16368895  1
  In  In31  1  0.31916500  0.00330308  0.29983464  1
  In  In32  1  0.17888104  0.70131570  0.16824542  1
  In  In33  1  0.17924514  0.49166781  -0.01477792  1
  In  In34  1  0.83698983  0.50611682  -0.00678899  1
  In  In35  1  0.65072067  0.33807874  0.67007799  1
  In  In36  1  0.16686873  0.30334046  0.16774443  1
  In  In37  1  -0.00213829  0.65849320  0.65650960  1
  In  In38  1  0.15564329  0.16962882  0.66640625  1
  In  In39  1  0.00200707  0.69886134  0.33776838  1
  In  In40  1  0.51310364  0.32075444  0.48525347  1
  In  In41  1  0.50739307  0.32208037  0.84503006  1
  In  In42  1  0.14927821  0.01166098  0.50619524  1
  In  In43  1  0.82673163  0.13623931  0.66657321  1
  In  In44  1  0.83105731  0.34020385  0.47484771  1
  In  In45  1  0.46902433  0.33705491  0.16980407  1
  In  In46  1  0.35227981  0.50980109  0.15284455  1
  In  In47  1  0.65212889  0.15795465  0.17021543  1
  In  In48  1  0.83492847  0.15007683  0.32521734  1
  In  In49  1  0.82137407  0.32283776  0.82001167  1
  In  In50  1  0.65924724  -0.00547711  0.68465943  1
  In  In51  1  0.16128828  0.83973394  0.33296503  1
  In  In52  1  0.01020881  -0.00011055  0.32402727  1
  In  In53  1  0.33119643  0.30657898  0.31701858  1
  In  In54  1  0.19191208  0.84526645  0.66864727  1
  In  In55  1  0.82747205  0.84911603  0.32215625  1
  In  In56  1  0.00874319  0.85227489  0.84941289  1
  In  In57  1  0.83538580  0.65366823  0.49493978  1
  In  In58  1  0.17862740  0.86584829  0.02710718  1
  In  In59  1  0.82380531  0.67582747  0.82950643  1
  In  In60  1  0.48621820  0.66399233  0.49542964  1
  In  In61  1  0.32919227  0.81416057  0.49967340  1
  In  In62  1  0.33506811  0.51366724  0.83996795  1
  In  In63  1  0.81251104  0.48851837  0.66314649  1
  In  In64  1  0.32118944  0.15253871  0.84255951  1
  In  In65  1  0.34411057  -0.02219714  0.70673857  1
  In  In66  1  0.48904161  0.81930840  0.69723455  1
  In  In67  1  0.48725569  -0.01025835  0.16567298  1
  In  In68  1  0.85324673  0.15860930  0.01055671  1
  In  In69  1  0.49774849  0.14751393  0.01590471  1
  In  In70  1  0.51474610  0.54458666  0.71191477  1
  In  In71  1  0.18450456  0.66492591  0.82912796  1
  Te  Te72  1  0.07423044  0.04070043  0.09122774  1
  Te  Te73  1  0.09575356  0.09831334  0.39924651  1
  Te  Te74  1  0.09862529  0.06584503  0.76223350  1
  Te  Te75  1  0.07983222  0.41123190  0.08021557  1
  Te  Te76  1  0.07583483  0.41606282  0.40547451  1
  Te  Te77  1  0.09953946  0.43451119  0.78769188  1
  Te  Te78  1  0.07086520  0.77771297  0.09156568  1
  Te  Te79  1  0.10550279  0.74401283  0.43154696  1
  Te  Te80  1  0.07488873  0.75269715  0.75324867  1
  Te  Te81  1  0.39844400  0.04019232  0.05230294  1
  Te  Te82  1  0.41179504  0.07859069  0.39907496  1
  Te  Te83  1  0.43815406  0.06653882  0.78878254  1
  Te  Te84  1  0.41320764  0.41608454  0.05803055  1
  Te  Te85  1  0.41056501  0.41319533  0.41405402  1
  Te  Te86  1  0.43195946  0.40982382  0.74036300  1
  Te  Te87  1  0.40595052  0.78188036  0.09275013  1
  Te  Te88  1  0.43629421  0.77263168  0.40789275  1
  Te  Te89  1  0.40381532  0.73630210  0.78865634  1
  Te  Te90  1  0.74744255  0.07626915  0.08528320  1
  Te  Te91  1  0.74015603  0.06222222  0.40847412  1
  Te  Te92  1  0.74599889  0.07741433  0.77293698  1
  Te  Te93  1  0.74473649  0.44380006  0.09741826  1
  Te  Te94  1  0.75434449  0.44917785  0.39762762  1
  Te  Te95  1  0.72191008  0.42881521  0.77034545  1
  Te  Te96  1  0.75328732  0.74677849  0.07965738  1
  Te  Te97  1  0.75112255  0.74714560  0.40748932  1
  Te  Te98  1  0.71427756  0.75973545  0.76356225  1
  Te  Te99  1  0.09483249  0.20627325  0.25571707  1
  Te  Te100  1  0.08328594  0.26126079  0.57639935  1
  Te  Te101  1  0.10360563  0.24276473  0.91906051  1
  Te  Te102  1  0.09020788  0.59642265  0.24536592  1
  Te  Te103  1  0.10301952  0.57778653  0.59090624  1
  Te  Te104  1  0.07606703  0.55838857  0.88556681  1
  Te  Te105  1  0.10250725  0.93000269  0.22840153  1
  Te  Te106  1  0.07795042  0.90171358  0.58350380  1
  Te  Te107  1  0.08418823  0.94410817  0.93994239  1
  Te  Te108  1  0.40037358  0.21706259  0.22249124  1
  Te  Te109  1  0.40971435  0.24792546  0.57479705  1
  Te  Te110  1  0.41020140  0.24205138  0.93025604  1
  Te  Te111  1  0.39589132  0.60582044  0.26009317  1
  Te  Te112  1  0.41308633  0.59047039  0.60762014  1
  Te  Te113  1  0.44312693  0.57715996  0.92044327  1
  Te  Te114  1  0.40667763  0.89196053  0.24887627  1
  Te  Te115  1  0.42451086  0.91845113  0.58774451  1
  Te  Te116  1  0.43420907  0.86227679  0.86131729  1
  Te  Te117  1  0.74918126  0.25800488  0.25230185  1
  Te  Te118  1  0.75060018  0.25789276  0.58382190  1
  Te  Te119  1  0.75156325  0.24208806  0.92786516  1
  Te  Te120  1  0.74749534  0.55694084  0.26942970  1
  Te  Te121  1  0.73898117  0.60917391  0.60506567  1
  Te  Te122  1  0.73435453  0.59137757  0.92063108  1
  Te  Te123  1  0.75236596  0.93260037  0.22619487  1
  Te  Te124  1  0.75959826  0.91902366  0.58764432  1
  Te  Te125  1  0.75421673  0.88810055  0.91641034  1
  Te  Te126  1  0.26582085  0.23765849  0.08126322  1
  Te  Te127  1  0.23223269  0.26059454  0.41552649  1
  Te  Te128  1  0.24914598  0.25494100  0.75208381  1
  Te  Te129  1  0.24688512  0.59685226  0.07419201  1
  Te  Te130  1  0.26006134  0.61009914  0.41673258  1
  Te  Te131  1  0.24726394  0.57065341  0.73466907  1
  Te  Te132  1  0.27113646  0.95553173  0.11134064  1
  Te  Te133  1  0.25505160  0.93196088  0.42794456  1
  Te  Te134  1  0.24051620  0.91373625  0.78977384  1
  Te  Te135  1  0.58771371  0.26462325  0.08185529  1
  Te  Te136  1  0.55944466  0.22443061  0.37738365  1
  Te  Te137  1  0.59653439  0.22846119  0.75976270  1
  Te  Te138  1  0.57352265  0.58387804  0.08887919  1
  Te  Te139  1  0.59116981  0.59839732  0.40430830  1
  Te  Te140  1  0.61138672  0.63926404  0.76921218  1
  Te  Te141  1  0.55926356  0.89974449  0.06140206  1
  Te  Te142  1  0.58499840  0.90831697  0.38960419  1
  Te  Te143  1  0.57729709  0.91308685  0.77883292  1
  Te  Te144  1  0.94844149  0.22622490  0.10907602  1
  Te  Te145  1  0.92374471  0.23894901  0.41179967  1
  Te  Te146  1  0.92324767  0.24302816  0.73860202  1
  Te  Te147  1  0.92756409  0.59997380  0.07472493  1
  Te  Te148  1  0.91891365  0.58180565  0.38978408  1
  Te  Te149  1  0.90712947  0.57603939  0.74776648  1
  Te  Te150  1  0.93715429  0.96563634  0.09043776  1
  Te  Te151  1  0.93405163  0.90526685  0.41835524  1
  Te  Te152  1  0.90039530  0.92201867  0.76330448  1
  Te  Te153  1  0.23329306  0.07293734  0.19688622  1
  Te  Te154  1  0.26298832  0.07264496  0.60387927  1
  Te  Te155  1  0.25033032  0.05474729  0.92867365  1
  Te  Te156  1  0.24751451  0.42195259  0.23652361  1
  Te  Te157  1  0.22017262  0.42313667  0.56884631  1
  Te  Te158  1  0.26840906  0.40154296  0.91156068  1
  Te  Te159  1  0.27248129  0.77911502  0.25170868  1
  Te  Te160  1  0.26538055  0.73501621  0.60577541  1
  Te  Te161  1  0.24029063  0.75536111  0.93689136  1
  Te  Te162  1  0.58324295  0.05966064  0.25510131  1
  Te  Te163  1  0.58640045  0.09270130  0.58073117  1
  Te  Te164  1  0.58684106  0.08348741  0.91758039  1
  Te  Te165  1  0.57748114  0.42265830  0.23712153  1
  Te  Te166  1  0.56585907  0.43013294  0.58148158  1
  Te  Te167  1  0.57644242  0.43537123  0.91220737  1
  Te  Te168  1  0.59292050  0.74604770  0.26033052  1
  Te  Te169  1  0.57481114  0.75190509  0.58581276  1
  Te  Te170  1  0.53162602  0.74536977  0.89939938  1
  Te  Te171  1  0.90075354  0.05264075  0.23306167  1
  Te  Te172  1  0.94228861  0.09921193  0.57243749  1
  Te  Te173  1  0.91824764  0.06515970  0.91672438  1
  Te  Te174  1  0.90398657  0.40913394  0.24559970  1
  Te  Te175  1  0.91647893  0.41357052  0.58022856  1
  Te  Te176  1  0.91554984  0.41219706  0.90216441  1
  Te  Te177  1  0.92007947  0.76794815  0.22974804  1
  Te  Te178  1  0.92007256  0.75718710  0.56920663  1
  Te  Te179  1  0.92211442  0.74700455  0.92485351  1
