# generated using pymatgen
data_In2Te3
_symmetry_space_group_name_H-M   'P 1'
_cell_length_a   19.05051268
_cell_length_b   19.02117193
_cell_length_c   19.06148076
_cell_angle_alpha   90.30657661
_cell_angle_beta   90.32024979
_cell_angle_gamma   90.08586313
_symmetry_Int_Tables_number   1
_chemical_formula_structural   In2Te3
_chemical_formula_sum   'In72 Te108'
_cell_volume   6906.96197776
_cell_formula_units_Z   36
loop_
 _symmetry_equiv_pos_site_id
 _symmetry_equiv_pos_as_xyz
  1  'x, y, z'
loop_
 _atom_site_type_symbol
 _atom_site_label
 _atom_site_symmetry_multiplicity
 _atom_site_fract_x
 _atom_site_fract_y
 _atom_site_fract_z
 _atom_site_occupancy
  In  In0  1  -0.01061285  0.13995412  0.50298601  1
  In  In1  1  0.15566719  0.14024188  0.00558698  1
  In  In2  1  0.17406737  0.00576279  0.82266598  1
  In  In3  1  -0.03608044  -0.04230795  0.32682542  1
  In  In4  1  0.34124401  0.83972524  0.18528929  1
  In  In5  1  0.85296821  0.66777579  0.51957568  1
  In  In6  1  0.48180315  0.83173515  0.33285179  1
  In  In7  1  0.47562180  0.34969340  0.14086797  1
  In  In8  1  -0.01814269  0.72727042  0.00412373  1
  In  In9  1  0.35907650  0.19204086  0.83115847  1
  In  In10  1  0.33919438  0.66870474  0.33484450  1
  In  In11  1  0.34634998  0.82092751  0.83855675  1
  In  In12  1  0.13425799  -0.01326375  0.17404685  1
  In  In13  1  0.16997408  0.53967140  -0.00917662  1
  In  In14  1  0.14607850  0.50683216  0.33386251  1
  In  In15  1  0.72930874  -0.03520869  0.31219694  1
  In  In16  1  -0.02207784  -0.02363681  -0.01977971  1
  In  In17  1  0.82925948  0.14112168  -0.03310839  1
  In  In18  1  -0.00905978  0.52870397  0.15575304  1
  In  In19  1  0.32914472  0.34559022  0.67345814  1
  In  In20  1  0.01773851  0.47993930  0.51825190  1
  In  In21  1  0.18383832  0.81794611  0.00024473  1
  In  In22  1  0.67214542  0.81888051  0.51123715  1
  In  In23  1  0.69269524  0.14104615  0.14892916  1
  In  In24  1  0.33394854  0.15507994  0.14746467  1
  In  In25  1  0.18339418  0.33085883  0.51314056  1
  In  In26  1  0.65706219  0.53066954  0.18559147  1
  In  In27  1  0.66455365  0.68527116  0.68718744  1
  In  In28  1  0.35461177  0.50557931  0.51085867  1
  In  In29  1  0.83800623  0.82464843  0.67496987  1
  In  In30  1  0.68657524  0.69153741  0.00633345  1
  In  In31  1  0.00628209  0.49400068  0.83243750  1
  In  In32  1  0.70715690  -0.05547995  -0.01265715  1
  In  In33  1  0.83785229  0.50618316  0.01336406  1
  In  In34  1  0.61630204  0.58058485  0.53198569  1
  In  In35  1  0.84826252  0.34126216  0.15385708  1
  In  In36  1  0.65163385  0.34946892  0.67603834  1
  In  In37  1  0.65916368  -0.04384771  0.71786541  1
  In  In38  1  -0.01305592  -0.01163036  0.65751050  1
  In  In39  1  0.67739667  0.47774249  0.86176544  1
  In  In40  1  -0.02932403  0.69539997  0.32163776  1
  In  In41  1  0.11850783  0.16053298  0.32975682  1
  In  In42  1  0.66599512  0.33615490  0.31316873  1
  In  In43  1  0.14521927  0.67706033  0.50000797  1
  In  In44  1  0.33648127  0.85549850  0.50283606  1
  In  In45  1  0.66884944  0.69925401  0.34320558  1
  In  In46  1  0.50454741  0.83479034  0.00064298  1
  In  In47  1  0.34057436  0.15355693  0.52742480  1
  In  In48  1  0.49073994  0.67315659  0.82917704  1
  In  In49  1  0.01267054  0.32140132  -0.01345967  1
  In  In50  1  0.51365974  0.16672871  0.30086278  1
  In  In51  1  0.48484634  0.50174232  0.67869304  1
  In  In52  1  0.16991816  0.14657088  0.64527296  1
  In  In53  1  0.01211393  0.68346695  0.70938470  1
  In  In54  1  0.15255586  0.33671540  0.19245979  1
  In  In55  1  0.83094624  0.32859003  0.50187848  1
  In  In56  1  0.30238926  0.34228113  0.35296509  1
  In  In57  1  0.35133927  -0.02511257  -0.01826427  1
  In  In58  1  0.49256967  0.68020897  0.15972781  1
  In  In59  1  0.85481064  0.13736148  0.32921052  1
  In  In60  1  0.68432591  0.17364776  0.47647206  1
  In  In61  1  0.51041957  0.15514186  -0.02841242  1
  In  In62  1  0.16227217  0.83797359  0.68172991  1
  In  In63  1  0.81476544  0.52160197  0.33378957  1
  In  In64  1  0.32928283  0.00717024  0.34166925  1
  In  In65  1  0.51431879  -0.01416165  0.50451205  1
  In  In66  1  0.31991602  0.53106753  0.82050310  1
  In  In67  1  0.67140458  0.30547061  -0.00240117  1
  In  In68  1  -0.02738946  0.30730236  0.70099711  1
  In  In69  1  0.67033490  0.14953671  0.80866438  1
  In  In70  1  0.30868618  0.37236303  0.00949313  1
  In  In71  1  0.50378076  0.18620661  0.65303726  1
  Te  Te72  1  0.04840073  0.07028104  0.08214104  1
  Te  Te73  1  0.06432399  0.04837800  0.40981645  1
  Te  Te74  1  0.07594887  0.08540820  0.74391886  1
  Te  Te75  1  0.07340818  0.41958000  0.09092306  1
  Te  Te76  1  0.08587617  0.39388501  0.41331185  1
  Te  Te77  1  0.07694045  0.39934666  0.74500957  1
  Te  Te78  1  0.10455223  0.73506244  0.08784610  1
  Te  Te79  1  0.05421293  0.76086417  0.42198949  1
  Te  Te80  1  0.12725153  0.73817980  0.78611794  1
  Te  Te81  1  0.43214433  0.07108664  0.07064547  1
  Te  Te82  1  0.43499939  0.09151003  0.41541867  1
  Te  Te83  1  0.41559962  0.10208583  0.73214733  1
  Te  Te84  1  0.40111110  0.46471989  0.08255754  1
  Te  Te85  1  0.41281506  0.41573100  0.41256223  1
  Te  Te86  1  0.41496307  0.41291562  0.77609173  1
  Te  Te87  1  0.39588325  0.75675891  0.07127680  1
  Te  Te88  1  0.42093675  0.74559076  0.43753520  1
  Te  Te89  1  0.39514906  0.72928138  0.73222776  1
  Te  Te90  1  0.78528590  0.04814109  0.07761977  1
  Te  Te91  1  0.77120371  0.06040330  0.42806840  1
  Te  Te92  1  0.76011807  0.06157407  0.73309626  1
  Te  Te93  1  0.73607482  0.42636235  0.09931186  1
  Te  Te94  1  0.74136266  0.41893797  0.41639994  1
  Te  Te95  1  0.75435130  0.41533195  0.75577358  1
  Te  Te96  1  0.73422918  0.81705698  0.07313520  1
  Te  Te97  1  0.79055406  0.76694275  0.42101533  1
  Te  Te98  1  0.75134843  0.76362610  0.77876318  1
  Te  Te99  1  0.04896645  0.24074396  0.23165504  1
  Te  Te100  1  0.07566436  0.24802037  0.58046558  1
  Te  Te101  1  0.10628378  0.23851378  0.91182035  1
  Te  Te102  1  0.07690221  0.61067092  0.25027695  1
  Te  Te103  1  0.07841590  0.58906607  0.60292782  1
  Te  Te104  1  0.04659782  0.59952276  0.93608300  1
  Te  Te105  1  0.06797377  0.88164464  0.25041949  1
  Te  Te106  1  0.09714306  0.92663541  0.58463558  1
  Te  Te107  1  0.10231587  0.91506842  0.91690595  1
  Te  Te108  1  0.40354642  0.25766013  0.24328154  1
  Te  Te109  1  0.41527858  0.27757502  0.56937123  1
  Te  Te110  1  0.41036842  0.26762086  0.95126251  1
  Te  Te111  1  0.44064893  0.59200144  0.26404835  1
  Te  Te112  1  0.39859852  0.60219536  0.61356390  1
  Te  Te113  1  0.41608329  0.58449403  0.91606199  1
  Te  Te114  1  0.43016371  0.94593345  0.24690883  1
  Te  Te115  1  0.43396930  0.91370441  0.60372705  1
  Te  Te116  1  0.45098597  0.92667609  0.88125021  1
  Te  Te117  1  0.76605713  0.24181474  0.24819431  1
  Te  Te118  1  0.74064920  0.25213798  0.59348140  1
  Te  Te119  1  0.75753538  0.24964182  0.88829724  1
  Te  Te120  1  0.75856556  0.62804424  0.24246364  1
  Te  Te121  1  0.75292259  0.59132240  0.59924258  1
  Te  Te122  1  0.76199504  0.59459269  0.91801344  1
  Te  Te123  1  0.78165935  0.86385228  0.21938626  1
  Te  Te124  1  0.74480159  0.91679616  0.59811938  1
  Te  Te125  1  0.80416813  0.89713315  0.87927220  1
  Te  Te126  1  0.23711346  0.25633255  0.08810031  1
  Te  Te127  1  0.23928130  0.22104117  0.41718674  1
  Te  Te128  1  0.24705588  0.24003125  0.74146788  1
  Te  Te129  1  0.26280973  0.54651954  0.10121011  1
  Te  Te130  1  0.24333503  0.57731639  0.42730908  1
  Te  Te131  1  0.22285135  0.55166836  0.71475424  1
  Te  Te132  1  0.25195514  0.93271373  0.08793792  1
  Te  Te133  1  0.24980698  0.89664457  0.39126207  1
  Te  Te134  1  0.27154054  0.92115426  0.74952038  1
  Te  Te135  1  0.58308054  0.23461761  0.09884669  1
  Te  Te136  1  0.57841121  0.25559962  0.40617403  1
  Te  Te137  1  0.57282703  0.25798173  0.76735125  1
  Te  Te138  1  0.58645557  0.59862440  0.07192805  1
  Te  Te139  1  0.58446997  0.58934198  0.38991541  1
  Te  Te140  1  0.59362670  0.57196838  0.76254564  1
  Te  Te141  1  0.59006207  0.92621991  0.07716470  1
  Te  Te142  1  0.60150341  0.90782891  0.40892317  1
  Te  Te143  1  0.53124389  0.89266158  0.72959803  1
  Te  Te144  1  0.90491545  0.24145395  0.05929184  1
  Te  Te145  1  0.92102454  0.24434379  0.41571016  1
  Te  Te146  1  0.91494021  0.22238413  0.80377778  1
  Te  Te147  1  0.89382151  0.62164439  0.09118540  1
  Te  Te148  1  0.92913473  0.56855799  0.42855380  1
  Te  Te149  1  0.91743378  0.58841150  0.76339460  1
  Te  Te150  1  0.95345445  0.86212497  0.07249957  1
  Te  Te151  1  0.86060520  0.90742432  0.41767239  1
  Te  Te152  1  0.94053386  0.89424603  0.76579778  1
  Te  Te153  1  0.23589762  0.08927219  0.24284796  1
  Te  Te154  1  0.24591914  0.05060581  0.56473141  1
  Te  Te155  1  0.27308837  0.08772945  0.91663424  1
  Te  Te156  1  0.25322125  0.44020539  0.24858985  1
  Te  Te157  1  0.23547977  0.44462642  0.60460750  1
  Te  Te158  1  0.22609522  0.43277266  0.90133247  1
  Te  Te159  1  0.24933907  0.75525378  0.25917920  1
  Te  Te160  1  0.24385856  0.76054019  0.57836460  1
  Te  Te161  1  0.24529965  0.72910249  0.89834272  1
  Te  Te162  1  0.62304784  0.07083641  0.26206089  1
  Te  Te163  1  0.59386676  0.09528743  0.57240876  1
  Te  Te164  1  0.61908693  0.06668844  0.92229096  1
  Te  Te165  1  0.56536448  0.42241925  0.24038271  1
  Te  Te166  1  0.57804692  0.43804061  0.57896588  1
  Te  Te167  1  0.58258209  0.40818688  0.94777553  1
  Te  Te168  1  0.58323279  0.77206071  0.23959003  1
  Te  Te169  1  0.57359053  0.72441114  0.57257384  1
  Te  Te170  1  0.59177444  0.75709343  0.90654231  1
  Te  Te171  1  0.90014366  0.04463476  0.22651663  1
  Te  Te172  1  0.89811184  0.09302392  0.60514712  1
  Te  Te173  1  0.93773149  0.08659561  0.88173603  1
  Te  Te174  1  0.91153720  0.43700905  0.25211158  1
  Te  Te175  1  0.91178700  0.41107539  0.59891768  1
  Te  Te176  1  0.91026653  0.41285176  0.92168498  1
  Te  Te177  1  0.92022390  0.79413110  0.22044076  1
  Te  Te178  1  0.94625115  0.76048025  0.59223052  1
  Te  Te179  1  0.90942330  0.79099588  0.88345391  1
