# generated using pymatgen
data_In2Te3
_symmetry_space_group_name_H-M   'P 1'
_cell_length_a   18.77915071
_cell_length_b   18.77619918
_cell_length_c   18.78224722
_cell_angle_alpha   89.96743320
_cell_angle_beta   89.95265400
_cell_angle_gamma   89.99291257
_symmetry_Int_Tables_number   1
_chemical_formula_structural   In2Te3
_chemical_formula_sum   'In72 Te108'
_cell_volume   6622.63716648
_cell_formula_units_Z   36
loop_
 _symmetry_equiv_pos_site_id
 _symmetry_equiv_pos_as_xyz
  1  'x, y, z'
loop_
 _atom_site_type_symbol
 _atom_site_label
 _atom_site_symmetry_multiplicity
 _atom_site_fract_x
 _atom_site_fract_y
 _atom_site_fract_z
 _atom_site_occupancy
  In  In0  1  0.35309794  0.68681805  0.34583661  1
  In  In1  1  0.81498366  0.33065468  0.51490280  1
  In  In2  1  0.49961516  0.00735339  0.81971022  1
  In  In3  1  0.50794484  0.53277526  -0.00367325  1
  In  In4  1  0.33134768  0.82633781  0.81856693  1
  In  In5  1  0.33750314  0.32331721  -0.00630252  1
  In  In6  1  0.19886660  0.32904830  0.47250531  1
  In  In7  1  0.17452190  0.83523419  -0.03492951  1
  In  In8  1  0.16730905  0.16511471  0.33365482  1
  In  In9  1  0.18006753  0.00077918  0.50485840  1
  In  In10  1  0.00498238  0.34019067  0.67216433  1
  In  In11  1  0.16603782  0.34450596  0.81171308  1
  In  In12  1  0.17150918  -0.01623123  0.14837067  1
  In  In13  1  -0.02610395  0.68443602  0.33776642  1
  In  In14  1  0.82252002  0.52034409  0.01150500  1
  In  In15  1  0.49260679  0.33627405  0.82914522  1
  In  In16  1  0.82498010  -0.00055410  0.18547461  1
  In  In17  1  -0.00533243  0.81924795  0.18287611  1
  In  In18  1  -0.03514319  0.32782560  0.33590992  1
  In  In19  1  0.66100578  0.82542856  0.83639703  1
  In  In20  1  0.80047172  0.53840285  0.31582788  1
  In  In21  1  0.17861026  0.67603927  0.51959022  1
  In  In22  1  -0.01561127  0.66547493  -0.01708217  1
  In  In23  1  0.84732081  0.51976803  0.70493419  1
  In  In24  1  0.82320933  0.00344860  0.48424199  1
  In  In25  1  -0.02222799  0.36570252  -0.00469614  1
  In  In26  1  0.34082471  0.50131611  0.53151294  1
  In  In27  1  0.83792794  0.34224595  0.84311469  1
  In  In28  1  0.18145264  0.54716166  0.69302732  1
  In  In29  1  0.84984200  -0.03538787  0.81566640  1
  In  In30  1  0.34201525  0.31365162  0.34296678  1
  In  In31  1  0.66357096  0.67766739  0.66974885  1
  In  In32  1  -0.00643100  0.52861468  0.48270195  1
  In  In33  1  0.68385808  0.50044118  0.84295398  1
  In  In34  1  0.31594497  0.49496637  0.15346617  1
  In  In35  1  0.51299247  0.33509674  0.19354915  1
  In  In36  1  0.81619185  0.14990105  0.63674767  1
  In  In37  1  0.19516393  0.16421301  -0.02020273  1
  In  In38  1  -0.00981623  0.14872683  0.51691964  1
  In  In39  1  0.50861326  0.67535261  0.16397957  1
  In  In40  1  0.34378344  0.32320956  0.66079635  1
  In  In41  1  0.81350889  0.81604351  0.00044489  1
  In  In42  1  0.52036447  0.81510816  0.01495680  1
  In  In43  1  0.34493898  -0.01224571  0.34044804  1
  In  In44  1  0.00733380  -0.01375867  -0.01227176  1
  In  In45  1  0.49396903  0.68576040  0.84392439  1
  In  In46  1  0.48229787  0.51040599  0.65155588  1
  In  In47  1  0.50761991  0.86648702  0.62893414  1
  In  In48  1  0.53060644  0.50761147  0.32443481  1
  In  In49  1  0.49639026  0.16119947  0.01101318  1
  In  In50  1  0.16251676  0.32172778  0.12421733  1
  In  In51  1  -0.01454928  0.14678199  0.18369052  1
  In  In52  1  -0.02552937  0.80650368  0.53077515  1
  In  In53  1  0.79292787  0.82457048  0.37629769  1
  In  In54  1  0.82853729  0.16700757  0.01002595  1
  In  In55  1  0.02347483  0.16483057  0.82503792  1
  In  In56  1  0.16916202  0.67038283  0.17757496  1
  In  In57  1  0.15435186  0.50608393  -0.00728073  1
  In  In58  1  0.16577237  0.85212016  0.32216653  1
  In  In59  1  0.52303766  0.31934432  0.47577729  1
  In  In60  1  0.80472976  0.34828955  0.17712242  1
  In  In61  1  0.67123919  0.16133890  0.82743591  1
  In  In62  1  0.16704324  0.14668973  0.66492644  1
  In  In63  1  0.15833863  0.50722298  0.32123198  1
  In  In64  1  0.66964083  0.83504916  0.16696281  1
  In  In65  1  0.51806102  0.13849692  0.35080849  1
  In  In66  1  0.16453308  0.81775376  0.68308794  1
  In  In67  1  0.65215750  0.15894948  0.18361574  1
  In  In68  1  0.66022078  0.50040899  0.49739356  1
  In  In69  1  0.51310562  0.86415932  0.36517783  1
  In  In70  1  0.52248448  0.13356640  0.64397729  1
  In  In71  1  0.34338852  0.00752055  -0.00952345  1
  Te  Te72  1  0.08485598  0.09519781  0.07432017  1
  Te  Te73  1  0.07779858  0.07317145  0.41607733  1
  Te  Te74  1  0.07405533  0.05723784  0.73880214  1
  Te  Te75  1  0.06729030  0.43719749  0.09845556  1
  Te  Te76  1  0.07307408  0.41242159  0.41720410  1
  Te  Te77  1  0.07258997  0.44876540  0.75451759  1
  Te  Te78  1  0.09180787  0.76236574  0.07933227  1
  Te  Te79  1  0.09276512  0.74696825  0.40981439  1
  Te  Te80  1  0.04642552  0.74794646  0.74582462  1
  Te  Te81  1  0.42443099  0.06585644  0.09819823  1
  Te  Te82  1  0.43100371  0.05851192  0.44598761  1
  Te  Te83  1  0.41206662  0.08535861  0.73022865  1
  Te  Te84  1  0.42494205  0.41294995  0.08319833  1
  Te  Te85  1  0.41998631  0.42394519  0.41625695  1
  Te  Te86  1  0.39861315  0.43094202  0.75407122  1
  Te  Te87  1  0.41042503  0.73136316  0.06910150  1
  Te  Te88  1  0.43104048  0.76467324  0.44284495  1
  Te  Te89  1  0.43916458  0.76496758  0.72702671  1
  Te  Te90  1  0.73768000  0.07210178  0.08368472  1
  Te  Te91  1  0.71051941  0.09708844  0.43941191  1
  Te  Te92  1  0.75195415  0.06160583  0.74456028  1
  Te  Te93  1  0.73741114  0.41020831  0.06254114  1
  Te  Te94  1  0.75338375  0.41967286  0.40699610  1
  Te  Te95  1  0.74697499  0.40730558  0.73909591  1
  Te  Te96  1  0.74694280  0.72407415  0.09878780  1
  Te  Te97  1  0.70757356  0.72368425  0.44462105  1
  Te  Te98  1  0.76337110  0.76538783  0.74263293  1
  Te  Te99  1  0.08020379  0.26008575  0.25046879  1
  Te  Te100  1  0.08741500  0.25208760  0.57573184  1
  Te  Te101  1  0.08240006  0.26889184  0.92285939  1
  Te  Te102  1  0.05693711  0.59184473  0.24558614  1
  Te  Te103  1  0.07021110  0.59815748  0.59355434  1
  Te  Te104  1  0.08796032  0.59919041  0.89942353  1
  Te  Te105  1  0.06401863  0.93891649  0.24856280  1
  Te  Te106  1  0.08547419  0.89965142  0.57553385  1
  Te  Te107  1  0.09497102  0.93015199  0.88288256  1
  Te  Te108  1  0.42541087  0.22638180  0.25274298  1
  Te  Te109  1  0.43144219  0.24007314  0.56948031  1
  Te  Te110  1  0.41113551  0.22767967  0.90092824  1
  Te  Te111  1  0.40697228  0.57313356  0.24855801  1
  Te  Te112  1  0.42605257  0.61721195  0.56461383  1
  Te  Te113  1  0.40268856  0.58530597  0.90688248  1
  Te  Te114  1  0.42689272  0.90328021  0.25037064  1
  Te  Te115  1  0.40883289  0.95502332  0.56129061  1
  Te  Te116  1  0.43411616  0.89983236  0.91089731  1
  Te  Te117  1  0.76954473  0.22483009  0.24967655  1
  Te  Te118  1  0.71857754  0.25189300  0.59437922  1
  Te  Te119  1  0.73982717  0.25823225  0.92497664  1
  Te  Te120  1  0.71646844  0.60464749  0.21333424  1
  Te  Te121  1  0.75011095  0.57275520  0.59874970  1
  Te  Te122  1  0.76447315  0.60726814  0.90433229  1
  Te  Te123  1  0.72926562  0.92588767  0.27780389  1
  Te  Te124  1  0.72674576  0.91643504  0.55926354  1
  Te  Te125  1  0.74389555  0.92540589  0.92012121  1
  Te  Te126  1  0.27561694  0.22487873  0.09530485  1
  Te  Te127  1  0.27740221  0.20556005  0.43199690  1
  Te  Te128  1  0.25539358  0.23745692  0.75353281  1
  Te  Te129  1  0.25078096  0.60150703  0.06804047  1
  Te  Te130  1  0.25345866  0.57788478  0.41652110  1
  Te  Te131  1  0.28132168  0.62090623  0.77018551  1
  Te  Te132  1  0.26760616  0.89698962  0.06973459  1
  Te  Te133  1  0.26162265  0.89402345  0.43178817  1
  Te  Te134  1  0.25486670  0.92325996  0.73889499  1
  Te  Te135  1  0.58873914  0.25802581  0.08383202  1
  Te  Te136  1  0.62018155  0.23962830  0.39489777  1
  Te  Te137  1  0.57798518  0.24574292  0.74109831  1
  Te  Te138  1  0.59956198  0.56548106  0.11201443  1
  Te  Te139  1  0.59344607  0.60790063  0.41569409  1
  Te  Te140  1  0.57634778  0.57848319  0.75699334  1
  Te  Te141  1  0.57969622  0.92623153  0.09186811  1
  Te  Te142  1  0.61801292  0.93897291  0.45055324  1
  Te  Te143  1  0.59856971  0.92479323  0.73776299  1
  Te  Te144  1  0.92484816  0.25628147  0.08989985  1
  Te  Te145  1  0.89411052  0.23037900  0.42893139  1
  Te  Te146  1  0.91010543  0.24387859  0.74402020  1
  Te  Te147  1  0.91982519  0.59505477  0.09473996  1
  Te  Te148  1  0.87759696  0.61097187  0.43092454  1
  Te  Te149  1  0.93259213  0.63823973  0.72935078  1
  Te  Te150  1  0.91233096  0.91648789  0.08533150  1
  Te  Te151  1  0.92066755  0.89889819  0.42175017  1
  Te  Te152  1  0.93993111  0.86514155  0.75111222  1
  Te  Te153  1  0.25072706  0.07068642  0.24736335  1
  Te  Te154  1  0.27668332  0.06762322  0.59792581  1
  Te  Te155  1  0.24389488  0.05748687  0.89227424  1
  Te  Te156  1  0.24531807  0.39782972  0.24985556  1
  Te  Te157  1  0.22949523  0.41745714  0.59665505  1
  Te  Te158  1  0.25343780  0.42052975  0.91116997  1
  Te  Te159  1  0.26726240  0.76536347  0.24578061  1
  Te  Te160  1  0.27225867  0.75224537  0.60158030  1
  Te  Te161  1  0.23613772  0.72396152  0.88086317  1
  Te  Te162  1  0.57356020  0.04867494  0.24611770  1
  Te  Te163  1  0.62455668  0.05463018  0.56090394  1
  Te  Te164  1  0.58922824  0.07512309  0.92289600  1
  Te  Te165  1  0.62083700  0.40848997  0.26244050  1
  Te  Te166  1  0.57772662  0.40924482  0.58825245  1
  Te  Te167  1  0.58095875  0.41859758  0.92216966  1
  Te  Te168  1  0.57944395  0.75982507  0.26608563  1
  Te  Te169  1  0.60761183  0.76762627  0.56170602  1
  Te  Te170  1  0.61143290  0.72030976  0.93616299  1
  Te  Te171  1  0.89979676  0.08200243  0.28407792  1
  Te  Te172  1  0.92047946  0.04395635  0.60138592  1
  Te  Te173  1  0.91136021  0.08681384  0.90792405  1
  Te  Te174  1  0.90453942  0.43775129  0.25095041  1
  Te  Te175  1  0.91790542  0.42663616  0.57959383  1
  Te  Te176  1  0.91779226  0.45991342  0.89535639  1
  Te  Te177  1  0.87442154  0.76078380  0.25356847  1
  Te  Te178  1  0.86978191  0.74979630  0.61913986  1
  Te  Te179  1  0.92550847  0.78136744  0.90760330  1
