# generated using pymatgen
data_In2Te3
_symmetry_space_group_name_H-M   'P 1'
_cell_length_a   18.93144945
_cell_length_b   18.89492776
_cell_length_c   18.89100285
_cell_angle_alpha   89.98922280
_cell_angle_beta   89.87272444
_cell_angle_gamma   90.04439262
_symmetry_Int_Tables_number   1
_chemical_formula_structural   In2Te3
_chemical_formula_sum   'In72 Te108'
_cell_volume   6757.45101051
_cell_formula_units_Z   36
loop_
 _symmetry_equiv_pos_site_id
 _symmetry_equiv_pos_as_xyz
  1  'x, y, z'
loop_
 _atom_site_type_symbol
 _atom_site_label
 _atom_site_symmetry_multiplicity
 _atom_site_fract_x
 _atom_site_fract_y
 _atom_site_fract_z
 _atom_site_occupancy
  In  In0  1  0.33944170  0.36433636  0.31217613  1
  In  In1  1  0.83374735  0.17454290  0.64892068  1
  In  In2  1  0.33678940  0.81167543  0.83860751  1
  In  In3  1  0.81030941  0.50120041  0.28339583  1
  In  In4  1  0.50141348  -0.01637805  0.13269063  1
  In  In5  1  0.34457309  0.18927741  0.48549351  1
  In  In6  1  0.68347210  0.17073817  0.20100147  1
  In  In7  1  0.01861773  0.47655938  0.86016004  1
  In  In8  1  0.35118353  0.01359348  0.35005494  1
  In  In9  1  0.47966434  0.50445120  0.67283544  1
  In  In10  1  0.18164894  0.01789991  0.49417966  1
  In  In11  1  0.84545970  0.53596253  0.65547633  1
  In  In12  1  0.52281094  0.84349110  0.33268407  1
  In  In13  1  0.32788254  0.19794229  0.83184140  1
  In  In14  1  0.81927095  0.33713635  0.86337812  1
  In  In15  1  0.34230363  0.83441902  0.50885439  1
  In  In16  1  0.50096004  0.66713248  0.83312258  1
  In  In17  1  0.34979695  0.79412491  0.16720554  1
  In  In18  1  0.00083147  0.15195287  0.84148205  1
  In  In19  1  0.51214405  0.67010269  0.16136741  1
  In  In20  1  -0.02995885  0.02809211  0.04080950  1
  In  In21  1  0.01609422  0.64160638  0.32373597  1
  In  In22  1  0.80003803  0.80059511  0.01843100  1
  In  In23  1  0.48352589  0.14342634  -0.00816772  1
  In  In24  1  0.31550990  0.51254924  0.14851924  1
  In  In25  1  0.02227927  0.01452981  0.64626322  1
  In  In26  1  0.32232619  0.34989922  0.66295786  1
  In  In27  1  0.84048901  0.83252133  0.70675680  1
  In  In28  1  0.16999027  -0.01004069  0.15077890  1
  In  In29  1  0.15405969  0.22074779  0.01399387  1
  In  In30  1  0.80278643  0.85233475  0.28214588  1
  In  In31  1  0.14820041  0.18496293  0.33455982  1
  In  In32  1  0.01180664  0.21219522  0.48783961  1
  In  In33  1  0.34773274  -0.00537862  0.66046077  1
  In  In34  1  0.83354935  0.65465433  0.84876176  1
  In  In35  1  0.30279708  0.48063795  0.84037093  1
  In  In36  1  0.06237901  0.82026942  0.85235226  1
  In  In37  1  0.03816314  0.69290233  0.68807674  1
  In  In38  1  0.87222979  0.34469497  0.45879715  1
  In  In39  1  0.68732400  0.17265487  0.84733943  1
  In  In40  1  -0.04537720  0.32804116  0.28395124  1
  In  In41  1  0.32149563  0.62705660  0.36532167  1
  In  In42  1  -0.01147664  0.81895180  0.17051618  1
  In  In43  1  0.31975442  -0.01653080  -0.01353289  1
  In  In44  1  0.84054699  0.68586142  0.48594517  1
  In  In45  1  0.52527406  0.49205250  0.32128298  1
  In  In46  1  0.66867038  0.18327962  0.47706646  1
  In  In47  1  0.50090550  0.31588293  0.16600414  1
  In  In48  1  0.64561450  0.81240171  0.50088194  1
  In  In49  1  0.67078773  0.50383934  0.86432747  1
  In  In50  1  0.49478501  0.64598036  0.49806808  1
  In  In51  1  0.66259711  -0.01967213  0.67449673  1
  In  In52  1  0.02097105  0.33083621  0.67680506  1
  In  In53  1  -0.02715910  0.85798432  0.48377580  1
  In  In54  1  -0.00840167  0.65269729  -0.00490741  1
  In  In55  1  0.49999905  0.16099255  0.67589709  1
  In  In56  1  0.51769603  0.51295523  -0.00351656  1
  In  In57  1  0.66509909  0.34749843  0.67616949  1
  In  In58  1  0.15254382  0.65663347  0.15561855  1
  In  In59  1  0.51718200  0.16113240  0.33008512  1
  In  In60  1  0.14962832  0.79995168  0.68255476  1
  In  In61  1  0.81977533  0.49412015  0.06473824  1
  In  In62  1  0.66940224  0.51134616  0.48783182  1
  In  In63  1  0.86637120  0.01118012  0.85349824  1
  In  In64  1  0.01564967  0.49946652  0.48762495  1
  In  In65  1  0.28305976  0.18815388  0.16056157  1
  In  In66  1  0.16921608  0.00403706  0.84034672  1
  In  In67  1  0.79464107  0.00357080  0.47652243  1
  In  In68  1  0.66919442  -0.00232131  0.01391719  1
  In  In69  1  0.13904808  0.82122869  0.32293009  1
  In  In70  1  0.18459783  0.64767222  0.50144227  1
  In  In71  1  0.65207224  0.82238517  0.84305545  1
  Te  Te72  1  0.08977397  0.10671048  0.09719643  1
  Te  Te73  1  0.07047154  0.08294141  0.41801177  1
  Te  Te74  1  0.10271329  0.10147495  0.73979058  1
  Te  Te75  1  0.10751636  0.36490222  0.03132233  1
  Te  Te76  1  0.03678390  0.37639396  0.40828994  1
  Te  Te77  1  0.10858959  0.42921014  0.74933255  1
  Te  Te78  1  0.08077265  0.75817871  0.06967839  1
  Te  Te79  1  0.07408788  0.73721424  0.43459187  1
  Te  Te80  1  0.13918514  0.67262374  0.80476844  1
  Te  Te81  1  0.38311633  0.07957713  0.09470172  1
  Te  Te82  1  0.44606376  0.08291776  0.44283465  1
  Te  Te83  1  0.40935655  0.08188437  0.76834141  1
  Te  Te84  1  0.43102541  0.42931213  0.09245147  1
  Te  Te85  1  0.43967023  0.41007063  0.40883794  1
  Te  Te86  1  0.41818270  0.40639485  0.76892017  1
  Te  Te87  1  0.41843347  0.72306158  0.05984426  1
  Te  Te88  1  0.41708450  0.74973435  0.40310273  1
  Te  Te89  1  0.40611157  0.73072161  0.73871901  1
  Te  Te90  1  0.76065939  0.06860979  0.11308729  1
  Te  Te91  1  0.74816114  0.10496098  0.37910431  1
  Te  Te92  1  0.76842499  0.07487058  0.74861076  1
  Te  Te93  1  0.72133514  0.39664313  0.12294742  1
  Te  Te94  1  0.75262568  0.41939785  0.39878088  1
  Te  Te95  1  0.76505127  0.43729419  0.75092266  1
  Te  Te96  1  0.74314291  0.74270176  0.14412775  1
  Te  Te97  1  0.74622211  0.76314392  0.39799293  1
  Te  Te98  1  0.74039768  0.73014704  0.75569354  1
  Te  Te99  1  0.08036877  0.26295400  0.22839749  1
  Te  Te100  1  0.11046806  0.26476394  0.58065635  1
  Te  Te101  1  0.05430782  0.27342315  0.91110533  1
  Te  Te102  1  0.10990163  0.55334288  0.25328992  1
  Te  Te103  1  0.08635338  0.57586861  0.59497444  1
  Te  Te104  1  0.09636537  0.55204455  0.96285093  1
  Te  Te105  1  0.06594134  0.92858739  0.24488724  1
  Te  Te106  1  0.09684499  0.90481678  0.56943080  1
  Te  Te107  1  0.06511879  0.94914128  0.93479797  1
  Te  Te108  1  0.40195699  0.22712272  0.25322207  1
  Te  Te109  1  0.42926793  0.26181148  0.58848040  1
  Te  Te110  1  0.42532293  0.25979911  0.92411150  1
  Te  Te111  1  0.41550797  0.58271362  0.25385669  1
  Te  Te112  1  0.38702286  0.56588186  0.57092708  1
  Te  Te113  1  0.40838973  0.57145762  0.90775138  1
  Te  Te114  1  0.40705672  0.91598244  0.24540999  1
  Te  Te115  1  0.44099476  0.91772202  0.57725530  1
  Te  Te116  1  0.41969328  0.91207264  0.90741450  1
  Te  Te117  1  0.77734371  0.28737812  0.21845253  1
  Te  Te118  1  0.75536638  0.27810176  0.57132229  1
  Te  Te119  1  0.73169208  0.26285615  0.95551791  1
  Te  Te120  1  0.72684446  0.60058087  0.21018549  1
  Te  Te121  1  0.74098135  0.61236768  0.57699049  1
  Te  Te122  1  0.75338994  0.58969921  0.95787303  1
  Te  Te123  1  0.72258621  0.95844631  0.21828617  1
  Te  Te124  1  0.76466442  0.89987248  0.59271341  1
  Te  Te125  1  0.76297396  0.91593540  0.91255693  1
  Te  Te126  1  0.28936856  0.28861149  0.04861642  1
  Te  Te127  1  0.24847040  0.27349087  0.40630075  1
  Te  Te128  1  0.23135665  0.27827594  0.75623701  1
  Te  Te129  1  0.24720219  0.60397641  0.05450997  1
  Te  Te130  1  0.22542978  0.52727971  0.42119428  1
  Te  Te131  1  0.22318126  0.55814797  0.74293921  1
  Te  Te132  1  0.25405459  0.88469764  0.08339005  1
  Te  Te133  1  0.24517213  0.90519000  0.40420565  1
  Te  Te134  1  0.24169627  0.91679288  0.73786094  1
  Te  Te135  1  0.57891080  0.20807734  0.09393893  1
  Te  Te136  1  0.58021907  0.27332562  0.40139293  1
  Te  Te137  1  0.58727188  0.25200669  0.76399964  1
  Te  Te138  1  0.60712466  0.56835272  0.10556051  1
  Te  Te139  1  0.59777467  0.60579458  0.39230469  1
  Te  Te140  1  0.59015425  0.57142694  0.75349289  1
  Te  Te141  1  0.57392522  0.88895228  0.04649198  1
  Te  Te142  1  0.59614987  0.92850380  0.42659597  1
  Te  Te143  1  0.56821572  0.90712304  0.75787894  1
  Te  Te144  1  0.92144300  0.24529857  0.15459548  1
  Te  Te145  1  0.89922836  0.21433784  0.38950238  1
  Te  Te146  1  0.90551021  0.25344002  0.75722919  1
  Te  Te147  1  0.91667378  0.59981006  0.11236133  1
  Te  Te148  1  0.90260142  0.56891050  0.41030910  1
  Te  Te149  1  0.93974185  0.58164544  0.76650722  1
  Te  Te150  1  0.89357167  0.89917154  0.08501197  1
  Te  Te151  1  0.89275612  0.93465258  0.38135171  1
  Te  Te152  1  0.95129936  0.92747680  0.75123523  1
  Te  Te153  1  0.23796380  0.07360750  0.26730197  1
  Te  Te154  1  0.26646241  0.10099236  0.58535405  1
  Te  Te155  1  0.23917544  0.10414765  0.93050620  1
  Te  Te156  1  0.23369705  0.41350339  0.22273621  1
  Te  Te157  1  0.28630492  0.44798761  0.55836394  1
  Te  Te158  1  0.23722386  0.40048221  0.95032464  1
  Te  Te159  1  0.24561484  0.72800808  0.26656175  1
  Te  Te160  1  0.26259724  0.73825828  0.59507676  1
  Te  Te161  1  0.20430695  0.78458690  0.90196937  1
  Te  Te162  1  0.58224885  0.05299571  0.24228050  1
  Te  Te163  1  0.60954615  0.09640452  0.59228055  1
  Te  Te164  1  0.58997998  0.07226282  0.90725878  1
  Te  Te165  1  0.60634514  0.39915352  0.23430831  1
  Te  Te166  1  0.58056248  0.42938805  0.58050228  1
  Te  Te167  1  0.59454078  0.40144169  0.93541361  1
  Te  Te168  1  0.59745830  0.77883790  0.22140489  1
  Te  Te169  1  0.55834225  0.73865046  0.59217879  1
  Te  Te170  1  0.58711059  0.73000825  0.93675546  1
  Te  Te171  1  0.92158323  0.09641369  0.17146574  1
  Te  Te172  1  0.90659924  0.07071036  0.56558978  1
  Te  Te173  1  0.89363344  0.12627634  0.94713171  1
  Te  Te174  1  0.93061404  0.45858435  0.20503210  1
  Te  Te175  1  0.91727187  0.41808801  0.59195362  1
  Te  Te176  1  0.90202589  0.42986166  0.94876574  1
  Te  Te177  1  0.91362084  0.74055380  0.27464900  1
  Te  Te178  1  0.92193481  0.75211581  0.59727107  1
  Te  Te179  1  0.92190594  0.76339115  0.90883713  1
