# generated using pymatgen
data_In2Te3
_symmetry_space_group_name_H-M   'P 1'
_cell_length_a   18.77015215
_cell_length_b   18.76735456
_cell_length_c   18.76753163
_cell_angle_alpha   89.97646361
_cell_angle_beta   89.97980728
_cell_angle_gamma   90.08776854
_symmetry_Int_Tables_number   1
_chemical_formula_structural   In2Te3
_chemical_formula_sum   'In72 Te108'
_cell_volume   6611.15645709
_cell_formula_units_Z   36
loop_
 _symmetry_equiv_pos_site_id
 _symmetry_equiv_pos_as_xyz
  1  'x, y, z'
loop_
 _atom_site_type_symbol
 _atom_site_label
 _atom_site_symmetry_multiplicity
 _atom_site_fract_x
 _atom_site_fract_y
 _atom_site_fract_z
 _atom_site_occupancy
  In  In0  1  0.32405089  0.67490686  0.32605451  1
  In  In1  1  0.33586429  -0.00045802  -0.01364053  1
  In  In2  1  0.85187619  0.48060366  -0.02497717  1
  In  In3  1  0.49199532  0.50559074  0.69137748  1
  In  In4  1  0.84598367  0.16082982  0.65267894  1
  In  In5  1  0.18101376  0.67541199  0.83367136  1
  In  In6  1  0.50600857  0.31273681  0.48551115  1
  In  In7  1  0.31836143  0.68018396  0.00380139  1
  In  In8  1  0.66240813  -0.01396856  -0.00094224  1
  In  In9  1  0.48838774  -0.00941139  0.83502793  1
  In  In10  1  0.15717500  0.34483937  0.13874955  1
  In  In11  1  0.34391118  0.47295343  0.50850497  1
  In  In12  1  0.01518300  -0.03656078  -0.03781000  1
  In  In13  1  0.01169384  0.65247804  -0.00108558  1
  In  In14  1  0.47914159  0.17644871  0.00237364  1
  In  In15  1  0.34403311  0.33335121  0.67689525  1
  In  In16  1  0.81374636  0.68732526  0.15112244  1
  In  In17  1  0.00243705  0.01492208  0.32320442  1
  In  In18  1  0.68120694  0.34024385  0.67705904  1
  In  In19  1  0.17530709  0.34118942  0.84029053  1
  In  In20  1  0.47792234  0.80190467  0.69096857  1
  In  In21  1  0.66484437  0.66829854  0.36654959  1
  In  In22  1  0.33791576  -0.00685406  0.33895161  1
  In  In23  1  -0.00924018  0.67177280  0.68170551  1
  In  In24  1  0.82736448  0.67740066  0.82242985  1
  In  In25  1  0.84037581  0.15837708  0.00103638  1
  In  In26  1  0.47851505  0.66307343  0.15510697  1
  In  In27  1  0.64531460  0.48785010  0.16262008  1
  In  In28  1  0.17087994  0.84770207  0.67237866  1
  In  In29  1  0.19131326  0.50329743  0.31941518  1
  In  In30  1  0.32944327  0.33412851  -0.01264249  1
  In  In31  1  0.36890129  0.18880625  0.19189433  1
  In  In32  1  0.02158324  0.32054007  0.68484361  1
  In  In33  1  0.47890736  0.51639738  -0.01291996  1
  In  In34  1  0.15465404  0.68190798  0.52458281  1
  In  In35  1  0.66021411  0.31216227  0.32121139  1
  In  In36  1  0.17188834  -0.00716938  0.14942126  1
  In  In37  1  0.66816137  0.16438139  0.80518013  1
  In  In38  1  0.83579043  0.70176463  0.50236142  1
  In  In39  1  0.00056109  0.68438686  0.33932565  1
  In  In40  1  0.67223596  0.01015085  0.32998413  1
  In  In41  1  0.51665140  0.65798217  0.51562285  1
  In  In42  1  -0.01762666  0.16833447  0.16101695  1
  In  In43  1  0.65450270  -0.02291734  0.67623312  1
  In  In44  1  0.83128314  0.84254906  0.00027536  1
  In  In45  1  -0.00959192  0.82466311  0.16404735  1
  In  In46  1  0.67709451  0.68346572  0.69004103  1
  In  In47  1  0.15702936  0.15240392  0.65710351  1
  In  In48  1  0.16874739  0.16195581  -0.02371833  1
  In  In49  1  0.32822822  0.48891786  0.15137803  1
  In  In50  1  0.66127299  0.50245256  0.49303645  1
  In  In51  1  0.02073862  0.50457647  0.52428055  1
  In  In52  1  0.65717196  0.15526196  0.17952578  1
  In  In53  1  0.16579524  0.16114238  0.34969351  1
  In  In54  1  0.00988217  0.15979553  0.81820934  1
  In  In55  1  0.65420393  0.86038271  0.17599783  1
  In  In56  1  0.18624673  0.69096038  0.16134791  1
  In  In57  1  0.84606521  0.49806125  0.32051589  1
  In  In58  1  0.00891691  0.47900806  0.16458355  1
  In  In59  1  0.50261058  0.85050494  0.32514946  1
  In  In60  1  0.31254197  0.00078460  0.67130107  1
  In  In61  1  0.66330779  0.51840660  0.82996385  1
  In  In62  1  -0.01051619  0.31630562  0.35272142  1
  In  In63  1  0.17716189  0.31448351  0.50825217  1
  In  In64  1  0.49390667  0.01089553  0.48535465  1
  In  In65  1  0.84601262  0.30464242  0.49512559  1
  In  In66  1  0.33318303  0.85531067  0.49540158  1
  In  In67  1  0.66456281  0.33701884  -0.00172395  1
  In  In68  1  0.82761257  0.00751003  0.50353005  1
  In  In69  1  0.01612554  0.84286219  0.49916795  1
  In  In70  1  0.50359784  0.16379482  0.66426917  1
  In  In71  1  0.84274141  0.51126114  0.68693484  1
  Te  Te72  1  0.07357349  0.08056979  0.06742715  1
  Te  Te73  1  0.08714669  0.06928906  0.43341088  1
  Te  Te74  1  0.08265724  0.05284091  0.74295040  1
  Te  Te75  1  0.07837122  0.42804319  0.04292328  1
  Te  Te76  1  0.08541556  0.42541462  0.40904181  1
  Te  Te77  1  0.09133931  0.42939840  0.75358542  1
  Te  Te78  1  0.09087972  0.76538481  0.06641166  1
  Te  Te79  1  0.11122061  0.76578895  0.40441341  1
  Te  Te80  1  0.07277683  0.77081769  0.76484781  1
  Te  Te81  1  0.41537819  0.07750655  0.09795398  1
  Te  Te82  1  0.41995702  0.10208753  0.39640414  1
  Te  Te83  1  0.40617865  0.09084098  0.75626112  1
  Te  Te84  1  0.43070434  0.40355962  0.07968115  1
  Te  Te85  1  0.41437418  0.39780538  0.40164515  1
  Te  Te86  1  0.40269423  0.42545743  0.77818319  1
  Te  Te87  1  0.41999309  0.76862231  0.07060657  1
  Te  Te88  1  0.42353847  0.74911668  0.42425093  1
  Te  Te89  1  0.37930972  0.73110917  0.78067305  1
  Te  Te90  1  0.75024543  0.07099339  0.08870753  1
  Te  Te91  1  0.75303013  0.10327425  0.41561766  1
  Te  Te92  1  0.76349345  0.06564022  0.74328137  1
  Te  Te93  1  0.75819332  0.42128449  0.08469538  1
  Te  Te94  1  0.75779448  0.41197121  0.41656242  1
  Te  Te95  1  0.76676477  0.41483191  0.77880357  1
  Te  Te96  1  0.71700898  0.76464467  0.06667525  1
  Te  Te97  1  0.75012866  0.77920233  0.41155288  1
  Te  Te98  1  0.77092425  0.79311484  0.74118195  1
  Te  Te99  1  0.08745965  0.25351555  0.24380534  1
  Te  Te100  1  0.06018958  0.23659350  0.56530689  1
  Te  Te101  1  0.06478926  0.25987341  0.92286366  1
  Te  Te102  1  0.08362449  0.59398289  0.24601660  1
  Te  Te103  1  0.10347055  0.58085031  0.62737257  1
  Te  Te104  1  0.09540227  0.57538351  0.90521238  1
  Te  Te105  1  0.08680096  0.91078278  0.24624551  1
  Te  Te106  1  0.07502510  0.93777395  0.59998267  1
  Te  Te107  1  0.10857912  0.91132106  0.85978932  1
  Te  Te108  1  0.44857179  0.28955867  0.26469122  1
  Te  Te109  1  0.40466054  0.23750600  0.57439949  1
  Te  Te110  1  0.40367415  0.24402047  0.89613800  1
  Te  Te111  1  0.40863012  0.56995456  0.25409793  1
  Te  Te112  1  0.40589958  0.58596848  0.59302846  1
  Te  Te113  1  0.39876285  0.60780442  0.89751258  1
  Te  Te114  1  0.39900028  0.90461828  0.23551940  1
  Te  Te115  1  0.43291632  0.92216172  0.60074620  1
  Te  Te116  1  0.42925705  0.89396620  0.93160440  1
  Te  Te117  1  0.76038050  0.24732386  0.23546290  1
  Te  Te118  1  0.73534293  0.23886022  0.57836624  1
  Te  Te119  1  0.74760714  0.24326241  0.91091349  1
  Te  Te120  1  0.74002150  0.58423803  0.25185464  1
  Te  Te121  1  0.75158758  0.58845106  0.58370951  1
  Te  Te122  1  0.75043065  0.59563629  0.93315909  1
  Te  Te123  1  0.76376813  0.92822308  0.24498900  1
  Te  Te124  1  0.75234561  0.90855926  0.58758604  1
  Te  Te125  1  0.75419960  0.92463745  0.89639559  1
  Te  Te126  1  0.25432305  0.23345379  0.08290780  1
  Te  Te127  1  0.26637734  0.25159430  0.41067914  1
  Te  Te128  1  0.24358560  0.24061657  0.74870061  1
  Te  Te129  1  0.22998226  0.57376178  0.07412298  1
  Te  Te130  1  0.24784908  0.58571890  0.43594573  1
  Te  Te131  1  0.28622693  0.61455826  0.74757891  1
  Te  Te132  1  0.23893409  0.90300460  0.05199838  1
  Te  Te133  1  0.23204980  0.93952143  0.42942222  1
  Te  Te134  1  0.25893138  0.91029005  0.77868172  1
  Te  Te135  1  0.57677187  0.25355427  0.09050386  1
  Te  Te136  1  0.59614875  0.21815171  0.41640245  1
  Te  Te137  1  0.56897776  0.26971645  0.75432530  1
  Te  Te138  1  0.58434897  0.59182826  0.06964964  1
  Te  Te139  1  0.55692838  0.56322031  0.40119026  1
  Te  Te140  1  0.55717317  0.62549701  0.77249163  1
  Te  Te141  1  0.55988787  0.90636033  0.07041235  1
  Te  Te142  1  0.59340352  0.91110577  0.42801910  1
  Te  Te143  1  0.57909939  0.88412703  0.77419683  1
  Te  Te144  1  0.92024848  0.26708505  0.06683404  1
  Te  Te145  1  0.90962948  0.20257640  0.40780532  1
  Te  Te146  1  0.90468739  0.25542710  0.75693526  1
  Te  Te147  1  0.91037085  0.58283275  0.09527628  1
  Te  Te148  1  0.91841043  0.58498108  0.43043874  1
  Te  Te149  1  0.93726144  0.57257837  0.78732264  1
  Te  Te150  1  0.92230294  0.93422886  0.08271473  1
  Te  Te151  1  0.91931098  0.91775552  0.41086636  1
  Te  Te152  1  0.88042668  0.87912048  0.81302041  1
  Te  Te153  1  0.24936629  0.09131394  0.23726449  1
  Te  Te154  1  0.25285410  0.08476143  0.56601886  1
  Te  Te155  1  0.24427994  0.06953102  0.89153653  1
  Te  Te156  1  0.25843452  0.38952765  0.24740229  1
  Te  Te157  1  0.23710584  0.41715416  0.60293822  1
  Te  Te158  1  0.26379401  0.44000048  0.90751270  1
  Te  Te159  1  0.26331437  0.78434758  0.24734795  1
  Te  Te160  1  0.26728923  0.75783663  0.59384556  1
  Te  Te161  1  0.23139809  0.77999744  0.93134325  1
  Te  Te162  1  0.56056954  0.07074660  0.25351147  1
  Te  Te163  1  0.59572135  0.08026698  0.57873575  1
  Te  Te164  1  0.58343154  0.09197760  0.91482314  1
  Te  Te165  1  0.55961235  0.40289989  0.25199893  1
  Te  Te166  1  0.57396950  0.41900741  0.58986167  1
  Te  Te167  1  0.57389163  0.42162091  0.90869456  1
  Te  Te168  1  0.58111130  0.73514785  0.25225598  1
  Te  Te169  1  0.59424291  0.76402180  0.58868825  1
  Te  Te170  1  0.63518769  0.69444381  0.88200707  1
  Te  Te171  1  0.89550012  0.09079935  0.25153632  1
  Te  Te172  1  0.93286305  0.05281517  0.60122454  1
  Te  Te173  1  0.91935061  0.06985741  0.90382979  1
  Te  Te174  1  0.91111939  0.38747272  0.23985530  1
  Te  Te175  1  0.91078977  0.41591476  0.58661415  1
  Te  Te176  1  0.94687175  0.37862144  0.93249760  1
  Te  Te177  1  0.89186249  0.75903977  0.26220728  1
  Te  Te178  1  0.91866129  0.78009418  0.60215999  1
  Te  Te179  1  0.92814531  0.75467149  0.91775051  1
