# generated using pymatgen
data_In2Te3
_symmetry_space_group_name_H-M   'P 1'
_cell_length_a   18.80174758
_cell_length_b   18.78944496
_cell_length_c   18.81302728
_cell_angle_alpha   90.00744375
_cell_angle_beta   89.89881298
_cell_angle_gamma   90.08705590
_symmetry_Int_Tables_number   1
_chemical_formula_structural   In2Te3
_chemical_formula_sum   'In72 Te108'
_cell_volume   6646.14285870
_cell_formula_units_Z   36
loop_
 _symmetry_equiv_pos_site_id
 _symmetry_equiv_pos_as_xyz
  1  'x, y, z'
loop_
 _atom_site_type_symbol
 _atom_site_label
 _atom_site_symmetry_multiplicity
 _atom_site_fract_x
 _atom_site_fract_y
 _atom_site_fract_z
 _atom_site_occupancy
  In  In0  1  0.01356216  0.35143818  0.32736648  1
  In  In1  1  -0.00580623  0.35808487  -0.00394261  1
  In  In2  1  0.01908324  0.66979183  0.67270741  1
  In  In3  1  0.84628413  0.49538240  0.66570940  1
  In  In4  1  0.51406272  0.80042473  0.01477901  1
  In  In5  1  0.33293877  0.35880272  -0.02396935  1
  In  In6  1  0.18339258  0.02021515  0.16019605  1
  In  In7  1  0.01097950  0.83160455  0.47994722  1
  In  In8  1  0.65056563  0.00730313  0.33952024  1
  In  In9  1  -0.00673118  0.18504011  0.81983824  1
  In  In10  1  0.31135050  0.17771667  0.49452068  1
  In  In11  1  0.83569836  0.66002272  0.49343191  1
  In  In12  1  0.66602549  0.17464332  0.84838706  1
  In  In13  1  0.16879930  0.66423588  0.15864293  1
  In  In14  1  0.01680807  0.65226742  0.33763289  1
  In  In15  1  0.49740350  0.83224815  0.66838702  1
  In  In16  1  0.67172210  -0.02280141  0.00702788  1
  In  In17  1  0.49349158  0.66620920  0.84644110  1
  In  In18  1  0.49201251  -0.00332036  0.81041894  1
  In  In19  1  0.15516193  0.33487960  0.49112500  1
  In  In20  1  0.50320299  -0.01851297  0.50381354  1
  In  In21  1  0.82651820  0.15703715  -0.00548570  1
  In  In22  1  0.47450672  0.34448789  0.47215727  1
  In  In23  1  0.82706405  -0.00653164  0.52948099  1
  In  In24  1  -0.00466746  0.80520459  0.84148867  1
  In  In25  1  0.33516944  0.14741548  0.81633991  1
  In  In26  1  0.17061481  0.18619945  0.65099851  1
  In  In27  1  0.33834262  -0.00165315  0.00234135  1
  In  In28  1  0.65237304  0.35364854  0.33302472  1
  In  In29  1  0.01974989  -0.00247249  0.64740248  1
  In  In30  1  0.47577545  0.51168612  0.64743988  1
  In  In31  1  0.36930491  0.82402323  0.17756079  1
  In  In32  1  0.32554724  0.18941854  0.18346812  1
  In  In33  1  -0.00076698  0.52084932  0.16726136  1
  In  In34  1  0.32696094  0.80446094  0.83397569  1
  In  In35  1  0.81590303  0.18407029  0.33942503  1
  In  In36  1  0.82360185  -0.00542976  0.84866160  1
  In  In37  1  -0.00332882  0.84344749  0.14849818  1
  In  In38  1  0.65552264  0.67072806  0.66886723  1
  In  In39  1  0.69175673  0.33421702  0.00668352  1
  In  In40  1  0.81777663  0.80772378  0.33683811  1
  In  In41  1  0.85309054  0.16859750  0.66882621  1
  In  In42  1  0.17382887  0.51916068  0.69760516  1
  In  In43  1  0.65696571  0.81101432  0.17966814  1
  In  In44  1  0.67025710  0.33209543  0.67149544  1
  In  In45  1  0.82560192  0.35926953  0.16034139  1
  In  In46  1  0.17198574  -0.02012371  0.49042365  1
  In  In47  1  0.52151201  0.35766559  0.16406508  1
  In  In48  1  0.17517898  0.80466262  -0.01584368  1
  In  In49  1  0.15730103  0.50451896  0.00169032  1
  In  In50  1  0.47433078  0.15551593  0.02005305  1
  In  In51  1  0.81643171  0.64557878  0.16564189  1
  In  In52  1  0.49823559  0.34672510  0.80388406  1
  In  In53  1  0.17131071  -0.03842021  0.82172191  1
  In  In54  1  0.84097201  0.34289331  0.51029497  1
  In  In55  1  0.01838717  0.17841052  0.17889191  1
  In  In56  1  0.14581084  0.17020606  0.01817664  1
  In  In57  1  0.35549606  0.68079945  0.34128741  1
  In  In58  1  -0.00067027  0.50930631  0.83698927  1
  In  In59  1  0.48327805  0.64661244  0.16762450  1
  In  In60  1  0.50823074  0.51278986  0.00384689  1
  In  In61  1  0.34055909  0.33313049  0.66771390  1
  In  In62  1  0.68657607  0.52808306  0.86231509  1
  In  In63  1  0.63057371  0.51912913  0.47266753  1
  In  In64  1  0.01543190  0.02407075  0.35292920  1
  In  In65  1  0.14556868  0.82659332  0.35470691  1
  In  In66  1  0.50667515  0.16506533  0.33848466  1
  In  In67  1  0.81609573  0.83853852  0.67726552  1
  In  In68  1  0.65475647  -0.02323238  0.65786494  1
  In  In69  1  0.32676988  -0.02030054  0.31687719  1
  In  In70  1  0.84236737  -0.00589545  0.14522229  1
  In  In71  1  0.33732411  0.49978667  0.47165591  1
  Te  Te72  1  0.05873158  0.06325041  0.08441459  1
  Te  Te73  1  0.11010292  0.10268094  0.43250028  1
  Te  Te74  1  0.09503503  0.08145498  0.75264023  1
  Te  Te75  1  0.08336717  0.40948905  0.10555016  1
  Te  Te76  1  0.08696711  0.44360604  0.41696560  1
  Te  Te77  1  0.08287542  0.41814036  0.75505009  1
  Te  Te78  1  0.06693624  0.73343184  0.06843019  1
  Te  Te79  1  0.10503561  0.71280941  0.45000946  1
  Te  Te80  1  0.10569823  0.76018106  0.75326128  1
  Te  Te81  1  0.40652844  0.06553179  0.12115402  1
  Te  Te82  1  0.40269750  0.07969872  0.41496978  1
  Te  Te83  1  0.42153555  0.08386515  0.71567924  1
  Te  Te84  1  0.40880509  0.42842950  0.08916164  1
  Te  Te85  1  0.44449101  0.45467742  0.37605749  1
  Te  Te86  1  0.39233487  0.44659335  0.75908299  1
  Te  Te87  1  0.39168722  0.72650446  0.06488263  1
  Te  Te88  1  0.44119952  0.71934013  0.45857073  1
  Te  Te89  1  0.40927902  0.72210715  0.73216888  1
  Te  Te90  1  0.73356495  0.08907026  0.09288298  1
  Te  Te91  1  0.74769373  0.08293752  0.43111540  1
  Te  Te92  1  0.74707949  0.08089598  0.74837203  1
  Te  Te93  1  0.72745444  0.45044581  0.09380836  1
  Te  Te94  1  0.74673441  0.43107759  0.42357917  1
  Te  Te95  1  0.74677653  0.42738646  0.76131948  1
  Te  Te96  1  0.76978093  0.76665646  0.09461342  1
  Te  Te97  1  0.72633767  0.71728940  0.40865819  1
  Te  Te98  1  0.75245675  0.73555727  0.76104864  1
  Te  Te99  1  0.11692764  0.26044183  0.26042733  1
  Te  Te100  1  0.06599694  0.27066570  0.59291143  1
  Te  Te101  1  0.08357562  0.26386319  0.91528688  1
  Te  Te102  1  0.11435143  0.56316557  0.26009186  1
  Te  Te103  1  0.09881003  0.58172695  0.58528969  1
  Te  Te104  1  0.07964714  0.60261083  0.92063484  1
  Te  Te105  1  0.08345934  0.92477043  0.25025806  1
  Te  Te106  1  0.10769887  0.87717183  0.59905083  1
  Te  Te107  1  0.07794974  0.90904926  0.92765609  1
  Te  Te108  1  0.43259593  0.27058534  0.25583149  1
  Te  Te109  1  0.42296137  0.24401191  0.57662802  1
  Te  Te110  1  0.42429157  0.24634063  0.90590703  1
  Te  Te111  1  0.39231631  0.56382193  0.25425438  1
  Te  Te112  1  0.39789199  0.60710906  0.56328903  1
  Te  Te113  1  0.40534229  0.56975319  0.91473674  1
  Te  Te114  1  0.44616106  0.89606507  0.28209967  1
  Te  Te115  1  0.39881397  0.90573744  0.58155599  1
  Te  Te116  1  0.42147525  0.90215684  0.91808146  1
  Te  Te117  1  0.73403186  0.26307903  0.23916868  1
  Te  Te118  1  0.75030676  0.24027373  0.58034864  1
  Te  Te119  1  0.77732299  0.26521103  0.89932574  1
  Te  Te120  1  0.73379883  0.55538505  0.24691573  1
  Te  Te121  1  0.73620040  0.56832077  0.58214162  1
  Te  Te122  1  0.79376868  0.59793596  0.93875536  1
  Te  Te123  1  0.75550401  0.91953812  0.25033853  1
  Te  Te124  1  0.72710331  0.88310096  0.56048375  1
  Te  Te125  1  0.74655569  0.88910906  0.91601226  1
  Te  Te126  1  0.25291028  0.26365571  0.07228050  1
  Te  Te127  1  0.27930037  0.29843610  0.40288342  1
  Te  Te128  1  0.24610354  0.25908534  0.76267019  1
  Te  Te129  1  0.25760868  0.56786158  0.09196426  1
  Te  Te130  1  0.24829784  0.60147340  0.40908414  1
  Te  Te131  1  0.25179685  0.63312724  0.75225367  1
  Te  Te132  1  0.24785365  0.90292634  0.08448161  1
  Te  Te133  1  0.27142189  0.88316573  0.42232737  1
  Te  Te134  1  0.28398428  0.91454377  0.73571231  1
  Te  Te135  1  0.58323787  0.24841602  0.07579688  1
  Te  Te136  1  0.59112701  0.25301686  0.43042581  1
  Te  Te137  1  0.57552410  0.23138655  0.73924178  1
  Te  Te138  1  0.59623499  0.60369954  0.08006919  1
  Te  Te139  1  0.56715368  0.62753031  0.39262939  1
  Te  Te140  1  0.58164220  0.56203316  0.75154099  1
  Te  Te141  1  0.57021589  0.91194130  0.10150084  1
  Te  Te142  1  0.57152167  0.89720642  0.40145263  1
  Te  Te143  1  0.59606484  0.89256367  0.77052748  1
  Te  Te144  1  0.91506301  0.24767833  0.08852717  1
  Te  Te145  1  0.92551626  0.25595066  0.41407218  1
  Te  Te146  1  0.91287743  0.28107406  0.74324816  1
  Te  Te147  1  0.90369990  0.57394667  0.06523237  1
  Te  Te148  1  0.92105516  0.56951900  0.41478488  1
  Te  Te149  1  0.90447516  0.60730553  0.75107150  1
  Te  Te150  1  0.89830551  0.89592027  0.04965176  1
  Te  Te151  1  0.90695996  0.92273774  0.41131743  1
  Te  Te152  1  0.92490301  0.92591732  0.74539145  1
  Te  Te153  1  0.23900253  0.09982953  0.27550785  1
  Te  Te154  1  0.24999420  0.07294294  0.58858711  1
  Te  Te155  1  0.24004779  0.08405795  0.92337655  1
  Te  Te156  1  0.24274682  0.35147147  0.26527669  1
  Te  Te157  1  0.25470758  0.42177907  0.58040544  1
  Te  Te158  1  0.22803543  0.42369277  0.89723276  1
  Te  Te159  1  0.24596193  0.76435270  0.24852091  1
  Te  Te160  1  0.25216036  0.82653671  0.60598146  1
  Te  Te161  1  0.23713340  0.69680090  0.89653091  1
  Te  Te162  1  0.58653753  0.09242581  0.23848099  1
  Te  Te163  1  0.58858113  0.07798355  0.57531549  1
  Te  Te164  1  0.57483462  0.07585257  0.92351696  1
  Te  Te165  1  0.60760531  0.46220078  0.23490190  1
  Te  Te166  1  0.57450576  0.41317579  0.58050322  1
  Te  Te167  1  0.58716956  0.40647495  0.91274942  1
  Te  Te168  1  0.56861644  0.72545390  0.26686067  1
  Te  Te169  1  0.57197717  0.74512369  0.57103086  1
  Te  Te170  1  0.60379581  0.72653886  0.92482156  1
  Te  Te171  1  0.90986251  0.09076523  0.25457516  1
  Te  Te172  1  0.93763138  0.09434475  0.56389237  1
  Te  Te173  1  0.93094013  0.08069299  0.91492220  1
  Te  Te174  1  0.90641954  0.43922646  0.25984681  1
  Te  Te175  1  0.94260258  0.42546908  0.57937323  1
  Te  Te176  1  0.89611959  0.44045620  0.92371461  1
  Te  Te177  1  0.93019793  0.74654013  0.25136218  1
  Te  Te178  1  0.91480882  0.76139483  0.57962061  1
  Te  Te179  1  0.89580436  0.71173442  0.89672847  1
