# generated using pymatgen
data_In2Te3
_symmetry_space_group_name_H-M   'P 1'
_cell_length_a   18.98098421
_cell_length_b   19.02708681
_cell_length_c   18.97591921
_cell_angle_alpha   90.23236174
_cell_angle_beta   90.15440617
_cell_angle_gamma   90.06387660
_symmetry_Int_Tables_number   1
_chemical_formula_structural   In2Te3
_chemical_formula_sum   'In72 Te108'
_cell_volume   6853.12142127
_cell_formula_units_Z   36
loop_
 _symmetry_equiv_pos_site_id
 _symmetry_equiv_pos_as_xyz
  1  'x, y, z'
loop_
 _atom_site_type_symbol
 _atom_site_label
 _atom_site_symmetry_multiplicity
 _atom_site_fract_x
 _atom_site_fract_y
 _atom_site_fract_z
 _atom_site_occupancy
  In  In0  1  0.31813177  0.15194899  0.50382011  1
  In  In1  1  0.65651724  0.17299978  0.15948839  1
  In  In2  1  0.32490960  0.47925935  0.50021929  1
  In  In3  1  0.15670773  0.17985787  0.32398175  1
  In  In4  1  0.29299533  0.22825109  0.11913393  1
  In  In5  1  0.00246948  0.81891921  0.83577907  1
  In  In6  1  0.67566930  0.10678598  0.47683202  1
  In  In7  1  0.15774457  0.50941680  0.31831932  1
  In  In8  1  0.17187848  0.35339385  0.83739625  1
  In  In9  1  0.49480593  0.32522629  0.49701439  1
  In  In10  1  0.66782052  0.66787893  0.28416381  1
  In  In11  1  0.00442755  0.51457638  0.46845319  1
  In  In12  1  0.83749726  0.85064921  0.36377638  1
  In  In13  1  -0.04526296  0.18966576  0.83991305  1
  In  In14  1  0.34903250  0.16408888  0.82251434  1
  In  In15  1  0.34296780  0.50146964  0.86172184  1
  In  In16  1  0.49921029  -0.00825367  0.82291081  1
  In  In17  1  0.15925373  0.51047350  0.66738683  1
  In  In18  1  0.00527816  0.17750942  0.16342370  1
  In  In19  1  0.20173199  -0.01979513  0.81428350  1
  In  In20  1  0.49826308  0.80509911  0.02735254  1
  In  In21  1  0.82873252  0.34166721  0.86554289  1
  In  In22  1  0.83803868  -0.02959822  0.16793440  1
  In  In23  1  0.29745712  0.82478516  0.19155399  1
  In  In24  1  0.47825828  0.38759062  0.14506576  1
  In  In25  1  0.33531862  -0.01223520  -0.02059309  1
  In  In26  1  0.66056754  0.84312063  0.48844943  1
  In  In27  1  0.68353004  0.31778863  0.68652122  1
  In  In28  1  0.01599753  -0.01006723  0.65777393  1
  In  In29  1  0.29195016  0.63967672  0.00520898  1
  In  In30  1  0.81296476  0.35056038  0.17534728  1
  In  In31  1  0.16295800  0.80943629  -0.01392095  1
  In  In32  1  0.51443122  0.17537388  0.64047167  1
  In  In33  1  0.31779080  0.35806460  0.31375179  1
  In  In34  1  0.49479378  -0.00854666  0.13823094  1
  In  In35  1  0.67818227  0.49774595  0.84485701  1
  In  In36  1  0.83259713  0.83000778  0.65573420  1
  In  In37  1  -0.01746924  0.34807353  0.33374702  1
  In  In38  1  0.48694605  0.17258171  0.31486357  1
  In  In39  1  0.83230798  0.33549450  0.49716136  1
  In  In40  1  0.67370448  0.51892351  0.49712468  1
  In  In41  1  0.01560614  0.34304765  0.63395594  1
  In  In42  1  0.50295335  0.83338814  0.67192567  1
  In  In43  1  0.50563478  0.16466758  -0.00865038  1
  In  In44  1  0.04551940  0.36571606  0.01392310  1
  In  In45  1  0.48281290  -0.04021275  0.50679818  1
  In  In46  1  0.16017627  -0.03282634  0.51280624  1
  In  In47  1  0.82527289  0.18049400  0.01733557  1
  In  In48  1  0.33198452  0.64020247  0.64575594  1
  In  In49  1  0.66522020  -0.05318116  0.01153673  1
  In  In50  1  -0.00390215  0.15459095  0.50312193  1
  In  In51  1  0.67081084  0.81605791  0.85996606  1
  In  In52  1  0.01041381  0.82998600  0.17695076  1
  In  In53  1  0.50279555  0.65600911  0.17294005  1
  In  In54  1  0.87136605  0.66560816  0.87075830  1
  In  In55  1  0.17857025  0.66760306  0.46221444  1
  In  In56  1  0.85275488  0.67952091  0.51130550  1
  In  In57  1  0.66459379  0.69360855  0.66045191  1
  In  In58  1  0.30715287  -0.00155344  0.33406691  1
  In  In59  1  0.84372398  0.49862686  0.02519441  1
  In  In60  1  0.50883280  0.36287872  0.85213172  1
  In  In61  1  0.48691179  0.68225404  0.41723586  1
  In  In62  1  0.82013240  0.02120222  0.83518166  1
  In  In63  1  -0.01415441  0.67949205  0.33528046  1
  In  In64  1  0.64451206  0.33977434  0.31340360  1
  In  In65  1  0.14966068  0.01211574  0.17017823  1
  In  In66  1  0.51113209  0.50109018  0.66788930  1
  In  In67  1  0.15915039  0.16753912  0.68563191  1
  In  In68  1  -0.01234396  -0.01802384  0.33278050  1
  In  In69  1  0.47491726  0.65503360  0.85856366  1
  In  In70  1  0.01848461  0.63746216  0.02072615  1
  In  In71  1  0.82870494  0.14915182  0.66629637  1
  Te  Te72  1  0.08634110  0.09743398  0.07149351  1
  Te  Te73  1  0.09485131  0.07554306  0.41447937  1
  Te  Te74  1  0.05083189  0.09607450  0.76040294  1
  Te  Te75  1  0.08042140  0.50310399  0.06853877  1
  Te  Te76  1  0.09610215  0.40840067  0.41520582  1
  Te  Te77  1  0.06741482  0.42274626  0.75217617  1
  Te  Te78  1  0.10698218  0.73839855  0.10535510  1
  Te  Te79  1  0.07083441  0.76376081  0.42300386  1
  Te  Te80  1  0.10753587  0.72253087  0.79270662  1
  Te  Te81  1  0.40056885  0.09275588  0.07518438  1
  Te  Te82  1  0.42036975  0.07929413  0.41687507  1
  Te  Te83  1  0.42668637  0.08102944  0.72466713  1
  Te  Te84  1  0.38310281  0.41837519  0.03441749  1
  Te  Te85  1  0.43015267  0.41681089  0.40026768  1
  Te  Te86  1  0.41391312  0.42251739  0.74950228  1
  Te  Te87  1  0.38279036  0.73633030  0.09811782  1
  Te  Te88  1  0.36621152  0.77075982  0.41029799  1
  Te  Te89  1  0.41777880  0.72830725  0.74197349  1
  Te  Te90  1  0.74109790  0.06872269  0.08714027  1
  Te  Te91  1  0.76787132  0.02719018  0.39951460  1
  Te  Te92  1  0.72515578  0.09241903  0.75145329  1
  Te  Te93  1  0.73498466  0.40548716  0.06338753  1
  Te  Te94  1  0.74134637  0.41582491  0.40673127  1
  Te  Te95  1  0.76908921  0.42559702  0.74855734  1
  Te  Te96  1  0.73555384  0.83275334  0.07783455  1
  Te  Te97  1  0.74263736  0.73704245  0.41679259  1
  Te  Te98  1  0.76725602  0.73625541  0.76655674  1
  Te  Te99  1  0.08499137  0.28197898  0.24138556  1
  Te  Te100  1  0.10311135  0.24204730  0.56474182  1
  Te  Te101  1  0.07370215  0.25664986  0.90350172  1
  Te  Te102  1  0.05583550  0.58579714  0.24582141  1
  Te  Te103  1  0.08747653  0.59502595  0.56521278  1
  Te  Te104  1  0.09684127  0.60788881  0.89307763  1
  Te  Te105  1  0.10451070  0.90887366  0.26899773  1
  Te  Te106  1  0.11647914  0.88833079  0.62807881  1
  Te  Te107  1  0.09748978  0.92117387  0.90323875  1
  Te  Te108  1  0.40814595  0.26662235  0.22911027  1
  Te  Te109  1  0.39687790  0.25465086  0.58652667  1
  Te  Te110  1  0.41437564  0.26082907  0.91850068  1
  Te  Te111  1  0.44545016  0.52554168  0.20572108  1
  Te  Te112  1  0.43646641  0.57166746  0.55757817  1
  Te  Te113  1  0.43199134  0.56367365  0.97093756  1
  Te  Te114  1  0.40034563  0.92568836  0.23942029  1
  Te  Te115  1  0.38704778  0.90486482  0.60803606  1
  Te  Te116  1  0.43552352  0.89189109  0.91933675  1
  Te  Te117  1  0.74788944  0.24141152  0.25879327  1
  Te  Te118  1  0.74023463  0.23493113  0.56759892  1
  Te  Te119  1  0.74038700  0.23713162  0.91170116  1
  Te  Te120  1  0.77169424  0.58683723  0.21400564  1
  Te  Te121  1  0.75740300  0.59111609  0.59978195  1
  Te  Te122  1  0.75765859  0.59088567  0.93503505  1
  Te  Te123  1  0.74413472  0.93173144  0.27864893  1
  Te  Te124  1  0.74625655  0.91968257  0.58046206  1
  Te  Te125  1  0.78209052  0.90107032  0.92090781  1
  Te  Te126  1  0.17677025  0.29831241  0.06267631  1
  Te  Te127  1  0.25831282  0.25445453  0.40898563  1
  Te  Te128  1  0.25707887  0.26254836  0.75081272  1
  Te  Te129  1  0.22084460  0.55996961  0.10561008  1
  Te  Te130  1  0.27709123  0.57279874  0.39207511  1
  Te  Te131  1  0.25695601  0.57791363  0.76333858  1
  Te  Te132  1  0.24128558  0.92051190  0.07795206  1
  Te  Te133  1  0.26259097  0.89546848  0.43005697  1
  Te  Te134  1  0.30921957  0.91667428  0.74351235  1
  Te  Te135  1  0.56584311  0.26462328  0.08643449  1
  Te  Te136  1  0.58503283  0.23202876  0.41684610  1
  Te  Te137  1  0.56983574  0.25365843  0.75922488  1
  Te  Te138  1  0.64726149  0.63121645  0.13586907  1
  Te  Te139  1  0.59341988  0.57420756  0.38523735  1
  Te  Te140  1  0.58768504  0.59439823  0.75959946  1
  Te  Te141  1  0.59406804  0.86983504  0.13019126  1
  Te  Te142  1  0.56735059  0.91195702  0.39847343  1
  Te  Te143  1  0.60661571  0.90533866  0.75600420  1
  Te  Te144  1  0.92330426  0.27674478  0.08081595  1
  Te  Te145  1  0.91030944  0.23758682  0.41066531  1
  Te  Te146  1  0.91041035  0.26656251  0.71665870  1
  Te  Te147  1  0.88991367  0.61749513  0.10287074  1
  Te  Te148  1  0.88810645  0.58184942  0.40129522  1
  Te  Te149  1  0.98357943  0.61659179  0.78698994  1
  Te  Te150  1  0.95546793  0.93392208  0.09001033  1
  Te  Te151  1  0.95805033  0.88721567  0.44298221  1
  Te  Te152  1  0.91474602  0.92419032  0.75507739  1
  Te  Te153  1  0.25666852  0.10589016  0.23663021  1
  Te  Te154  1  0.23727937  0.07015397  0.59962640  1
  Te  Te155  1  0.24887172  0.09114988  0.90847265  1
  Te  Te156  1  0.24270734  0.43887798  0.21555958  1
  Te  Te157  1  0.23890839  0.41070593  0.59418110  1
  Te  Te158  1  0.25191519  0.41766181  0.94851995  1
  Te  Te159  1  0.27792712  0.72236000  0.29418795  1
  Te  Te160  1  0.24329464  0.73411721  0.57825340  1
  Te  Te161  1  0.27334494  0.74937624  0.91121564  1
  Te  Te162  1  0.57426236  0.07464229  0.24030205  1
  Te  Te163  1  0.58270459  0.05385538  0.58122251  1
  Te  Te164  1  0.58735619  0.05528860  0.92877306  1
  Te  Te165  1  0.59464213  0.44257158  0.22128458  1
  Te  Te166  1  0.59809968  0.40645571  0.58492311  1
  Te  Te167  1  0.60100943  0.42717374  0.94803582  1
  Te  Te168  1  0.52866483  0.74900803  0.28974161  1
  Te  Te169  1  0.56187058  0.74092016  0.56062655  1
  Te  Te170  1  0.58759214  0.71888973  0.93995995  1
  Te  Te171  1  0.91934936  0.08292671  0.24381223  1
  Te  Te172  1  0.90621110  0.05836008  0.57361417  1
  Te  Te173  1  0.91244242  0.08371021  0.93878849  1
  Te  Te174  1  0.91334982  0.43541700  0.24020179  1
  Te  Te175  1  0.91734714  0.43785155  0.56955184  1
  Te  Te176  1  0.93370408  0.42851160  0.92461229  1
  Te  Te177  1  0.89457979  0.76647276  0.25006541  1
  Te  Te178  1  0.93795380  0.73865101  0.61409849  1
  Te  Te179  1  0.94065915  0.76294604  0.96098058  1
