# generated using pymatgen
data_In2Te3
_symmetry_space_group_name_H-M   'P 1'
_cell_length_a   18.77470509
_cell_length_b   18.77297538
_cell_length_c   18.76438879
_cell_angle_alpha   89.98650205
_cell_angle_beta   89.98258777
_cell_angle_gamma   90.04391260
_symmetry_Int_Tables_number   1
_chemical_formula_structural   In2Te3
_chemical_formula_sum   'In72 Te108'
_cell_volume   6613.63918170
_cell_formula_units_Z   36
loop_
 _symmetry_equiv_pos_site_id
 _symmetry_equiv_pos_as_xyz
  1  'x, y, z'
loop_
 _atom_site_type_symbol
 _atom_site_label
 _atom_site_symmetry_multiplicity
 _atom_site_fract_x
 _atom_site_fract_y
 _atom_site_fract_z
 _atom_site_occupancy
  In  In0  1  0.15895510  0.01975584  0.49042703  1
  In  In1  1  0.81629010  0.82266213  0.02133293  1
  In  In2  1  0.81182971  0.33538516  0.48155335  1
  In  In3  1  -0.02217399  0.67250558  -0.00001606  1
  In  In4  1  0.17615531  0.66618445  0.19451883  1
  In  In5  1  0.83254151  0.51095792  -0.01959917  1
  In  In6  1  0.18759272  0.47776671  0.34970654  1
  In  In7  1  0.35126251  0.68198803  0.32754120  1
  In  In8  1  -0.01726694  0.48315865  0.83486815  1
  In  In9  1  0.81768029  0.66614811  0.49881559  1
  In  In10  1  0.49917570  0.87166497  0.01594719  1
  In  In11  1  0.84006155  0.00839301  0.83433146  1
  In  In12  1  -0.00933871  0.84366739  0.49164365  1
  In  In13  1  0.83236382  0.37209290  0.85037782  1
  In  In14  1  0.64073212  0.01642457  0.02393964  1
  In  In15  1  0.34588252  0.28340615  0.31332924  1
  In  In16  1  0.16862520  0.47687925  -0.00070319  1
  In  In17  1  0.82266405  0.18317284  0.63682013  1
  In  In18  1  0.86286217  0.13915665  0.30301872  1
  In  In19  1  0.16872898  0.87927392  0.03765664  1
  In  In20  1  0.01153455  0.66778454  0.67468191  1
  In  In21  1  0.83867001  0.32778784  0.16136769  1
  In  In22  1  0.51634064  0.68237056  0.16456919  1
  In  In23  1  0.35078083  0.48371976  0.50718757  1
  In  In24  1  0.00474309  0.50634794  0.49341800  1
  In  In25  1  0.18218879  0.86008136  0.31891175  1
  In  In26  1  0.00681984  0.50121237  0.15133454  1
  In  In27  1  0.48929494  0.18254825  0.65611246  1
  In  In28  1  0.62885030  0.14938747  0.18229957  1
  In  In29  1  0.63160879  0.65801750  0.35751279  1
  In  In30  1  0.49727850  0.34038799  0.49587163  1
  In  In31  1  0.63727930  0.32682798  0.32462906  1
  In  In32  1  -0.00384895  -0.01374379  0.67295874  1
  In  In33  1  0.50844309  0.49904647  0.02245210  1
  In  In34  1  0.82204734  0.87414517  0.30858961  1
  In  In35  1  -0.01514037  0.69520732  0.32056632  1
  In  In36  1  0.15804768  -0.00002578  0.86030767  1
  In  In37  1  0.34094950  0.47956126  0.17795750  1
  In  In38  1  0.83091613  0.15243526  0.01630281  1
  In  In39  1  0.51179777  0.83623081  0.66671316  1
  In  In40  1  -0.00350003  0.17109620  0.85904222  1
  In  In41  1  0.67011702  0.83605477  0.82730790  1
  In  In42  1  0.03215879  0.28221263  0.29255702  1
  In  In43  1  0.33523258  0.17454050  0.83447164  1
  In  In44  1  0.00466446  0.85060442  0.16857839  1
  In  In45  1  0.32670602  0.00104153  0.66288830  1
  In  In46  1  0.00849680  0.33875461  0.68597638  1
  In  In47  1  0.65184564  0.50230723  0.19139354  1
  In  In48  1  0.64366854  0.67134538  0.67608546  1
  In  In49  1  0.65863354  0.15985788  0.46836551  1
  In  In50  1  0.21311118  0.32761015  0.47768513  1
  In  In51  1  0.83663333  0.51275367  0.67437972  1
  In  In52  1  0.81741749  -0.02303360  0.48853166  1
  In  In53  1  0.16512743  0.66907829  0.52205414  1
  In  In54  1  0.16405270  0.67852123  0.82785610  1
  In  In55  1  0.64007048  0.15163732  0.85228958  1
  In  In56  1  0.48508283  0.32898042  0.83735168  1
  In  In57  1  0.65205566  -0.00452463  0.66040538  1
  In  In58  1  0.65604935  0.86478985  0.48356500  1
  In  In59  1  0.66014761  0.31102434  0.01114612  1
  In  In60  1  0.33336889  0.47377688  0.82347141  1
  In  In61  1  0.35290226  0.65436852  0.64541846  1
  In  In62  1  0.51950269  0.67465038  0.83724080  1
  In  In63  1  0.19411967  0.14210342  0.06263320  1
  In  In64  1  0.33456956  0.85259099  0.85859450  1
  In  In65  1  0.35410188  0.67689357  0.01198009  1
  In  In66  1  0.18948097  0.16070145  0.65899026  1
  In  In67  1  0.34815841  0.82067494  0.48756253  1
  In  In68  1  0.02210032  0.15453915  0.48172738  1
  In  In69  1  0.18051424  0.30692949  0.84314541  1
  In  In70  1  0.67756780  0.52325215  0.82934758  1
  In  In71  1  0.80587799  0.48877771  0.30210568  1
  Te  Te72  1  0.06887765  0.07209611  0.11589314  1
  Te  Te73  1  0.09874276  0.09018693  0.37253063  1
  Te  Te74  1  0.08460347  0.09402224  0.74937261  1
  Te  Te75  1  0.09003101  0.39520848  0.09373099  1
  Te  Te76  1  0.07856261  0.39451655  0.41911855  1
  Te  Te77  1  0.10596456  0.42048963  0.76913026  1
  Te  Te78  1  0.08724402  0.73904121  0.09405107  1
  Te  Te79  1  0.09767135  0.75526946  0.41033032  1
  Te  Te80  1  0.08420444  0.77257702  0.74829720  1
  Te  Te81  1  0.41133482  0.04976487  0.12607989  1
  Te  Te82  1  0.44317118  0.04646897  0.38407393  1
  Te  Te83  1  0.42240356  0.08154348  0.75022275  1
  Te  Te84  1  0.41916760  0.39842468  0.08155095  1
  Te  Te85  1  0.40343104  0.40664055  0.38816418  1
  Te  Te86  1  0.42965079  0.41435883  0.72922741  1
  Te  Te87  1  0.41282076  0.78070411  0.10516848  1
  Te  Te88  1  0.45232881  0.77309311  0.39036483  1
  Te  Te89  1  0.41219599  0.75420600  0.75859431  1
  Te  Te90  1  0.75080790  0.07474918  0.12105558  1
  Te  Te91  1  0.75262586  0.07031237  0.38770135  1
  Te  Te92  1  0.74358737  0.09074699  0.74206299  1
  Te  Te93  1  0.74593872  0.42346518  0.08423811  1
  Te  Te94  1  0.71703962  0.43039018  0.41021642  1
  Te  Te95  1  0.73894056  0.41265856  0.73715455  1
  Te  Te96  1  0.73560976  0.71116370  0.07221652  1
  Te  Te97  1  0.75354092  0.76905821  0.40678251  1
  Te  Te98  1  0.75122400  0.74371743  0.74579968  1
  Te  Te99  1  0.11905051  0.19793624  0.20059295  1
  Te  Te100  1  0.08436712  0.24920452  0.58593948  1
  Te  Te101  1  0.10522624  0.22763407  0.94643964  1
  Te  Te102  1  0.08423162  0.57219303  0.27217155  1
  Te  Te103  1  0.09470788  0.55975886  0.60430838  1
  Te  Te104  1  0.08387845  0.58024326  0.92179214  1
  Te  Te105  1  0.09728791  0.94916035  0.23477673  1
  Te  Te106  1  0.09457948  0.91336714  0.58022529  1
  Te  Te107  1  0.06902475  0.90690995  0.93381653  1
  Te  Te108  1  0.39953440  0.19996091  0.20005927  1
  Te  Te109  1  0.39822294  0.25132364  0.56239325  1
  Te  Te110  1  0.42571445  0.23564098  0.93665916  1
  Te  Te111  1  0.43296188  0.58196390  0.24613943  1
  Te  Te112  1  0.44233731  0.59872765  0.53988776  1
  Te  Te113  1  0.41863622  0.57701280  0.91567363  1
  Te  Te114  1  0.39811140  0.95390988  0.25409560  1
  Te  Te115  1  0.42521126  0.92231595  0.57629610  1
  Te  Te116  1  0.41458757  0.95577700  0.92619615  1
  Te  Te117  1  0.74677385  0.24514602  0.25227419  1
  Te  Te118  1  0.71061651  0.26436490  0.57123102  1
  Te  Te119  1  0.75925618  0.24049340  0.91093359  1
  Te  Te120  1  0.73690307  0.61444225  0.25472120  1
  Te  Te121  1  0.73170536  0.57588671  0.58347568  1
  Te  Te122  1  0.74944998  0.61828495  0.91868459  1
  Te  Te123  1  0.72753006  0.93153613  0.21175719  1
  Te  Te124  1  0.75189092  0.89708461  0.60117351  1
  Te  Te125  1  0.73488344  0.94021930  0.92568708  1
  Te  Te126  1  0.27534010  0.25378224  0.12358639  1
  Te  Te127  1  0.23931832  0.21294933  0.38928236  1
  Te  Te128  1  0.27438956  0.26643754  0.72870962  1
  Te  Te129  1  0.25297231  0.58212319  0.08966577  1
  Te  Te130  1  0.25564423  0.59761327  0.41864900  1
  Te  Te131  1  0.26146427  0.58868976  0.75020468  1
  Te  Te132  1  0.27830149  0.95901665  0.09592033  1
  Te  Te133  1  0.26746475  0.93250060  0.42087426  1
  Te  Te134  1  0.23948958  0.91862610  0.75730084  1
  Te  Te135  1  0.55799499  0.24845846  0.09747957  1
  Te  Te136  1  0.54365409  0.22996778  0.39574253  1
  Te  Te137  1  0.58793001  0.25255444  0.75081441  1
  Te  Te138  1  0.60933720  0.60213132  0.07061675  1
  Te  Te139  1  0.56051773  0.54809639  0.42653244  1
  Te  Te140  1  0.55750784  0.56254858  0.74027864  1
  Te  Te141  1  0.59552898  0.91358327  0.12574863  1
  Te  Te142  1  0.56932362  0.95358127  0.40343023  1
  Te  Te143  1  0.56604043  0.93395850  0.77137232  1
  Te  Te144  1  0.92869879  0.23645169  0.08940452  1
  Te  Te145  1  0.91091862  0.24193729  0.41315172  1
  Te  Te146  1  0.90887284  0.24627950  0.75670562  1
  Te  Te147  1  0.89622723  0.58935484  0.10074786  1
  Te  Te148  1  0.90527066  0.58106434  0.40394278  1
  Te  Te149  1  0.91102082  0.60172332  0.77195119  1
  Te  Te150  1  0.90158951  0.92592469  0.09032243  1
  Te  Te151  1  0.93533034  0.94007628  0.39043992  1
  Te  Te152  1  0.90808238  0.90258644  0.75581456  1
  Te  Te153  1  0.28544343  0.05060459  0.22501789  1
  Te  Te154  1  0.27839094  0.09696009  0.55368843  1
  Te  Te155  1  0.26130905  0.08310531  0.93269275  1
  Te  Te156  1  0.23845356  0.38600802  0.24078111  1
  Te  Te157  1  0.23995202  0.42451872  0.58456396  1
  Te  Te158  1  0.27476899  0.38805889  0.93562099  1
  Te  Te159  1  0.27449772  0.77604429  0.23122686  1
  Te  Te160  1  0.25537267  0.76368163  0.59908837  1
  Te  Te161  1  0.24459176  0.75824317  0.94133760  1
  Te  Te162  1  0.56774690  0.06469649  0.28911127  1
  Te  Te163  1  0.56943264  0.08316847  0.56913549  1
  Te  Te164  1  0.54064729  0.09816222  0.94808857  1
  Te  Te165  1  0.54991235  0.40320268  0.23153121  1
  Te  Te166  1  0.57885561  0.45055556  0.54860698  1
  Te  Te167  1  0.59730503  0.41869819  0.91796491  1
  Te  Te168  1  0.57619496  0.76839016  0.27215947  1
  Te  Te169  1  0.58271714  0.75281443  0.56160153  1
  Te  Te170  1  0.58508333  0.76724792  0.93587826  1
  Te  Te171  1  0.93331681  0.06371761  0.19606108  1
  Te  Te172  1  0.91348276  0.07616532  0.57027523  1
  Te  Te173  1  0.93345655  0.06129150  0.94296401  1
  Te  Te174  1  0.92799177  0.40788203  0.26060794  1
  Te  Te175  1  0.90992313  0.40662386  0.58060711  1
  Te  Te176  1  0.94017880  0.39708202  0.95243270  1
  Te  Te177  1  0.88989866  0.76251734  0.22617186  1
  Te  Te178  1  0.91521345  0.74807774  0.58302363  1
  Te  Te179  1  0.91263515  0.77454018  0.91713921  1
