# generated using pymatgen
data_In2Te3
_symmetry_space_group_name_H-M   'P 1'
_cell_length_a   18.98590020
_cell_length_b   18.97788758
_cell_length_c   18.98034369
_cell_angle_alpha   90.03366678
_cell_angle_beta   89.84184344
_cell_angle_gamma   90.09780390
_symmetry_Int_Tables_number   1
_chemical_formula_structural   In2Te3
_chemical_formula_sum   'In72 Te108'
_cell_volume   6838.81372269
_cell_formula_units_Z   36
loop_
 _symmetry_equiv_pos_site_id
 _symmetry_equiv_pos_as_xyz
  1  'x, y, z'
loop_
 _atom_site_type_symbol
 _atom_site_label
 _atom_site_symmetry_multiplicity
 _atom_site_fract_x
 _atom_site_fract_y
 _atom_site_fract_z
 _atom_site_occupancy
  In  In0  1  -0.02797646  0.15207383  0.51470930  1
  In  In1  1  -0.00365757  0.67863769  0.00806427  1
  In  In2  1  -0.01125836  0.31366340  0.35693797  1
  In  In3  1  0.67390499  0.66132865  0.67282813  1
  In  In4  1  0.50198605  0.80191754  -0.01656994  1
  In  In5  1  0.83737317  0.69513773  0.16127431  1
  In  In6  1  -0.00251103  0.51180406  0.16202320  1
  In  In7  1  -0.01869182  0.32665815  0.66529532  1
  In  In8  1  0.47709730  0.52918195  0.32264615  1
  In  In9  1  0.00882886  0.83039113  0.18630772  1
  In  In10  1  0.50556646  0.51460555  0.64127325  1
  In  In11  1  0.33578507  0.19927514  0.18982134  1
  In  In12  1  0.14089675  0.18289624  0.68743261  1
  In  In13  1  0.17750728  0.84019392  0.03213784  1
  In  In14  1  -0.03488796  0.15722349  0.15121165  1
  In  In15  1  0.32073643  0.17893611  0.50717507  1
  In  In16  1  0.29970343  0.18177457  0.82039734  1
  In  In17  1  0.32571157  0.66157181  0.03320678  1
  In  In18  1  0.34401378  0.66975529  0.64297948  1
  In  In19  1  0.15428646  0.49101815  0.32610454  1
  In  In20  1  0.81937166  0.82751939  -0.01897953  1
  In  In21  1  0.70949547  0.02318163  0.68011883  1
  In  In22  1  0.51153204  0.33374948  0.81606292  1
  In  In23  1  0.16186710  0.67382544  0.51383847  1
  In  In24  1  0.18954290  0.66171311  0.84914956  1
  In  In25  1  0.14750713  0.34720528  0.17394492  1
  In  In26  1  0.50074391  0.15226808  0.01397078  1
  In  In27  1  0.82464352  0.82190789  0.69102581  1
  In  In28  1  0.15658043  0.17510629  0.36703712  1
  In  In29  1  0.72528468  0.34552260  0.68002744  1
  In  In30  1  0.69269572  0.86268849  0.17056652  1
  In  In31  1  0.32438524  0.48358951  0.82679838  1
  In  In32  1  0.51136775  0.32751130  0.48805297  1
  In  In33  1  0.16262877  0.49277980  0.01009356  1
  In  In34  1  -0.01226271  0.00120225  0.00106079  1
  In  In35  1  0.51034148  -0.00826622  0.18959177  1
  In  In36  1  -0.02913633  0.62459022  0.69235403  1
  In  In37  1  0.32362720  0.00434456  0.32986369  1
  In  In38  1  0.65204932  0.83260120  0.48518595  1
  In  In39  1  0.30980365  0.48444008  0.51299827  1
  In  In40  1  0.52042250  0.01250348  0.50488389  1
  In  In41  1  0.14603289  0.01001362  0.50157737  1
  In  In42  1  -0.00694984  0.83705957  0.81582246  1
  In  In43  1  0.51882027  0.16145459  0.67741040  1
  In  In44  1  0.65319061  0.34029917  0.31679562  1
  In  In45  1  0.36727165  0.35003948  0.00183272  1
  In  In46  1  0.83435679  -0.02267449  0.46692453  1
  In  In47  1  0.67917488  0.68010399  0.29761180  1
  In  In48  1  0.52543188  0.53021562  0.01384886  1
  In  In49  1  0.83655402  0.52156130  0.35653483  1
  In  In50  1  0.84697125  0.33632601  0.15715902  1
  In  In51  1  0.50479431  0.65621548  0.83489807  1
  In  In52  1  0.18034656  0.82957786  0.33762286  1
  In  In53  1  0.14945930  0.02193999  0.84305179  1
  In  In54  1  0.13230807  0.86430613  0.66499669  1
  In  In55  1  0.83563724  0.14578958  0.32791417  1
  In  In56  1  0.84213002  0.44860843  -0.04071239  1
  In  In57  1  0.16134222  0.16356256  0.00490287  1
  In  In58  1  0.13944317  0.31923122  0.81010638  1
  In  In59  1  0.83079400  0.67133800  0.51792631  1
  In  In60  1  -0.02679749  0.14110564  0.84034797  1
  In  In61  1  0.64345592  0.51252719  0.48970120  1
  In  In62  1  0.52709594  0.15089716  0.31542965  1
  In  In63  1  0.68116263  0.30932676  -0.03612472  1
  In  In64  1  0.35101386  -0.01336330  0.64834795  1
  In  In65  1  0.33654304  0.81311310  0.79069036  1
  In  In66  1  0.35938301  -0.04107223  0.01096270  1
  In  In67  1  0.68170547  -0.00329272  0.01128262  1
  In  In68  1  -0.01076055  0.48488139  0.51572238  1
  In  In69  1  0.53224139  0.00495090  0.82772775  1
  In  In70  1  0.35417155  0.82279386  0.17454221  1
  In  In71  1  0.51042238  0.35320899  0.15503136  1
  Te  Te72  1  0.08274761  0.07238928  0.09462666  1
  Te  Te73  1  0.04743608  0.07841052  0.40479326  1
  Te  Te74  1  0.05541332  0.06668495  0.73423513  1
  Te  Te75  1  0.05392290  0.40394624  0.06970317  1
  Te  Te76  1  0.08465968  0.40334929  0.43057394  1
  Te  Te77  1  0.06138737  0.42643055  0.74608074  1
  Te  Te78  1  0.10089084  0.73310665  0.10235659  1
  Te  Te79  1  0.08655565  0.77139320  0.43572190  1
  Te  Te80  1  0.09931994  0.74233058  0.75735999  1
  Te  Te81  1  0.40835349  0.08551173  0.11406182  1
  Te  Te82  1  0.41664987  0.09505978  0.41336629  1
  Te  Te83  1  0.40880001  0.08490027  0.75200779  1
  Te  Te84  1  0.41640833  0.45678165  0.09644305  1
  Te  Te85  1  0.42097018  0.42345236  0.42002895  1
  Te  Te86  1  0.42239374  0.42118435  0.73090553  1
  Te  Te87  1  0.44545142  0.72491544  0.10032693  1
  Te  Te88  1  0.36447905  0.73207636  0.50735655  1
  Te  Te89  1  0.45190402  0.74609879  0.72370201  1
  Te  Te90  1  0.74371971  0.07338224  0.11875258  1
  Te  Te91  1  0.73383438  0.06479215  0.39968776  1
  Te  Te92  1  0.75688995  0.13303844  0.76857287  1
  Te  Te93  1  0.74502289  0.40425513  0.06801720  1
  Te  Te94  1  0.73842526  0.42173110  0.41364606  1
  Te  Te95  1  0.74932938  0.43956700  0.79593907  1
  Te  Te96  1  0.72142513  0.74302457  0.06864176  1
  Te  Te97  1  0.75531465  0.74713660  0.41270260  1
  Te  Te98  1  0.73509486  0.74430647  0.77981146  1
  Te  Te99  1  0.06314120  0.24238362  0.24503120  1
  Te  Te100  1  0.07418970  0.24940352  0.57047972  1
  Te  Te101  1  0.06552641  0.23757296  0.91440793  1
  Te  Te102  1  0.07663582  0.59207708  0.25347928  1
  Te  Te103  1  0.07999117  0.57502107  0.59966648  1
  Te  Te104  1  0.08122177  0.58322987  0.92037338  1
  Te  Te105  1  0.09444068  0.92132791  0.26125192  1
  Te  Te106  1  0.04705636  0.91788132  0.55953184  1
  Te  Te107  1  0.08962958  0.90145074  0.92398202  1
  Te  Te108  1  0.44449685  0.26989977  0.26453665  1
  Te  Te109  1  0.43007654  0.24736724  0.58811928  1
  Te  Te110  1  0.42429299  0.24029688  0.90744952  1
  Te  Te111  1  0.38869681  0.63994189  0.29252012  1
  Te  Te112  1  0.42716444  0.59156110  0.53584094  1
  Te  Te113  1  0.39709914  0.58262010  0.91594443  1
  Te  Te114  1  0.42642545  0.90393548  0.28187913  1
  Te  Te115  1  0.43766512  0.90579992  0.56330718  1
  Te  Te116  1  0.42838341  0.90483614  0.88274836  1
  Te  Te117  1  0.75892112  0.25518412  0.24869892  1
  Te  Te118  1  0.78998265  0.26769231  0.57484374  1
  Te  Te119  1  0.78179437  0.24582330  0.87285159  1
  Te  Te120  1  0.76803379  0.57586395  0.23441263  1
  Te  Te121  1  0.75063685  0.56280762  0.58492706  1
  Te  Te122  1  0.75331594  0.55284772  0.90320685  1
  Te  Te123  1  0.79698899  0.91486693  0.25935029  1
  Te  Te124  1  0.75320864  0.89758709  0.57987257  1
  Te  Te125  1  0.75126045  0.92956304  0.90073095  1
  Te  Te126  1  0.25575810  0.26066499  0.07574359  1
  Te  Te127  1  0.26005911  0.26794920  0.40905969  1
  Te  Te128  1  0.25808263  0.28690849  0.71140303  1
  Te  Te129  1  0.23994141  0.56948091  0.10691692  1
  Te  Te130  1  0.23615732  0.57898191  0.42238529  1
  Te  Te131  1  0.25579407  0.58330512  0.73723299  1
  Te  Te132  1  0.25833156  0.92922104  0.12115207  1
  Te  Te133  1  0.25393209  0.92670700  0.43784175  1
  Te  Te134  1  0.24299014  0.93479555  0.75678811  1
  Te  Te135  1  0.59265662  0.25094335  0.08086194  1
  Te  Te136  1  0.60600838  0.23399333  0.41575046  1
  Te  Te137  1  0.61813049  0.25090841  0.74946505  1
  Te  Te138  1  0.62926775  0.61695243  0.06050176  1
  Te  Te139  1  0.58290413  0.61306384  0.39738346  1
  Te  Te140  1  0.58912702  0.55856781  0.75674626  1
  Te  Te141  1  0.56149668  0.91853469  0.06636944  1
  Te  Te142  1  0.61043168  0.95082936  0.40359680  1
  Te  Te143  1  0.59732882  0.93549542  0.71815670  1
  Te  Te144  1  0.90555424  0.24890231  0.05541065  1
  Te  Te145  1  0.87681711  0.25291078  0.43616640  1
  Te  Te146  1  0.89505707  0.22998545  0.74622864  1
  Te  Te147  1  0.89838831  0.58163665  0.07025243  1
  Te  Te148  1  0.93781942  0.60142928  0.43319130  1
  Te  Te149  1  0.86652060  0.56248375  0.77878617  1
  Te  Te150  1  0.91811656  0.89063366  0.07640208  1
  Te  Te151  1  0.89895169  0.88434942  0.37137954  1
  Te  Te152  1  0.89977394  0.93099406  0.75678684  1
  Te  Te153  1  0.23820880  0.10560742  0.25824009  1
  Te  Te154  1  0.24010370  0.09005725  0.60148684  1
  Te  Te155  1  0.26270864  0.07336765  0.93491958  1
  Te  Te156  1  0.25296480  0.41306250  0.24838715  1
  Te  Te157  1  0.23825168  0.39655952  0.60157698  1
  Te  Te158  1  0.24043408  0.39275167  0.91436847  1
  Te  Te159  1  0.26851583  0.73325097  0.25908941  1
  Te  Te160  1  0.24161257  0.78231924  0.59414210  1
  Te  Te161  1  0.27003205  0.76787749  0.92889729  1
  Te  Te162  1  0.62365143  0.08848643  0.21602347  1
  Te  Te163  1  0.61761867  0.09855954  0.58273858  1
  Te  Te164  1  0.60442588  0.09966037  0.91767968  1
  Te  Te165  1  0.58530442  0.45208244  0.24109483  1
  Te  Te166  1  0.60012648  0.39903837  0.59193442  1
  Te  Te167  1  0.57426504  0.41347203  0.92779685  1
  Te  Te168  1  0.59341872  0.78684904  0.24665346  1
  Te  Te169  1  0.59108614  0.73115810  0.57365607  1
  Te  Te170  1  0.60304927  0.75542094  0.88679706  1
  Te  Te171  1  0.88446388  0.05065162  0.22050552  1
  Te  Te172  1  0.87108117  0.06809529  0.57863223  1
  Te  Te173  1  0.88013552  0.06576739  0.92747583  1
  Te  Te174  1  0.92303925  0.41954347  0.26954633  1
  Te  Te175  1  0.88235536  0.40973488  0.58877179  1
  Te  Te176  1  0.91889267  0.42444912  0.83223041  1
  Te  Te177  1  0.92198940  0.74365212  0.27173760  1
  Te  Te178  1  0.92761488  0.74274945  0.61036559  1
  Te  Te179  1  0.91185784  0.73897599  0.89830576  1
