# generated using pymatgen
data_In2Te3
_symmetry_space_group_name_H-M   'P 1'
_cell_length_a   18.76836633
_cell_length_b   18.75840476
_cell_length_c   18.75693916
_cell_angle_alpha   89.99859523
_cell_angle_beta   90.07693346
_cell_angle_gamma   89.96659232
_symmetry_Int_Tables_number   1
_chemical_formula_structural   In2Te3
_chemical_formula_sum   'In72 Te108'
_cell_volume   6603.64743326
_cell_formula_units_Z   36
loop_
 _symmetry_equiv_pos_site_id
 _symmetry_equiv_pos_as_xyz
  1  'x, y, z'
loop_
 _atom_site_type_symbol
 _atom_site_label
 _atom_site_symmetry_multiplicity
 _atom_site_fract_x
 _atom_site_fract_y
 _atom_site_fract_z
 _atom_site_occupancy
  In  In0  1  0.31446075  0.84535806  0.49532614  1
  In  In1  1  0.64960571  0.30874955  0.32768208  1
  In  In2  1  0.49520229  0.18719237  0.33580314  1
  In  In3  1  0.86387676  0.15114152  -0.02497630  1
  In  In4  1  0.84241984  0.85514741  0.65468818  1
  In  In5  1  0.01647786  0.50138114  0.83923550  1
  In  In6  1  0.02313182  0.46085680  0.16212481  1
  In  In7  1  0.50516255  0.83894276  0.66493900  1
  In  In8  1  0.18354882  0.46748511  0.32438366  1
  In  In9  1  0.67574773  0.82805651  0.17110369  1
  In  In10  1  -0.00438105  0.68101249  0.30794845  1
  In  In11  1  0.00348562  0.31834428  0.31050541  1
  In  In12  1  0.32753707  0.85216265  0.82782453  1
  In  In13  1  0.65314694  0.48248510  0.15280717  1
  In  In14  1  0.17197532  0.31310974  0.15540567  1
  In  In15  1  0.67741417  -0.02315596  0.33708005  1
  In  In16  1  0.17014879  0.29832182  0.49917669  1
  In  In17  1  0.50116593  0.64929077  0.83035888  1
  In  In18  1  0.46974899  0.34270372  0.14758039  1
  In  In19  1  0.33451040  0.00734890  0.68135616  1
  In  In20  1  0.83854716  0.67523283  0.15777542  1
  In  In21  1  0.48874235  0.17949786  -0.00813901  1
  In  In22  1  0.01620148  0.02062324  0.35470292  1
  In  In23  1  0.64604897  0.66262257  0.69089092  1
  In  In24  1  0.16991835  0.15751272  0.68953177  1
  In  In25  1  0.16330409  0.83519180  0.33690547  1
  In  In26  1  0.48765235  0.00110177  0.16491379  1
  In  In27  1  0.49617570  0.86066308  0.32828527  1
  In  In28  1  0.34279253  0.16644416  0.49426294  1
  In  In29  1  0.84881448  0.32397287  0.48897065  1
  In  In30  1  0.31895117  0.03486847  0.31627381  1
  In  In31  1  0.49843876  0.65959122  0.51745432  1
  In  In32  1  0.02452204  0.87009215  0.85513654  1
  In  In33  1  0.34822820  0.17564221  0.83346041  1
  In  In34  1  0.67300246  0.17111746  0.81413300  1
  In  In35  1  0.32120571  -0.00805826  -0.00326198  1
  In  In36  1  0.83517036  0.31816884  0.84035287  1
  In  In37  1  0.47502642  0.82744313  -0.01837287  1
  In  In38  1  0.02656326  0.29397863  -0.02246178  1
  In  In39  1  0.33280172  0.65455071  -0.01016824  1
  In  In40  1  0.80774598  0.46707411  0.65331830  1
  In  In41  1  0.33629565  0.65914369  0.32066450  1
  In  In42  1  -0.01761856  0.48882514  0.52294154  1
  In  In43  1  0.48028279  0.65146634  0.15816380  1
  In  In44  1  0.81092119  0.50341433  -0.00339770  1
  In  In45  1  0.00133654  0.86995441  0.51402661  1
  In  In46  1  0.65590730  0.17309524  0.14254974  1
  In  In47  1  0.81381021  0.64135109  0.85217905  1
  In  In48  1  0.17585727  0.48302254  0.69216889  1
  In  In49  1  0.82369842  0.01185369  0.50505180  1
  In  In50  1  0.62661761  0.14986786  0.52188542  1
  In  In51  1  0.37188219  0.48261245  0.48564899  1
  In  In52  1  0.84919647  0.17017227  0.32632167  1
  In  In53  1  0.02506128  0.00110572  0.67863682  1
  In  In54  1  0.84224105  0.16246440  0.68025190  1
  In  In55  1  0.17943231  0.65420329  0.13890987  1
  In  In56  1  0.02944018  0.15699592  0.14387743  1
  In  In57  1  0.83218949  0.50138608  0.32667821  1
  In  In58  1  0.16783961  0.68419933  0.82959379  1
  In  In59  1  0.64760211  0.32581130  0.66808787  1
  In  In60  1  0.33916200  0.33435774  0.66464813  1
  In  In61  1  0.65380511  0.84724008  0.82082052  1
  In  In62  1  0.80866600  0.69475672  0.47957585  1
  In  In63  1  0.31864645  0.48121558  0.85048277  1
  In  In64  1  0.63992238  0.49996433  0.50420295  1
  In  In65  1  0.67032316  0.01226099  -0.00232379  1
  In  In66  1  0.18780979  0.68074188  0.51792424  1
  In  In67  1  0.83981716  0.83720425  0.01345368  1
  In  In68  1  0.00241167  0.66958358  0.69346014  1
  In  In69  1  0.66730428  0.67667371  0.36299581  1
  In  In70  1  0.00564050  0.66049118  -0.01401307  1
  In  In71  1  0.00231102  0.85503110  0.16767202  1
  Te  Te72  1  0.10876545  0.05940332  0.06095465  1
  Te  Te73  1  0.07827062  0.12408155  0.43815565  1
  Te  Te74  1  0.06112116  0.10107528  0.79186786  1
  Te  Te75  1  0.10891699  0.40855958  0.04931513  1
  Te  Te76  1  0.06626421  0.41683317  0.41273271  1
  Te  Te77  1  0.08879561  0.39314137  0.76978997  1
  Te  Te78  1  0.08165297  0.75464981  0.07930533  1
  Te  Te79  1  0.07490458  0.74630255  0.42578222  1
  Te  Te80  1  0.09002703  0.78322709  0.74323744  1
  Te  Te81  1  0.40044744  0.09665522  0.08448107  1
  Te  Te82  1  0.43266052  0.07047387  0.41322236  1
  Te  Te83  1  0.43497420  0.11578012  0.72221162  1
  Te  Te84  1  0.37115135  0.40540794  0.05014210  1
  Te  Te85  1  0.45080339  0.38467208  0.41292348  1
  Te  Te86  1  0.41831036  0.40658658  0.76814454  1
  Te  Te87  1  0.39482358  0.76007482  0.08954812  1
  Te  Te88  1  0.41319443  0.75347282  0.41748943  1
  Te  Te89  1  0.41693628  0.75072210  0.75256029  1
  Te  Te90  1  0.76878951  0.08737354  0.08473283  1
  Te  Te91  1  0.73706049  0.10889426  0.41362370  1
  Te  Te92  1  0.75625778  0.06616724  0.75128495  1
  Te  Te93  1  0.75237561  0.39937733  0.08311269  1
  Te  Te94  1  0.74453068  0.41569083  0.41889960  1
  Te  Te95  1  0.73228261  0.41687048  0.78093111  1
  Te  Te96  1  0.73485795  0.73549908  0.06363947  1
  Te  Te97  1  0.73990669  0.80045417  0.40110325  1
  Te  Te98  1  0.75973647  0.74983991  0.74742972  1
  Te  Te99  1  0.10657865  0.21683073  0.26605938  1
  Te  Te100  1  0.08285570  0.24283773  0.60246037  1
  Te  Te101  1  0.12516052  0.19756963  0.92321886  1
  Te  Te102  1  0.09101872  0.57542412  0.24849866  1
  Te  Te103  1  0.08502111  0.57999078  0.59648793  1
  Te  Te104  1  0.11757657  0.57601016  0.92673671  1
  Te  Te105  1  0.09745608  0.94215727  0.25025208  1
  Te  Te106  1  0.11510837  0.92502873  0.58748655  1
  Te  Te107  1  0.10540700  0.93440539  0.96368771  1
  Te  Te108  1  0.39890460  0.24807752  0.24061446  1
  Te  Te109  1  0.42810428  0.23586014  0.59592567  1
  Te  Te110  1  0.40952782  0.28574054  0.91926652  1
  Te  Te111  1  0.40591779  0.55487508  0.24323802  1
  Te  Te112  1  0.40166535  0.57872083  0.59296280  1
  Te  Te113  1  0.43344306  0.55680755  0.92971197  1
  Te  Te114  1  0.38440694  0.91729607  0.24009424  1
  Te  Te115  1  0.41484336  0.92677565  0.57783731  1
  Te  Te116  1  0.42954932  0.94465547  0.89656998  1
  Te  Te117  1  0.75454283  0.25001544  0.23525455  1
  Te  Te118  1  0.74785743  0.24735780  0.58103276  1
  Te  Te119  1  0.74456217  0.23990526  0.93311167  1
  Te  Te120  1  0.74084847  0.59473003  0.24680083  1
  Te  Te121  1  0.74919020  0.58888933  0.58169202  1
  Te  Te122  1  0.69730744  0.57168544  0.92093402  1
  Te  Te123  1  0.75817011  0.93995982  0.22005551  1
  Te  Te124  1  0.73406861  0.92718071  0.58625371  1
  Te  Te125  1  0.75493517  0.91821926  0.91238745  1
  Te  Te126  1  0.24415487  0.20155843  0.08828353  1
  Te  Te127  1  0.27144673  0.25874275  0.40100672  1
  Te  Te128  1  0.24436263  0.26750224  0.76403914  1
  Te  Te129  1  0.28319203  0.55761003  0.09473347  1
  Te  Te130  1  0.24549092  0.57879982  0.41844799  1
  Te  Te131  1  0.26307885  0.59157427  0.75429603  1
  Te  Te132  1  0.21507327  0.93778720  0.08685010  1
  Te  Te133  1  0.23490297  0.94657147  0.41279955  1
  Te  Te134  1  0.23030721  0.94583165  0.76731014  1
  Te  Te135  1  0.58189343  0.28020690  0.06230681  1
  Te  Te136  1  0.56216372  0.27777206  0.45162472  1
  Te  Te137  1  0.56248881  0.25923341  0.76899377  1
  Te  Te138  1  0.57097405  0.57399858  0.07033607  1
  Te  Te139  1  0.55798332  0.57765076  0.40085998  1
  Te  Te140  1  0.56978913  0.54449238  0.74344408  1
  Te  Te141  1  0.57641736  0.91217895  0.07550799  1
  Te  Te142  1  0.57554068  0.92969194  0.43191832  1
  Te  Te143  1  0.57858882  0.94751562  0.74003725  1
  Te  Te144  1  0.92456185  0.24892977  0.08154817  1
  Te  Te145  1  0.95196226  0.22379555  0.42988203  1
  Te  Te146  1  0.93599897  0.23394759  0.77256158  1
  Te  Te147  1  0.93165907  0.57451635  0.09054788  1
  Te  Te148  1  0.91835687  0.58785800  0.41887988  1
  Te  Te149  1  0.90488599  0.56280157  0.74679562  1
  Te  Te150  1  0.93354198  0.93842883  0.06532743  1
  Te  Te151  1  0.90809888  0.92500436  0.40925216  1
  Te  Te152  1  0.91525880  0.93215815  0.76340088  1
  Te  Te153  1  0.24100562  0.11639937  0.21555299  1
  Te  Te154  1  0.24666465  0.08351448  0.57985347  1
  Te  Te155  1  0.24541036  0.09541255  0.91000432  1
  Te  Te156  1  0.27317999  0.38467730  0.24240300  1
  Te  Te157  1  0.24429357  0.42042901  0.56794442  1
  Te  Te158  1  0.25818975  0.38395846  0.94528507  1
  Te  Te159  1  0.24489922  0.75136894  0.23954841  1
  Te  Te160  1  0.26471389  0.76441585  0.60983062  1
  Te  Te161  1  0.24798878  0.76776221  0.92887931  1
  Te  Te162  1  0.58312966  0.08725556  0.24762306  1
  Te  Te163  1  0.56550055  0.08009039  0.63572183  1
  Te  Te164  1  0.57443137  0.08680558  0.90779343  1
  Te  Te165  1  0.56401413  0.41045549  0.25359676  1
  Te  Te166  1  0.55859761  0.42906473  0.60478244  1
  Te  Te167  1  0.61650109  0.44588850  0.87738513  1
  Te  Te168  1  0.57051384  0.74898251  0.25093923  1
  Te  Te169  1  0.60132906  0.75555072  0.57754601  1
  Te  Te170  1  0.58562482  0.74808214  0.91426000  1
  Te  Te171  1  0.93125617  0.07909837  0.23847009  1
  Te  Te172  1  0.93218373  0.08209702  0.58554777  1
  Te  Te173  1  0.95066006  0.06105370  0.89742728  1
  Te  Te174  1  0.89978041  0.40204473  0.23379244  1
  Te  Te175  1  0.92617844  0.37854033  0.61247649  1
  Te  Te176  1  0.92199331  0.41757731  0.92966385  1
  Te  Te177  1  0.89489848  0.78018551  0.25333378  1
  Te  Te178  1  0.92228051  0.74304182  0.58193493  1
  Te  Te179  1  0.92204268  0.75139697  0.89803560  1
