# generated using pymatgen
data_In2Te3
_symmetry_space_group_name_H-M   'P 1'
_cell_length_a   18.86802123
_cell_length_b   18.90242434
_cell_length_c   18.90266070
_cell_angle_alpha   90.06948493
_cell_angle_beta   90.08706765
_cell_angle_gamma   90.08385802
_symmetry_Int_Tables_number   1
_chemical_formula_structural   In2Te3
_chemical_formula_sum   'In72 Te108'
_cell_volume   6741.63935702
_cell_formula_units_Z   36
loop_
 _symmetry_equiv_pos_site_id
 _symmetry_equiv_pos_as_xyz
  1  'x, y, z'
loop_
 _atom_site_type_symbol
 _atom_site_label
 _atom_site_symmetry_multiplicity
 _atom_site_fract_x
 _atom_site_fract_y
 _atom_site_fract_z
 _atom_site_occupancy
  In  In0  1  0.34795241  0.84353204  0.15668413  1
  In  In1  1  0.16077368  0.85931422  0.67702558  1
  In  In2  1  0.16222486  0.66074958  0.49775323  1
  In  In3  1  0.14626844  0.80273440  0.33061785  1
  In  In4  1  0.68392163  0.48582442  0.17446333  1
  In  In5  1  0.00552442  0.15601618  0.80868234  1
  In  In6  1  -0.02335496  0.66247060  0.34363949  1
  In  In7  1  0.16949604  0.02352395  0.17586684  1
  In  In8  1  0.49999071  0.65275383  0.48961010  1
  In  In9  1  0.46252292  0.84052585  -0.00479218  1
  In  In10  1  0.49864000  0.83668183  0.65707800  1
  In  In11  1  0.67321386  0.14640330  0.18071849  1
  In  In12  1  0.64787279  0.18616494  0.81304360  1
  In  In13  1  0.67202662  0.33750240  0.41320130  1
  In  In14  1  0.83862016  0.67940370  0.82545822  1
  In  In15  1  0.85337983  0.15307687  0.35710142  1
  In  In16  1  0.00993981  0.32026635  0.33336114  1
  In  In17  1  0.64605171  0.03180103  0.66191273  1
  In  In18  1  0.00051204  0.66020427  0.67678142  1
  In  In19  1  0.86566983  0.18408365  -0.02073012  1
  In  In20  1  0.30519418  0.04709417  -0.01681171  1
  In  In21  1  0.35379113  0.49219788  0.50327364  1
  In  In22  1  0.49106516  0.19115591  -0.02139780  1
  In  In23  1  0.18356466  0.33529025  0.81371032  1
  In  In24  1  0.32986943  0.42934088  0.25802639  1
  In  In25  1  0.49171249  0.48628748  -0.00027593  1
  In  In26  1  0.66597097  0.65764752  -0.01364062  1
  In  In27  1  0.83180922  0.36298409  0.83015478  1
  In  In28  1  0.32474963  0.87752092  0.82689525  1
  In  In29  1  0.65819587  0.49704531  0.82388874  1
  In  In30  1  0.16987937  0.01135497  0.51182590  1
  In  In31  1  0.01441007  0.00116623  0.35391027  1
  In  In32  1  0.18928957  0.64748243  0.83094774  1
  In  In33  1  0.50494807  0.67932195  0.83243403  1
  In  In34  1  0.84677104  0.00242829  0.18681668  1
  In  In35  1  0.17509800  0.48565099  0.64371012  1
  In  In36  1  0.16730194  0.32198940  0.47894507  1
  In  In37  1  0.16239466  0.17466535  0.66685539  1
  In  In38  1  0.83004984  0.32489719  0.17046284  1
  In  In39  1  -0.04909211  0.62836986  0.05145356  1
  In  In40  1  0.35961539  0.01597176  0.37502235  1
  In  In41  1  -0.00814070  0.85628874  0.83871892  1
  In  In42  1  0.81417926  0.20622107  0.63968377  1
  In  In43  1  0.68833276  0.63157512  0.35843851  1
  In  In44  1  0.67802496  -0.01008753  -0.00829386  1
  In  In45  1  0.49931041  0.32661781  0.19479174  1
  In  In46  1  0.32868314  0.68082712  0.01120884  1
  In  In47  1  0.81502592  0.83124574  -0.00818339  1
  In  In48  1  0.29286293  0.31252038  0.01269767  1
  In  In49  1  0.68196533  0.83829104  0.50744516  1
  In  In50  1  0.83820257  0.65882960  0.52285954  1
  In  In51  1  0.13372696  0.85135520  -0.00387275  1
  In  In52  1  0.29704015  0.83813624  0.50557927  1
  In  In53  1  0.58430679  0.31555942  0.62339982  1
  In  In54  1  0.16693352  0.63109052  0.19174255  1
  In  In55  1  0.35962503  0.64252297  0.32759396  1
  In  In56  1  0.01167750  0.51160760  0.84158298  1
  In  In57  1  0.64120805  0.01943850  0.32596876  1
  In  In58  1  0.19023562  0.15947641  0.34158810  1
  In  In59  1  0.66477183  0.83901923  0.80194041  1
  In  In60  1  0.52401056  0.82608800  0.34078666  1
  In  In61  1  0.17556497  0.48849185  0.02228838  1
  In  In62  1  0.38009068  0.05209340  0.65019661  1
  In  In63  1  0.49700012  0.01952144  0.14268288  1
  In  In64  1  0.04079144  0.32893843  0.01634700  1
  In  In65  1  0.83295195  0.00922637  0.51156555  1
  In  In66  1  0.67478682  0.80654457  0.17930251  1
  In  In67  1  0.80790805  0.42191160  0.59249730  1
  In  In68  1  0.02658982  -0.00216011  -0.00229162  1
  In  In69  1  -0.00952599  0.80116578  0.16538885  1
  In  In70  1  0.36902222  0.45405584  0.78285888  1
  In  In71  1  0.65393022  0.35642980  -0.00057695  1
  Te  Te72  1  0.10456917  0.10581225  0.06842475  1
  Te  Te73  1  0.08070793  0.10942398  0.43585346  1
  Te  Te74  1  0.05079987  0.07618456  0.69184735  1
  Te  Te75  1  0.07548990  0.43349766  0.11950841  1
  Te  Te76  1  0.09490808  0.42456563  0.39918894  1
  Te  Te77  1  0.07850942  0.41849424  0.74185655  1
  Te  Te78  1  0.10557101  0.73328294  0.09517030  1
  Te  Te79  1  0.05882224  0.75769182  0.44255264  1
  Te  Te80  1  0.08923540  0.74507819  0.76859816  1
  Te  Te81  1  0.40089951  0.11911301  0.08023922  1
  Te  Te82  1  0.45335394  0.10725143  0.44366185  1
  Te  Te83  1  0.40914793  0.12875224  0.77542521  1
  Te  Te84  1  0.41198264  0.38648692  0.08071946  1
  Te  Te85  1  0.46455704  0.41669414  0.43354847  1
  Te  Te86  1  0.47605213  0.41645960  0.68447451  1
  Te  Te87  1  0.44163237  0.73533579  0.10216218  1
  Te  Te88  1  0.40577776  0.76516669  0.41780839  1
  Te  Te89  1  0.40577141  0.76729721  0.75658959  1
  Te  Te90  1  0.76755302  0.08468251  0.07550202  1
  Te  Te91  1  0.73274557  0.08926168  0.42581527  1
  Te  Te92  1  0.75338520  0.10499198  0.74235081  1
  Te  Te93  1  0.77221359  0.42207318  0.06650656  1
  Te  Te94  1  0.76789220  0.44780355  0.44702644  1
  Te  Te95  1  0.72480934  0.39756889  0.72937522  1
  Te  Te96  1  0.76307208  0.72378728  0.08689290  1
  Te  Te97  1  0.76384816  0.74970202  0.41796349  1
  Te  Te98  1  0.72157796  0.71699693  0.74264596  1
  Te  Te99  1  0.11783056  0.25115848  0.24342182  1
  Te  Te100  1  0.07762480  0.27451449  0.59055532  1
  Te  Te101  1  0.09148622  0.24756547  0.89701382  1
  Te  Te102  1  0.08984900  0.57215050  0.30262705  1
  Te  Te103  1  0.06779152  0.56870685  0.57460540  1
  Te  Te104  1  0.09623396  0.59240959  0.93968433  1
  Te  Te105  1  0.08330010  0.91036433  0.23278819  1
  Te  Te106  1  0.07638273  0.91352157  0.57005441  1
  Te  Te107  1  0.11626998  0.95243025  0.87568175  1
  Te  Te108  1  0.37206310  0.28511334  0.26127425  1
  Te  Te109  1  0.47014469  0.23587532  0.55019890  1
  Te  Te110  1  0.37367311  0.24497850  0.90458678  1
  Te  Te111  1  0.42549058  0.54106113  0.24617282  1
  Te  Te112  1  0.39708334  0.60855674  0.58374147  1
  Te  Te113  1  0.41521417  0.59245635  0.91955257  1
  Te  Te114  1  0.43809607  0.92049643  0.25282253  1
  Te  Te115  1  0.40723422  0.92107724  0.56998381  1
  Te  Te116  1  0.41779161  0.95937787  0.91669833  1
  Te  Te117  1  0.75541898  0.23678740  0.27142272  1
  Te  Te118  1  0.70636297  0.25648129  0.54667662  1
  Te  Te119  1  0.74611583  0.25668916  0.91789453  1
  Te  Te120  1  0.77685984  0.57311646  0.25229957  1
  Te  Te121  1  0.74230674  0.55620604  0.57534116  1
  Te  Te122  1  0.76168860  0.57072191  0.90938615  1
  Te  Te123  1  0.73894130  0.92231504  0.25764107  1
  Te  Te124  1  0.74687023  0.92790469  0.61035358  1
  Te  Te125  1  0.76252858  0.92430798  0.88304237  1
  Te  Te126  1  0.19641449  0.23482139  0.09254196  1
  Te  Te127  1  0.28165395  0.25611848  0.40838349  1
  Te  Te128  1  0.27441735  0.24897504  0.73412958  1
  Te  Te129  1  0.27636660  0.57093529  0.10233340  1
  Te  Te130  1  0.25678412  0.57358547  0.41491128  1
  Te  Te131  1  0.26996254  0.56571575  0.73380350  1
  Te  Te132  1  0.25075459  0.92687026  0.07460194  1
  Te  Te133  1  0.23345198  0.92112072  0.39343166  1
  Te  Te134  1  0.26697933  0.96140151  0.71662893  1
  Te  Te135  1  0.59566299  0.24756491  0.08824569  1
  Te  Te136  1  0.53468233  0.27481624  0.41164650  1
  Te  Te137  1  0.52258033  0.22524420  0.74042042  1
  Te  Te138  1  0.58944277  0.56817538  0.08282094  1
  Te  Te139  1  0.57072093  0.55041703  0.40660896  1
  Te  Te140  1  0.58529854  0.59698363  0.74134519  1
  Te  Te141  1  0.59630367  0.91322625  0.09551700  1
  Te  Te142  1  0.58298212  0.92802724  0.43585551  1
  Te  Te143  1  0.56219163  0.93915465  0.75111394  1
  Te  Te144  1  0.93742293  0.24389269  0.09634692  1
  Te  Te145  1  0.91015136  0.26777647  0.43669653  1
  Te  Te146  1  0.90844352  0.26110611  0.75089732  1
  Te  Te147  1  0.91997885  0.54831347  0.16747058  1
  Te  Te148  1  0.91066335  0.56522264  0.43418957  1
  Te  Te149  1  0.90444071  0.56419845  0.74664557  1
  Te  Te150  1  0.91659950  0.91706832  0.07811136  1
  Te  Te151  1  0.90369710  0.92579231  0.41159999  1
  Te  Te152  1  0.90920413  0.87317322  0.72225352  1
  Te  Te153  1  0.28780057  0.07817705  0.25360403  1
  Te  Te154  1  0.26597913  0.11356632  0.56779520  1
  Te  Te155  1  0.19973658  0.08090385  0.88797156  1
  Te  Te156  1  0.19143184  0.39096078  0.22161978  1
  Te  Te157  1  0.27073111  0.38936611  0.57808904  1
  Te  Te158  1  0.25933383  0.43108555  0.90883583  1
  Te  Te159  1  0.26519826  0.74948742  0.24824781  1
  Te  Te160  1  0.23436280  0.74337260  0.60426900  1
  Te  Te161  1  0.25004928  0.76945016  0.91494988  1
  Te  Te162  1  0.54410611  0.11355897  0.25493462  1
  Te  Te163  1  0.54436348  0.09455903  0.57185504  1
  Te  Te164  1  0.58924728  0.08980735  0.91873555  1
  Te  Te165  1  0.61558344  0.38926174  0.26809445  1
  Te  Te166  1  0.55745349  0.44986446  0.55431730  1
  Te  Te167  1  0.55687339  0.40080265  0.89180896  1
  Te  Te168  1  0.59121957  0.71424411  0.26568466  1
  Te  Te169  1  0.58857196  0.74247399  0.57849739  1
  Te  Te170  1  0.58661400  0.77786532  0.92852192  1
  Te  Te171  1  0.94807681  0.09437427  0.25077291  1
  Te  Te172  1  0.91413422  0.10709850  0.58848902  1
  Te  Te173  1  0.92394440  0.06735810  0.90453563  1
  Te  Te174  1  0.91206126  0.41156610  0.26099618  1
  Te  Te175  1  0.94047496  0.35915910  0.56056060  1
  Te  Te176  1  0.93888266  0.41027739  0.92840150  1
  Te  Te177  1  0.89545607  0.75967500  0.26653134  1
  Te  Te178  1  0.90790412  0.76078748  0.61317198  1
  Te  Te179  1  0.92869179  0.74566028  0.93330819  1
