# generated using pymatgen
data_In2Te3
_symmetry_space_group_name_H-M   'P 1'
_cell_length_a   18.95926653
_cell_length_b   18.99676361
_cell_length_c   18.97917745
_cell_angle_alpha   89.84295940
_cell_angle_beta   89.74541714
_cell_angle_gamma   90.15406803
_symmetry_Int_Tables_number   1
_chemical_formula_structural   In2Te3
_chemical_formula_sum   'In72 Te108'
_cell_volume   6835.51174719
_cell_formula_units_Z   36
loop_
 _symmetry_equiv_pos_site_id
 _symmetry_equiv_pos_as_xyz
  1  'x, y, z'
loop_
 _atom_site_type_symbol
 _atom_site_label
 _atom_site_symmetry_multiplicity
 _atom_site_fract_x
 _atom_site_fract_y
 _atom_site_fract_z
 _atom_site_occupancy
  In  In0  1  -0.03156902  0.50569410  0.17440808  1
  In  In1  1  0.67304598  0.50379589  0.83296224  1
  In  In2  1  0.15334472  -0.00254590  0.81677478  1
  In  In3  1  0.84227852  0.15844601  0.33581679  1
  In  In4  1  0.32632238  0.02513248  0.67704312  1
  In  In5  1  0.14913062  -0.01806282  0.45799445  1
  In  In6  1  0.35496562  0.31505430  0.00098585  1
  In  In7  1  -0.00897688  0.31670814  0.32581645  1
  In  In8  1  -0.01882545  0.00511931  0.01469122  1
  In  In9  1  0.34325227  0.16780458  0.85185615  1
  In  In10  1  0.01538663  0.66287251  0.67136801  1
  In  In11  1  0.17112995  0.67103706  0.49520975  1
  In  In12  1  0.34532548  0.65927356  0.32822516  1
  In  In13  1  0.14789916  0.67198722  0.16473482  1
  In  In14  1  0.32385227  0.50988456  0.17941634  1
  In  In15  1  0.15293811  0.14242043  -0.00071681  1
  In  In16  1  0.01070448  0.16769804  0.15869686  1
  In  In17  1  0.68263291  0.50156175  0.16942542  1
  In  In18  1  0.33235670  0.50368157  0.81860327  1
  In  In19  1  0.18826177  0.33926667  0.15505008  1
  In  In20  1  0.83292250  0.33836605  0.17337151  1
  In  In21  1  0.35322459  0.48679523  0.48734403  1
  In  In22  1  0.18318462  0.33723102  0.49296058  1
  In  In23  1  0.34435918  0.00308438  0.34504173  1
  In  In24  1  0.34821000  0.69916702  0.03398462  1
  In  In25  1  0.16623958  0.63816740  0.86383431  1
  In  In26  1  0.50385087  0.69455587  0.87066243  1
  In  In27  1  0.65174927  0.65489373  0.67081097  1
  In  In28  1  -0.03308843  0.37552860  -0.04185119  1
  In  In29  1  0.14268726  0.49553443  -0.01059009  1
  In  In30  1  0.48851374  0.16088162  0.67677500  1
  In  In31  1  0.18158894  0.31950255  0.81776273  1
  In  In32  1  0.36881197  0.83890817  0.16868005  1
  In  In33  1  0.02117763  0.16603816  0.82453110  1
  In  In34  1  0.76967010  0.37377531  0.51631671  1
  In  In35  1  0.36532573  0.31810886  0.32741243  1
  In  In36  1  0.52974416  0.62918794  0.48624250  1
  In  In37  1  -0.01936569  0.83095478  0.84438834  1
  In  In38  1  0.80605243  0.80989140  0.33182859  1
  In  In39  1  0.50251540  0.49947545  0.00358543  1
  In  In40  1  0.33131636  0.84791972  0.50993449  1
  In  In41  1  0.83236211  0.68291017  0.81501423  1
  In  In42  1  0.66389034  -0.00881393  0.67448610  1
  In  In43  1  0.83769217  0.18810937  0.65261431  1
  In  In44  1  0.81258107  0.16756566  0.01542660  1
  In  In45  1  -0.01518823  0.65668695  0.32367755  1
  In  In46  1  0.80800226  -0.01167342  0.85528521  1
  In  In47  1  0.01434820  0.35465291  0.67285052  1
  In  In48  1  0.19107123  0.84805866  0.02601883  1
  In  In49  1  0.52935873  0.47191099  0.65248092  1
  In  In50  1  0.82201571  0.00948535  0.48944585  1
  In  In51  1  0.82246688  0.68181944  0.16135066  1
  In  In52  1  0.00820218  0.18510376  0.49120762  1
  In  In53  1  0.15734397  0.85086348  0.64097796  1
  In  In54  1  0.34142604  0.32919101  0.66750343  1
  In  In55  1  0.64544427  0.15656160  0.84287823  1
  In  In56  1  0.66856634  0.70483171  0.00318757  1
  In  In57  1  0.66102676  0.31679272  0.02402352  1
  In  In58  1  0.51237039  0.83736880  0.68242956  1
  In  In59  1  0.34177618  0.16558104  0.51729020  1
  In  In60  1  0.67322666  0.32794082  0.31875932  1
  In  In61  1  0.82576621  -0.03696114  0.18225904  1
  In  In62  1  0.40777240  0.10928419  0.18593830  1
  In  In63  1  0.68150119  0.16933509  0.47858014  1
  In  In64  1  0.83840881  0.84698936  0.67269942  1
  In  In65  1  0.51862318  -0.00960961  0.47439812  1
  In  In66  1  0.48742368  0.81987649  0.34843484  1
  In  In67  1  0.82422213  0.52876395  0.67077883  1
  In  In68  1  -0.01803537  0.51158915  0.48054658  1
  In  In69  1  0.36350615  0.85193573  0.86227518  1
  In  In70  1  0.59216234  0.08922632  0.10018667  1
  In  In71  1  -0.01983960  0.81612346  0.47093518  1
  Te  Te72  1  0.09414640  0.05226694  0.10606236  1
  Te  Te73  1  0.06227332  0.09091016  0.38848755  1
  Te  Te74  1  0.08586305  0.08489924  0.72251292  1
  Te  Te75  1  0.06914999  0.41308813  0.09470425  1
  Te  Te76  1  0.07418388  0.40843822  0.41529827  1
  Te  Te77  1  0.09534580  0.42713891  0.77030446  1
  Te  Te78  1  0.07987184  0.76967758  0.08090258  1
  Te  Te79  1  0.08985418  0.74615148  0.39364562  1
  Te  Te80  1  0.08604478  0.76928497  0.75223197  1
  Te  Te81  1  0.42556543  0.06287815  0.04377819  1
  Te  Te82  1  0.43589629  0.10201520  0.41659451  1
  Te  Te83  1  0.43049663  0.06348964  0.77873310  1
  Te  Te84  1  0.41335649  0.41770910  0.09463475  1
  Te  Te85  1  0.44556691  0.41947054  0.39756487  1
  Te  Te86  1  0.43263031  0.40970676  0.75654509  1
  Te  Te87  1  0.46893652  0.74993223  0.10119872  1
  Te  Te88  1  0.41035261  0.72840513  0.45108761  1
  Te  Te89  1  0.41458495  0.75007491  0.76017065  1
  Te  Te90  1  0.74778238  0.05883159  0.09193027  1
  Te  Te91  1  0.73053463  0.06415839  0.38181895  1
  Te  Te92  1  0.75803664  0.09026172  0.74459789  1
  Te  Te93  1  0.76435302  0.41956842  0.06736712  1
  Te  Te94  1  0.70742084  0.44715474  0.40489833  1
  Te  Te95  1  0.76123095  0.41698447  0.74919142  1
  Te  Te96  1  0.71283244  0.77729247  0.12432634  1
  Te  Te97  1  0.76908657  0.71625762  0.44042437  1
  Te  Te98  1  0.73027880  0.76507415  0.74125131  1
  Te  Te99  1  0.10151454  0.24894671  0.24783046  1
  Te  Te100  1  0.09725359  0.25710699  0.59030557  1
  Te  Te101  1  0.08690714  0.25906907  0.92765134  1
  Te  Te102  1  0.08402962  0.56623990  0.25288295  1
  Te  Te103  1  0.08551415  0.57160998  0.57379884  1
  Te  Te104  1  0.04764567  0.59565946  0.93826304  1
  Te  Te105  1  0.11069630  0.96177780  0.31787940  1
  Te  Te106  1  0.05110489  0.91676202  0.56144204  1
  Te  Te107  1  0.07918402  0.91870919  0.92321449  1
  Te  Te108  1  0.44065793  0.25483137  0.21442027  1
  Te  Te109  1  0.44071200  0.26601921  0.57314974  1
  Te  Te110  1  0.44946408  0.24917517  0.91105422  1
  Te  Te111  1  0.43677018  0.57959966  0.24428287  1
  Te  Te112  1  0.43116300  0.56793054  0.59045330  1
  Te  Te113  1  0.40177981  0.58889856  0.92958698  1
  Te  Te114  1  0.45741256  0.93381803  0.25182132  1
  Te  Te115  1  0.42459709  0.93484857  0.59157266  1
  Te  Te116  1  0.41527410  0.91932318  0.98298349  1
  Te  Te117  1  0.75346890  0.22652060  0.23378734  1
  Te  Te118  1  0.71589337  0.25652473  0.59835976  1
  Te  Te119  1  0.74316998  0.25120630  0.91235071  1
  Te  Te120  1  0.74717988  0.59871671  0.26052323  1
  Te  Te121  1  0.74843869  0.60543028  0.56869681  1
  Te  Te122  1  0.74589044  0.60576799  0.91482555  1
  Te  Te123  1  0.71237812  0.88915260  0.24677122  1
  Te  Te124  1  0.74258868  0.91028439  0.57318497  1
  Te  Te125  1  0.75973258  0.87431039  0.93217485  1
  Te  Te126  1  0.25459038  0.22891227  0.07563397  1
  Te  Te127  1  0.26031676  0.23794353  0.41205550  1
  Te  Te128  1  0.26004957  0.22035567  0.73526205  1
  Te  Te129  1  0.23995628  0.58163733  0.07381356  1
  Te  Te130  1  0.25084946  0.57354111  0.41179293  1
  Te  Te131  1  0.23378115  0.58273853  0.74687678  1
  Te  Te132  1  0.26404279  0.93171491  0.12017065  1
  Te  Te133  1  0.25728918  0.88502133  0.38619057  1
  Te  Te134  1  0.26152773  0.90698905  0.74825320  1
  Te  Te135  1  0.56746614  0.24095263  0.11022896  1
  Te  Te136  1  0.58433827  0.24760903  0.40579620  1
  Te  Te137  1  0.57413321  0.25007551  0.75508913  1
  Te  Te138  1  0.59766836  0.58850697  0.07573019  1
  Te  Te139  1  0.61683160  0.64869597  0.36335899  1
  Te  Te140  1  0.55900921  0.58579359  0.77032684  1
  Te  Te141  1  0.54991996  0.94946038  0.05537090  1
  Te  Te142  1  0.59994685  0.88384852  0.41919734  1
  Te  Te143  1  0.58192919  0.92475365  0.77805368  1
  Te  Te144  1  0.92144014  0.25725289  0.07341073  1
  Te  Te145  1  0.88985492  0.26316671  0.43356813  1
  Te  Te146  1  0.92490550  0.25988119  0.75258551  1
  Te  Te147  1  0.90335366  0.59071852  0.07654449  1
  Te  Te148  1  0.88333561  0.60806940  0.42300362  1
  Te  Te149  1  0.93226748  0.57846088  0.76552718  1
  Te  Te150  1  0.91342149  0.89641521  0.08470686  1
  Te  Te151  1  0.89855979  0.91840218  0.39627185  1
  Te  Te152  1  0.91802186  0.94072684  0.76005115  1
  Te  Te153  1  0.27483600  0.08645624  0.24840064  1
  Te  Te154  1  0.24173989  0.05879840  0.55786832  1
  Te  Te155  1  0.24898620  0.06369945  0.91401794  1
  Te  Te156  1  0.25425669  0.41066526  0.26985774  1
  Te  Te157  1  0.25511263  0.42572972  0.59123470  1
  Te  Te158  1  0.25734649  0.40996446  0.92301631  1
  Te  Te159  1  0.26250145  0.74297236  0.23379936  1
  Te  Te160  1  0.25647811  0.74549576  0.59580499  1
  Te  Te161  1  0.25229175  0.75210190  0.91799826  1
  Te  Te162  1  0.54252739  0.07330670  0.24338762  1
  Te  Te163  1  0.58746496  0.08305442  0.58141054  1
  Te  Te164  1  0.60539432  0.05945924  0.94677167  1
  Te  Te165  1  0.58826075  0.40362911  0.22481747  1
  Te  Te166  1  0.63567230  0.44518657  0.55300018  1
  Te  Te167  1  0.59203165  0.41088320  0.92167961  1
  Te  Te168  1  0.54401553  0.72005315  0.25191937  1
  Te  Te169  1  0.57352594  0.74704255  0.57869726  1
  Te  Te170  1  0.60020109  0.79952259  0.90991364  1
  Te  Te171  1  0.91834194  0.07592736  0.23585740  1
  Te  Te172  1  0.91899374  0.08883111  0.57394999  1
  Te  Te173  1  0.91414725  0.09688623  0.91322236  1
  Te  Te174  1  0.89431603  0.42506803  0.28050687  1
  Te  Te175  1  0.90585401  0.42262376  0.58123481  1
  Te  Te176  1  0.86674897  0.42383225  0.86672627  1
  Te  Te177  1  0.92264548  0.76534059  0.24276202  1
  Te  Te178  1  0.91788716  0.74594785  0.59220660  1
  Te  Te179  1  0.87521127  0.77022051  0.93220740  1
