# generated using pymatgen
data_In2Te3
_symmetry_space_group_name_H-M   'P 1'
_cell_length_a   18.76445548
_cell_length_b   18.78040843
_cell_length_c   18.77050213
_cell_angle_alpha   90.01233692
_cell_angle_beta   90.06952765
_cell_angle_gamma   89.99759355
_symmetry_Int_Tables_number   1
_chemical_formula_structural   In2Te3
_chemical_formula_sum   'In72 Te108'
_cell_volume   6614.79759231
_cell_formula_units_Z   36
loop_
 _symmetry_equiv_pos_site_id
 _symmetry_equiv_pos_as_xyz
  1  'x, y, z'
loop_
 _atom_site_type_symbol
 _atom_site_label
 _atom_site_symmetry_multiplicity
 _atom_site_fract_x
 _atom_site_fract_y
 _atom_site_fract_z
 _atom_site_occupancy
  In  In0  1  0.48820335  0.35558666  0.16559493  1
  In  In1  1  0.45176888  -0.04968105  0.19322147  1
  In  In2  1  0.48819626  0.50733860  0.66731893  1
  In  In3  1  0.50335841  0.33530839  0.83041997  1
  In  In4  1  0.01757670  0.82263982  0.18617234  1
  In  In5  1  0.66875785  0.35583051  -0.00464085  1
  In  In6  1  0.84139431  -0.00650112  0.48714207  1
  In  In7  1  0.01570841  0.82780137  0.83348838  1
  In  In8  1  0.64237081  0.85099108  0.17937476  1
  In  In9  1  0.64309646  -0.01346178  0.02514437  1
  In  In10  1  0.05377220  0.16158429  0.16258211  1
  In  In11  1  0.49581872  0.15464326  -0.01912556  1
  In  In12  1  0.50908846  0.16297579  0.34054242  1
  In  In13  1  0.85207726  0.15811592  0.36836152  1
  In  In14  1  0.18041690  0.82681293  0.01900643  1
  In  In15  1  0.30686203  0.69507069  0.63049494  1
  In  In16  1  0.65800934  0.34242516  0.32657335  1
  In  In17  1  0.66976765  0.16109986  0.16404389  1
  In  In18  1  0.18568268  0.50406889  0.64296084  1
  In  In19  1  -0.01497581  0.49452109  0.83194010  1
  In  In20  1  0.79230650  0.68374935  0.82888336  1
  In  In21  1  0.50190152  0.74189119  0.49135104  1
  In  In22  1  0.33060682  0.52740345  0.17489827  1
  In  In23  1  0.18682348  0.69285660  0.85284557  1
  In  In24  1  0.64566157  0.66329638  -0.00084747  1
  In  In25  1  0.33515196  -0.01340117  0.01534559  1
  In  In26  1  0.65153344  0.85053031  0.82677261  1
  In  In27  1  0.66732686  0.31012363  0.66375970  1
  In  In28  1  0.66741817  0.51212785  0.47685833  1
  In  In29  1  0.64901247  0.51535020  0.15417770  1
  In  In30  1  0.47795180  0.34104517  0.49633737  1
  In  In31  1  0.33707006  0.50060659  0.84127654  1
  In  In32  1  0.03722406  0.66306826  0.32670056  1
  In  In33  1  0.31068555  0.52054744  0.46832628  1
  In  In34  1  0.46875379  0.67099903  0.81649171  1
  In  In35  1  0.32130120  0.34769746  0.31096335  1
  In  In36  1  0.47991851  -0.01275989  0.83799654  1
  In  In37  1  0.49847259  -0.01051774  0.50190330  1
  In  In38  1  0.84861126  0.19628015  -0.02633664  1
  In  In39  1  0.03005686  0.16830333  0.84447864  1
  In  In40  1  0.17250308  0.51146051  0.02203416  1
  In  In41  1  -0.00956093  0.18457939  0.50182820  1
  In  In42  1  0.84336590  0.83452455  0.03146981  1
  In  In43  1  0.00208603  -0.01440375  0.33181165  1
  In  In44  1  0.33133540  -0.02098816  0.65696836  1
  In  In45  1  0.18999850  0.81761241  0.32996643  1
  In  In46  1  0.82983738  0.83517621  0.65898463  1
  In  In47  1  0.65396446  0.00038723  0.66013248  1
  In  In48  1  0.85534834  0.66357348  0.17003173  1
  In  In49  1  0.86512314  0.35165093  0.20211218  1
  In  In50  1  0.34707342  0.16629335  0.49604209  1
  In  In51  1  0.84283678  0.00817577  0.83809837  1
  In  In52  1  0.15149753  0.17000147  0.67012780  1
  In  In53  1  0.34147521  0.15878053  0.83466388  1
  In  In54  1  0.29287618  0.17045943  0.14317079  1
  In  In55  1  0.84473399  0.49263388  0.64675268  1
  In  In56  1  0.15319097  0.31629075  0.83773440  1
  In  In57  1  0.64757931  0.68037174  0.34476397  1
  In  In58  1  0.01136386  0.34119893  -0.00541676  1
  In  In59  1  0.84535451  0.49526846  0.32827519  1
  In  In60  1  0.00686696  0.67273151  0.02190179  1
  In  In61  1  0.82478180  0.67048125  0.49069655  1
  In  In62  1  0.83805762  -0.01013107  0.16478198  1
  In  In63  1  -0.01584603  0.33343170  0.64729846  1
  In  In64  1  0.65501753  -0.01715662  0.34984333  1
  In  In65  1  0.83976444  0.32440167  0.83656815  1
  In  In66  1  0.19213827  -0.00841758  0.82642568  1
  In  In67  1  0.18842833  0.17084506  0.32821026  1
  In  In68  1  0.66281165  0.50941590  0.84803081  1
  In  In69  1  0.15941601  -0.02878252  0.48947610  1
  In  In70  1  0.02244115  0.64427341  0.64647316  1
  In  In71  1  0.82328739  0.14510463  0.63068961  1
  Te  Te72  1  0.07574709  0.05980736  0.06378745  1
  Te  Te73  1  0.08231126  0.09147798  0.41449756  1
  Te  Te74  1  0.08023416  0.05958295  0.74673443  1
  Te  Te75  1  0.08166029  0.42111348  0.09791486  1
  Te  Te76  1  0.05476822  0.37839242  0.37247041  1
  Te  Te77  1  0.08299668  0.41757243  0.74334394  1
  Te  Te78  1  0.11311920  0.72590832  0.11617315  1
  Te  Te79  1  0.09004046  0.76168965  0.42867894  1
  Te  Te80  1  0.09927019  0.74523000  0.73599439  1
  Te  Te81  1  0.42498375  0.08578701  0.09580646  1
  Te  Te82  1  0.40654879  0.06779678  0.39723651  1
  Te  Te83  1  0.42123944  0.08069215  0.73182224  1
  Te  Te84  1  0.38922854  0.42459495  0.08342145  1
  Te  Te85  1  0.41635048  0.43476167  0.39384701  1
  Te  Te86  1  0.40119979  0.40609147  0.73927123  1
  Te  Te87  1  0.43728112  0.70625658  0.14166475  1
  Te  Te88  1  0.37834717  0.74061045  0.40411191  1
  Te  Te89  1  0.39321142  0.76796082  0.73009004  1
  Te  Te90  1  0.76158376  0.08418363  0.06804266  1
  Te  Te91  1  0.73235887  0.08803035  0.43052481  1
  Te  Te92  1  0.74753934  0.08748914  0.74894021  1
  Te  Te93  1  0.75353672  0.41248452  0.10864004  1
  Te  Te94  1  0.76195285  0.40661840  0.42074651  1
  Te  Te95  1  0.74894190  0.42306023  0.75463936  1
  Te  Te96  1  0.73549666  0.74803270  0.09772204  1
  Te  Te97  1  0.73655224  0.76840771  0.42349508  1
  Te  Te98  1  0.70972702  0.75343717  0.71381479  1
  Te  Te99  1  0.08568079  0.26489544  0.26645520  1
  Te  Te100  1  0.09971104  0.27113030  0.56857052  1
  Te  Te101  1  0.11558218  0.22729730  0.96331399  1
  Te  Te102  1  0.13977997  0.57868732  0.25687635  1
  Te  Te103  1  0.09888310  0.57052590  0.53991625  1
  Te  Te104  1  0.08114895  0.58843943  0.90630857  1
  Te  Te105  1  0.11210938  0.92481520  0.24735261  1
  Te  Te106  1  0.11554350  0.88309479  0.59826989  1
  Te  Te107  1  0.09832210  0.91659376  0.92514264  1
  Te  Te108  1  0.41651183  0.24251393  0.24684280  1
  Te  Te109  1  0.42527644  0.24398755  0.59397772  1
  Te  Te110  1  0.40386829  0.26324549  0.92838663  1
  Te  Te111  1  0.41065117  0.61796056  0.26705179  1
  Te  Te112  1  0.40395601  0.59176672  0.57257797  1
  Te  Te113  1  0.41009262  0.59432219  0.92868843  1
  Te  Te114  1  0.40169157  0.86233328  0.30658670  1
  Te  Te115  1  0.40885836  0.88857245  0.56699007  1
  Te  Te116  1  0.40188190  0.89209892  0.92013836  1
  Te  Te117  1  0.75600306  0.24444419  0.25795129  1
  Te  Te118  1  0.77732162  0.27171751  0.57270511  1
  Te  Te119  1  0.72277162  0.24763544  0.90185045  1
  Te  Te120  1  0.74299526  0.58850614  0.25858516  1
  Te  Te121  1  0.74023526  0.58665241  0.58845782  1
  Te  Te122  1  0.76151505  0.58122051  0.94071213  1
  Te  Te123  1  0.75954798  0.90629219  0.26375733  1
  Te  Te124  1  0.73690557  0.91267871  0.56599321  1
  Te  Te125  1  0.75708198  0.91031512  0.92325876  1
  Te  Te126  1  0.21173491  0.27238754  0.07953702  1
  Te  Te127  1  0.25601840  0.26777954  0.42482325  1
  Te  Te128  1  0.25645336  0.25139874  0.74544397  1
  Te  Te129  1  0.26288780  0.61624216  0.07285872  1
  Te  Te130  1  0.19785627  0.59441328  0.40113425  1
  Te  Te131  1  0.25346721  0.59398817  0.74790775  1
  Te  Te132  1  0.26818644  0.90012746  0.11570392  1
  Te  Te133  1  0.27380407  0.91609051  0.41071626  1
  Te  Te134  1  0.27340166  0.88581595  0.75977518  1
  Te  Te135  1  0.58149464  0.25349965  0.08020231  1
  Te  Te136  1  0.58958567  0.25454279  0.43126745  1
  Te  Te137  1  0.57482851  0.23511429  0.74907463  1
  Te  Te138  1  0.54229718  0.58761625  0.07815642  1
  Te  Te139  1  0.55380172  0.59957607  0.43240819  1
  Te  Te140  1  0.58409462  0.59375452  0.74838981  1
  Te  Te141  1  0.53757692  0.89159851  0.07439349  1
  Te  Te142  1  0.56345081  0.88363050  0.41376345  1
  Te  Te143  1  0.55262377  0.90742180  0.72692230  1
  Te  Te144  1  0.92231719  0.25205869  0.09494386  1
  Te  Te145  1  0.93166551  0.28230060  0.40069012  1
  Te  Te146  1  0.92429928  0.23207960  0.74802578  1
  Te  Te147  1  0.93767106  0.56616695  0.09812103  1
  Te  Te148  1  0.92912106  0.59069215  0.41325959  1
  Te  Te149  1  0.90678816  0.59942735  0.75020886  1
  Te  Te150  1  0.95373713  0.92372934  0.08656586  1
  Te  Te151  1  0.93351042  0.89594587  0.42601787  1
  Te  Te152  1  0.92494593  0.91730449  0.74655251  1
  Te  Te153  1  0.25557849  0.07008877  0.24330111  1
  Te  Te154  1  0.23934419  0.08106607  0.57972195  1
  Te  Te155  1  0.25176845  0.08428360  0.93226182  1
  Te  Te156  1  0.22425249  0.44169701  0.24599088  1
  Te  Te157  1  0.26698928  0.41213012  0.56167460  1
  Te  Te158  1  0.23763835  0.41578045  0.91963408  1
  Te  Te159  1  0.30047675  0.73993958  0.25768665  1
  Te  Te160  1  0.20775779  0.77012817  0.54699764  1
  Te  Te161  1  0.28878531  0.75605244  0.94123793  1
  Te  Te162  1  0.58044692  0.06271093  0.23972214  1
  Te  Te163  1  0.58006252  0.09256697  0.57086669  1
  Te  Te164  1  0.59471866  0.06722142  0.90432548  1
  Te  Te165  1  0.56583655  0.44557741  0.26275443  1
  Te  Te166  1  0.58713544  0.42377796  0.58289360  1
  Te  Te167  1  0.55693017  0.43788043  0.93150509  1
  Te  Te168  1  0.55712621  0.73917228  0.23706371  1
  Te  Te169  1  0.60222321  0.73828423  0.59795629  1
  Te  Te170  1  0.56515162  0.75608836  0.90922096  1
  Te  Te171  1  0.92058783  0.09126344  0.24758655  1
  Te  Te172  1  0.94067223  0.06310809  0.58298389  1
  Te  Te173  1  0.93952501  0.07852944  0.93379407  1
  Te  Te174  1  0.97217314  0.44661306  0.25836902  1
  Te  Te175  1  0.94599029  0.44137550  0.55354369  1
  Te  Te176  1  0.89688544  0.42599367  0.93592416  1
  Te  Te177  1  0.91528427  0.75406093  0.27415885  1
  Te  Te178  1  0.92602267  0.74605419  0.58099518  1
  Te  Te179  1  0.91230881  0.74942730  0.91806900  1
