# generated using pymatgen
data_In2Te3
_symmetry_space_group_name_H-M   'P 1'
_cell_length_a   19.01840045
_cell_length_b   18.98715598
_cell_length_c   18.98599891
_cell_angle_alpha   90.00245843
_cell_angle_beta   90.41529278
_cell_angle_gamma   89.68331043
_symmetry_Int_Tables_number   1
_chemical_formula_structural   In2Te3
_chemical_formula_sum   'In72 Te108'
_cell_volume   6855.66069517
_cell_formula_units_Z   36
loop_
 _symmetry_equiv_pos_site_id
 _symmetry_equiv_pos_as_xyz
  1  'x, y, z'
loop_
 _atom_site_type_symbol
 _atom_site_label
 _atom_site_symmetry_multiplicity
 _atom_site_fract_x
 _atom_site_fract_y
 _atom_site_fract_z
 _atom_site_occupancy
  In  In0  1  0.84878157  0.45878041  0.63649512  1
  In  In1  1  0.18002970  0.31602689  0.17139341  1
  In  In2  1  0.82845113  0.47964332  0.34636384  1
  In  In3  1  0.15972841  0.67743239  0.17253940  1
  In  In4  1  -0.01199449  0.18085100  0.50716516  1
  In  In5  1  0.71365383  0.66757271  0.65209503  1
  In  In6  1  0.64912062  0.32838741  -0.02204833  1
  In  In7  1  0.31533371  0.49655368  0.15332698  1
  In  In8  1  0.18756315  0.08448244  -0.00366038  1
  In  In9  1  0.14819821  0.84964444  0.34304636  1
  In  In10  1  0.16902265  0.01047077  0.49764369  1
  In  In11  1  0.66179923  0.83903287  0.17507542  1
  In  In12  1  0.49529581  0.61859018  0.49377601  1
  In  In13  1  0.83343279  0.32156750  0.85648712  1
  In  In14  1  0.48880104  0.48509579  0.67660358  1
  In  In15  1  0.01950737  0.33729752  0.64287817  1
  In  In16  1  0.84974042  -0.01093118  0.17788627  1
  In  In17  1  0.36083256  0.32060986  0.34563604  1
  In  In18  1  0.63629021  0.47672045  0.82796659  1
  In  In19  1  0.85255584  0.64743231  0.84480065  1
  In  In20  1  0.48284853  0.86917496  0.28618706  1
  In  In21  1  0.30542787  0.85788629  0.81074976  1
  In  In22  1  0.70136403  0.84928732  0.49552615  1
  In  In23  1  0.63679684  0.84210268  0.82863052  1
  In  In24  1  0.67465241  0.16940932  0.16553599  1
  In  In25  1  0.17163101  0.32072973  0.81087633  1
  In  In26  1  0.32774650  0.46310934  0.58810778  1
  In  In27  1  0.65841677  0.00325956  -0.01318140  1
  In  In28  1  0.68102611  0.30835994  0.66658293  1
  In  In29  1  0.49876227  0.00248834  0.50908818  1
  In  In30  1  0.02755713  0.66863990  -0.02016615  1
  In  In31  1  0.87056129  0.82337957  0.34814786  1
  In  In32  1  0.50342082  0.16596864  0.33380213  1
  In  In33  1  0.83444909  0.49558283  0.02871141  1
  In  In34  1  0.31220876  0.67571200  0.33666593  1
  In  In35  1  0.49728715  0.66681018  0.14508169  1
  In  In36  1  0.16946035  0.14021862  0.30947659  1
  In  In37  1  -0.00775330  0.85425910  0.17276259  1
  In  In38  1  0.02688756  0.71100705  0.67561282  1
  In  In39  1  0.47683775  0.01114931  0.81378910  1
  In  In40  1  0.00496988  0.32302512  0.03469520  1
  In  In41  1  0.67199149  0.64624042  0.04003493  1
  In  In42  1  0.14269128  0.51062955  -0.02576816  1
  In  In43  1  -0.00043867  0.16793371  0.83901398  1
  In  In44  1  0.00203501  0.14515223  0.16805517  1
  In  In45  1  0.00143739  0.49316483  0.81254286  1
  In  In46  1  0.81622613  0.84439480  -0.00453180  1
  In  In47  1  0.33442881  0.16741236  0.50515017  1
  In  In48  1  0.30382534  0.29432501  -0.00113255  1
  In  In49  1  0.16960036  0.48462823  0.38291046  1
  In  In50  1  0.33427843  0.81640124  0.50806777  1
  In  In51  1  0.48610925  0.32241950  0.16920938  1
  In  In52  1  0.25681854  0.64276491  0.66933035  1
  In  In53  1  0.66137737  0.01381547  0.34912247  1
  In  In54  1  0.17079012  0.69997253  0.50222398  1
  In  In55  1  0.68874325  0.05121918  0.68000248  1
  In  In56  1  0.50181627  0.16978001  0.67364866  1
  In  In57  1  -0.00397963  0.52136857  0.18584173  1
  In  In58  1  0.15460757  0.88157635  -0.02536231  1
  In  In59  1  0.34712886  0.67644978  -0.03003000  1
  In  In60  1  0.45811052  0.13344156  -0.00110669  1
  In  In61  1  0.86305786  0.83853850  0.69060387  1
  In  In62  1  0.53363072  0.34081153  0.48789569  1
  In  In63  1  0.83676291  0.31630708  0.18785344  1
  In  In64  1  0.85343161  0.64528184  0.48847909  1
  In  In65  1  0.49821666  0.48663282  0.32571948  1
  In  In66  1  0.50241635  0.82026145  0.64848034  1
  In  In67  1  0.85032547  0.00113221  0.49791611  1
  In  In68  1  0.50672398  0.66259371  0.83577463  1
  In  In69  1  0.48442772  0.83757308  0.00540496  1
  In  In70  1  0.02045642  0.01542743  0.66430698  1
  In  In71  1  0.65833535  0.49606140  0.18647697  1
  Te  Te72  1  0.05059996  0.07167075  0.05038222  1
  Te  Te73  1  0.07176050  0.09236194  0.41408446  1
  Te  Te74  1  0.09588105  0.12682826  0.73251772  1
  Te  Te75  1  0.09581062  0.43148970  0.09910262  1
  Te  Te76  1  0.10564876  0.38137883  0.46201804  1
  Te  Te77  1  0.10822487  0.43309311  0.72884647  1
  Te  Te78  1  0.09172656  0.77325400  0.07367504  1
  Te  Te79  1  0.07202751  0.74095236  0.40265922  1
  Te  Te80  1  0.05655937  0.81478196  0.77371683  1
  Te  Te81  1  0.39196400  0.03656035  0.08537751  1
  Te  Te82  1  0.41037988  0.07501465  0.40934494  1
  Te  Te83  1  0.38811364  0.09226988  0.72692874  1
  Te  Te84  1  0.39418320  0.39644522  0.07369365  1
  Te  Te85  1  0.41077259  0.42872987  0.44060121  1
  Te  Te86  1  0.36798595  0.41927610  0.72754435  1
  Te  Te87  1  0.39085753  0.76164402  0.09388901  1
  Te  Te88  1  0.42677947  0.73364628  0.42043788  1
  Te  Te89  1  0.42437773  0.76853473  0.76585253  1
  Te  Te90  1  0.75310789  0.06724481  0.08544471  1
  Te  Te91  1  0.74764614  0.08863461  0.44014733  1
  Te  Te92  1  0.76899828  0.12775437  0.77403701  1
  Te  Te93  1  0.73931211  0.39322507  0.08498313  1
  Te  Te94  1  0.77123561  0.37913317  0.44026671  1
  Te  Te95  1  0.75982421  0.42243141  0.76158740  1
  Te  Te96  1  0.76210152  0.75169609  0.10252910  1
  Te  Te97  1  0.75950119  0.74076525  0.40906596  1
  Te  Te98  1  0.75321611  0.75230636  0.77191351  1
  Te  Te99  1  0.07552589  0.25095824  0.25366346  1
  Te  Te100  1  0.10057469  0.21710752  0.60206254  1
  Te  Te101  1  0.08614320  0.26144141  0.92533859  1
  Te  Te102  1  0.10937003  0.57608165  0.27015147  1
  Te  Te103  1  0.11650989  0.60933681  0.61204748  1
  Te  Te104  1  0.10067973  0.60797022  0.85983128  1
  Te  Te105  1  0.08941521  0.94597187  0.24177661  1
  Te  Te106  1  0.07171547  0.92099301  0.56418403  1
  Te  Te107  1  0.07510603  0.94284572  0.86340950  1
  Te  Te108  1  0.39635838  0.22214061  0.23536277  1
  Te  Te109  1  0.43533713  0.25989401  0.57023930  1
  Te  Te110  1  0.38117758  0.21542851  0.90036638  1
  Te  Te111  1  0.40415102  0.58474007  0.24380640  1
  Te  Te112  1  0.40701015  0.60392429  0.61418703  1
  Te  Te113  1  0.41992612  0.56824669  0.90476911  1
  Te  Te114  1  0.39199619  0.96550011  0.22406676  1
  Te  Te115  1  0.40406477  0.92207432  0.59418973  1
  Te  Te116  1  0.40308776  0.92166873  0.90984449  1
  Te  Te117  1  0.76511964  0.21966754  0.26992054  1
  Te  Te118  1  0.79198216  0.29058450  0.56940292  1
  Te  Te119  1  0.74035576  0.22588940  0.91945296  1
  Te  Te120  1  0.76700417  0.57060919  0.24509947  1
  Te  Te121  1  0.75622754  0.55532990  0.56181263  1
  Te  Te122  1  0.74343317  0.57218297  0.92728447  1
  Te  Te123  1  0.75314405  0.91326377  0.27230816  1
  Te  Te124  1  0.75887684  0.92368090  0.61528118  1
  Te  Te125  1  0.74615242  0.92879872  0.88873378  1
  Te  Te126  1  0.23275496  0.20079534  0.09210886  1
  Te  Te127  1  0.24917930  0.23583248  0.39949444  1
  Te  Te128  1  0.26447524  0.28726319  0.69965113  1
  Te  Te129  1  0.24126539  0.59585762  0.06423711  1
  Te  Te130  1  0.26098938  0.58706878  0.44657656  1
  Te  Te131  1  0.25519940  0.60622290  0.80887681  1
  Te  Te132  1  0.24910365  0.95927766  0.05893295  1
  Te  Te133  1  0.26245603  0.91446739  0.41838452  1
  Te  Te134  1  0.21281867  0.97516971  0.79285394  1
  Te  Te135  1  0.56230264  0.23352494  0.07215220  1
  Te  Te136  1  0.60498021  0.24189793  0.40785838  1
  Te  Te137  1  0.57677721  0.26418293  0.75923383  1
  Te  Te138  1  0.56392493  0.54707191  0.07871115  1
  Te  Te139  1  0.59472248  0.56354127  0.40418650  1
  Te  Te140  1  0.60383308  0.59711920  0.73899578  1
  Te  Te141  1  0.57511895  0.92642669  0.08679817  1
  Te  Te142  1  0.57383490  0.90434336  0.41986481  1
  Te  Te143  1  0.58117052  0.93581884  0.72243073  1
  Te  Te144  1  0.89986514  0.23050046  0.07998861  1
  Te  Te145  1  0.89446921  0.28116154  0.44811403  1
  Te  Te146  1  0.92936809  0.27613826  0.75219453  1
  Te  Te147  1  0.92877157  0.60347670  0.07704907  1
  Te  Te148  1  0.93919924  0.55589531  0.41065542  1
  Te  Te149  1  0.91314553  0.58096652  0.72434619  1
  Te  Te150  1  0.92432081  0.93088108  0.05697448  1
  Te  Te151  1  0.94822626  0.91509094  0.43226275  1
  Te  Te152  1  0.93391540  0.94391786  0.76701726  1
  Te  Te153  1  0.22236309  0.02562949  0.23503400  1
  Te  Te154  1  0.25857260  0.07868031  0.59347452  1
  Te  Te155  1  0.26821545  0.09381951  0.87197160  1
  Te  Te156  1  0.25858528  0.41468299  0.26784840  1
  Te  Te157  1  0.22281996  0.35833849  0.56657821  1
  Te  Te158  1  0.23875907  0.41060658  0.91962817  1
  Te  Te159  1  0.24716450  0.77586189  0.24582422  1
  Te  Te160  1  0.23577723  0.78346054  0.61712273  1
  Te  Te161  1  0.24027418  0.76933760  0.91380407  1
  Te  Te162  1  0.57974612  0.07578022  0.23758925  1
  Te  Te163  1  0.59378658  0.10198069  0.57253142  1
  Te  Te164  1  0.57070943  0.09152127  0.90082275  1
  Te  Te165  1  0.59038900  0.38415947  0.26069813  1
  Te  Te166  1  0.60013168  0.42158286  0.59758210  1
  Te  Te167  1  0.54253616  0.38618131  0.89289598  1
  Te  Te168  1  0.57285146  0.74415332  0.24984280  1
  Te  Te169  1  0.61092159  0.74723736  0.57106667  1
  Te  Te170  1  0.59416584  0.74407610  0.94318946  1
  Te  Te171  1  0.90933757  0.08821703  0.26665373  1
  Te  Te172  1  0.90602280  0.09587569  0.60186335  1
  Te  Te173  1  0.87645900  0.10447772  0.88397148  1
  Te  Te174  1  0.93593877  0.40496224  0.25904637  1
  Te  Te175  1  0.96804846  0.44372939  0.55004533  1
  Te  Te176  1  0.93083934  0.42636460  0.93356535  1
  Te  Te177  1  0.93934585  0.74187202  0.24857591  1
  Te  Te178  1  0.91793596  0.75267769  0.58004924  1
  Te  Te179  1  0.92032169  0.75950381  0.91791381  1
