# generated using pymatgen
data_In2Te3
_symmetry_space_group_name_H-M   'P 1'
_cell_length_a   18.92108224
_cell_length_b   18.94332569
_cell_length_c   18.94518454
_cell_angle_alpha   89.87305749
_cell_angle_beta   89.86997082
_cell_angle_gamma   90.07502552
_symmetry_Int_Tables_number   1
_chemical_formula_structural   In2Te3
_chemical_formula_sum   'In72 Te108'
_cell_volume   6790.44881457
_cell_formula_units_Z   36
loop_
 _symmetry_equiv_pos_site_id
 _symmetry_equiv_pos_as_xyz
  1  'x, y, z'
loop_
 _atom_site_type_symbol
 _atom_site_label
 _atom_site_symmetry_multiplicity
 _atom_site_fract_x
 _atom_site_fract_y
 _atom_site_fract_z
 _atom_site_occupancy
  In  In0  1  0.03518227  0.85782749  0.18540299  1
  In  In1  1  0.50058314  0.16182032  0.33796709  1
  In  In2  1  0.64236094  0.34592195  0.69227864  1
  In  In3  1  0.00858335  0.82857407  0.49884901  1
  In  In4  1  0.48435553  -0.02062047  0.44439807  1
  In  In5  1  0.51317199  0.36406101  0.52483060  1
  In  In6  1  0.83818272  0.14528712  0.33878423  1
  In  In7  1  0.34659718  0.66609419  0.33743627  1
  In  In8  1  0.66822403  0.50764779  0.51408096  1
  In  In9  1  0.16454251  0.00870592  0.81410882  1
  In  In10  1  0.01419240  0.47521476  0.17069973  1
  In  In11  1  0.01553498  0.31194460  0.68448943  1
  In  In12  1  0.66153726  0.49278066  0.15330889  1
  In  In13  1  0.49832638  0.83178230  0.64894151  1
  In  In14  1  0.68313634  0.14339544  0.51152696  1
  In  In15  1  0.33626705  0.19810160  0.84422600  1
  In  In16  1  0.35515692  0.69477488  0.02720921  1
  In  In17  1  -0.01068257  0.64500524  0.33120027  1
  In  In18  1  0.29916175  0.48630143  0.86244757  1
  In  In19  1  0.34798796  -0.01639653  0.64376391  1
  In  In20  1  0.83093557  0.82713103  0.33883351  1
  In  In21  1  0.49509052  0.01045452  0.84735837  1
  In  In22  1  0.33755590  0.00124298  0.01067714  1
  In  In23  1  0.63788547  0.68133502  0.31780652  1
  In  In24  1  0.18689847  0.15372476  0.31287314  1
  In  In25  1  0.00042282  0.51156559  0.48568936  1
  In  In26  1  -0.01171136  0.83578278  0.83074417  1
  In  In27  1  0.16666124  0.50244985  0.65119776  1
  In  In28  1  0.34552533  0.17334937  0.49381766  1
  In  In29  1  0.03122312  0.51801265  0.86062227  1
  In  In30  1  0.18762822  0.31570265  0.17134210  1
  In  In31  1  0.34263437  0.38288683  0.67616831  1
  In  In32  1  -0.00799393  0.69267589  0.67180794  1
  In  In33  1  0.66541067  0.15422244  0.16235837  1
  In  In34  1  0.83066063  0.00042990  0.18235530  1
  In  In35  1  0.65585364  0.31334271  0.32139771  1
  In  In36  1  0.15742037  0.17583055  0.01537549  1
  In  In37  1  0.67237434  0.35472149  -0.00682055  1
  In  In38  1  0.32523503  0.52572481  0.16634889  1
  In  In39  1  0.81643490  0.68595576  0.81271960  1
  In  In40  1  0.18471972  0.68338564  0.47244909  1
  In  In41  1  0.48062841  -0.03607044  0.18296016  1
  In  In42  1  0.00293209  0.34425218  0.34035010  1
  In  In43  1  0.82203769  0.82870514  -0.01902309  1
  In  In44  1  0.64146463  0.82036581  0.51059468  1
  In  In45  1  0.35035925  0.34282390  0.34607277  1
  In  In46  1  0.80985918  -0.03286290  0.81720212  1
  In  In47  1  0.63664758  0.66101521  -0.03506384  1
  In  In48  1  0.01645313  0.16674292  0.50596083  1
  In  In49  1  0.49209949  0.16175693  -0.00658633  1
  In  In50  1  -0.00130723  0.00756500  0.01050543  1
  In  In51  1  0.84584582  0.16091604  0.67044689  1
  In  In52  1  0.83852754  0.64380863  0.16509584  1
  In  In53  1  0.18699088  0.83554240  0.01478297  1
  In  In54  1  0.84330062  0.50068426  0.00571830  1
  In  In55  1  0.30717987  0.66871361  0.64844238  1
  In  In56  1  0.18698748  -0.03766899  0.46557336  1
  In  In57  1  0.47604807  0.34280803  0.16174551  1
  In  In58  1  0.67364057  0.00582934  0.64093674  1
  In  In59  1  0.16716998  0.67942965  0.17256748  1
  In  In60  1  0.82338629  0.35455408  0.51265641  1
  In  In61  1  0.49397665  0.65881537  0.51833946  1
  In  In62  1  0.64046280  0.81371904  0.14485218  1
  In  In63  1  0.01105621  0.32610337  0.00484433  1
  In  In64  1  0.00430013  0.16511802  0.86745024  1
  In  In65  1  0.82932593  0.18789559  0.01654127  1
  In  In66  1  0.34947827  0.84822547  0.82625190  1
  In  In67  1  0.48600822  0.50016206  -0.00312988  1
  In  In68  1  0.16706418  0.15979094  0.67971980  1
  In  In69  1  0.51323815  0.16556404  0.67975123  1
  In  In70  1  0.83196051  -0.01394039  0.47999658  1
  In  In71  1  0.82236808  0.49728663  0.67493508  1
  Te  Te72  1  0.09231560  0.07454907  0.10418751  1
  Te  Te73  1  0.09929177  0.07939965  0.41489353  1
  Te  Te74  1  0.05305558  0.08270858  0.74478250  1
  Te  Te75  1  0.11563982  0.41349856  0.07156105  1
  Te  Te76  1  0.09534374  0.42202108  0.42031966  1
  Te  Te77  1  0.09147207  0.42128341  0.75551362  1
  Te  Te78  1  0.07417976  0.75701938  0.07874309  1
  Te  Te79  1  0.07988436  0.75224454  0.38791551  1
  Te  Te80  1  0.08847209  0.75631653  0.76063860  1
  Te  Te81  1  0.42263856  0.08558695  0.10278046  1
  Te  Te82  1  0.37840426  0.07267781  0.38391328  1
  Te  Te83  1  0.39371733  0.08302456  0.75204819  1
  Te  Te84  1  0.38146817  0.41926230  0.07276318  1
  Te  Te85  1  0.43868556  0.43310649  0.42044774  1
  Te  Te86  1  0.41670854  0.43168967  0.79087694  1
  Te  Te87  1  0.45387294  0.77702333  0.09993791  1
  Te  Te88  1  0.42293792  0.75391959  0.43147288  1
  Te  Te89  1  0.41198709  0.74406459  0.73750015  1
  Te  Te90  1  0.75167442  0.06902172  0.07191740  1
  Te  Te91  1  0.72765765  0.05696422  0.39569687  1
  Te  Te92  1  0.73791395  0.09019499  0.74861386  1
  Te  Te93  1  0.77252064  0.40489812  0.09916017  1
  Te  Te94  1  0.73263429  0.41346832  0.40904713  1
  Te  Te95  1  0.75167549  0.40907723  0.76694152  1
  Te  Te96  1  0.74971930  0.73094596  0.07538180  1
  Te  Te97  1  0.73619598  0.73943093  0.41775257  1
  Te  Te98  1  0.70532784  0.76798040  0.76335016  1
  Te  Te99  1  0.07947401  0.24598306  0.25345352  1
  Te  Te100  1  0.11014802  0.26138132  0.57733678  1
  Te  Te101  1  0.11713042  0.26764355  0.89588989  1
  Te  Te102  1  0.09740542  0.57162141  0.25495807  1
  Te  Te103  1  0.08245238  0.60556189  0.57421658  1
  Te  Te104  1  0.12642764  0.58822650  0.94399640  1
  Te  Te105  1  0.13669169  0.93345012  0.26201843  1
  Te  Te106  1  0.09801067  0.91898937  0.57391194  1
  Te  Te107  1  0.09457907  0.92562707  0.92246221  1
  Te  Te108  1  0.40557213  0.23967828  0.24873834  1
  Te  Te109  1  0.42220102  0.25635724  0.59542888  1
  Te  Te110  1  0.43145892  0.27631295  0.92242764  1
  Te  Te111  1  0.43203395  0.59035711  0.24132781  1
  Te  Te112  1  0.39969862  0.56868323  0.59018525  1
  Te  Te113  1  0.39836171  0.59753667  0.92061863  1
  Te  Te114  1  0.39073757  0.92505440  0.29557930  1
  Te  Te115  1  0.40321202  0.88862386  0.53913475  1
  Te  Te116  1  0.43249086  0.90612465  0.93902760  1
  Te  Te117  1  0.76244929  0.23789308  0.24440227  1
  Te  Te118  1  0.74077507  0.25702451  0.59858812  1
  Te  Te119  1  0.75638449  0.26209742  0.91587068  1
  Te  Te120  1  0.73502410  0.58047435  0.25404507  1
  Te  Te121  1  0.76658801  0.59355944  0.58119854  1
  Te  Te122  1  0.76020298  0.58071739  0.91066673  1
  Te  Te123  1  0.73977909  0.89186317  0.23682578  1
  Te  Te124  1  0.75717755  0.89781675  0.57811090  1
  Te  Te125  1  0.71588445  0.90288513  0.91137638  1
  Te  Te126  1  0.27209079  0.23582765  0.08233538  1
  Te  Te127  1  0.24638204  0.25450348  0.41426581  1
  Te  Te128  1  0.25720133  0.26742697  0.73619217  1
  Te  Te129  1  0.23074857  0.59487668  0.05909425  1
  Te  Te130  1  0.25854105  0.57353906  0.41234578  1
  Te  Te131  1  0.24006042  0.58299631  0.75550507  1
  Te  Te132  1  0.26562574  0.91632803  0.11051301  1
  Te  Te133  1  0.25364253  0.88052558  0.35926464  1
  Te  Te134  1  0.24664611  0.91102260  0.73285738  1
  Te  Te135  1  0.58600842  0.26262388  0.09047590  1
  Te  Te136  1  0.58177896  0.24553582  0.43794744  1
  Te  Te137  1  0.56559683  0.25553583  0.78123070  1
  Te  Te138  1  0.56950201  0.59109165  0.08563719  1
  Te  Te139  1  0.57770752  0.58156770  0.41637967  1
  Te  Te140  1  0.57977930  0.62132111  0.83255341  1
  Te  Te141  1  0.57642094  0.92629821  0.07688376  1
  Te  Te142  1  0.59428430  0.89681907  0.39507121  1
  Te  Te143  1  0.56501047  0.94244562  0.72758429  1
  Te  Te144  1  0.94317904  0.23252695  0.09489496  1
  Te  Te145  1  0.90128083  0.24468858  0.43781022  1
  Te  Te146  1  0.91208839  0.24848825  0.77443920  1
  Te  Te147  1  0.94735540  0.58070018  0.08143910  1
  Te  Te148  1  0.89032993  0.57947810  0.41682647  1
  Te  Te149  1  0.92646576  0.57855163  0.75554656  1
  Te  Te150  1  0.91389390  0.90481907  0.08458861  1
  Te  Te151  1  0.93598772  0.92136001  0.39303665  1
  Te  Te152  1  0.90207250  0.89649184  0.72959427  1
  Te  Te153  1  0.22281747  0.05318920  0.20868916  1
  Te  Te154  1  0.25245531  0.08172869  0.57540919  1
  Te  Te155  1  0.24905901  0.08489904  0.91461566  1
  Te  Te156  1  0.25598988  0.42206940  0.25530332  1
  Te  Te157  1  0.27051981  0.44256422  0.56345031  1
  Te  Te158  1  0.20899884  0.39119163  0.93082483  1
  Te  Te159  1  0.27129212  0.75661265  0.24264573  1
  Te  Te160  1  0.23237703  0.77402479  0.57730026  1
  Te  Te161  1  0.26525472  0.75620313  0.91377916  1
  Te  Te162  1  0.57903525  0.06769486  0.25055631  1
  Te  Te163  1  0.55267231  0.06933307  0.56038557  1
  Te  Te164  1  0.59417476  0.09417070  0.91415215  1
  Te  Te165  1  0.57076486  0.41848470  0.25220356  1
  Te  Te166  1  0.57292258  0.46198935  0.62504283  1
  Te  Te167  1  0.59490335  0.44851513  0.91013359  1
  Te  Te168  1  0.53390412  0.74874970  0.23067140  1
  Te  Te169  1  0.59724029  0.71838584  0.61682467  1
  Te  Te170  1  0.59046344  0.76821753  0.86332840  1
  Te  Te171  1  0.93418856  0.06954709  0.25880955  1
  Te  Te172  1  0.91864369  0.07078101  0.57390367  1
  Te  Te173  1  0.89950264  0.06143021  0.90970560  1
  Te  Te174  1  0.90997401  0.42001008  0.25787993  1
  Te  Te175  1  0.93652135  0.41092954  0.59620715  1
  Te  Te176  1  0.92975553  0.41471793  0.91456700  1
  Te  Te177  1  0.92077558  0.75153763  0.23671598  1
  Te  Te178  1  0.90586525  0.74793237  0.56700236  1
  Te  Te179  1  0.91974392  0.73231022  0.91739598  1
