# generated using pymatgen
data_In2Te3
_symmetry_space_group_name_H-M   'P 1'
_cell_length_a   18.78527141
_cell_length_b   18.79766891
_cell_length_c   18.78847994
_cell_angle_alpha   89.92666410
_cell_angle_beta   89.93614153
_cell_angle_gamma   89.94505326
_symmetry_Int_Tables_number   1
_chemical_formula_structural   In2Te3
_chemical_formula_sum   'In72 Te108'
_cell_volume   6634.56251739
_cell_formula_units_Z   36
loop_
 _symmetry_equiv_pos_site_id
 _symmetry_equiv_pos_as_xyz
  1  'x, y, z'
loop_
 _atom_site_type_symbol
 _atom_site_label
 _atom_site_symmetry_multiplicity
 _atom_site_fract_x
 _atom_site_fract_y
 _atom_site_fract_z
 _atom_site_occupancy
  In  In0  1  0.02449923  0.51205565  0.49230390  1
  In  In1  1  0.49796498  0.84996939  0.33493241  1
  In  In2  1  0.84031140  0.71097596  0.18184689  1
  In  In3  1  0.84672027  0.31930651  0.50060164  1
  In  In4  1  0.85793014  0.50564100  0.34193651  1
  In  In5  1  0.17092630  0.83372499  0.66173703  1
  In  In6  1  0.48562710  -0.01742418  0.50545430  1
  In  In7  1  0.84842692  0.17598907  0.34308248  1
  In  In8  1  0.67526371  0.15565504  0.49143045  1
  In  In9  1  0.47698268  0.66748574  0.14283866  1
  In  In10  1  -0.00288018  0.69629612  0.00266164  1
  In  In11  1  0.84469817  0.50304130  -0.00679874  1
  In  In12  1  0.15905135  0.83532742  0.31828228  1
  In  In13  1  0.32895842  0.68130742  -0.03050766  1
  In  In14  1  0.48196397  0.16475006  0.33742099  1
  In  In15  1  0.02032466  -0.00202842  0.00749906  1
  In  In16  1  0.32351776  0.48677592  0.18224582  1
  In  In17  1  0.01089988  0.32346036  0.65301608  1
  In  In18  1  0.01790468  0.83426708  0.49799147  1
  In  In19  1  0.18307007  0.00677250  0.53555532  1
  In  In20  1  0.85891043  0.83582839  0.31916105  1
  In  In21  1  0.49570938  0.66993125  0.81510407  1
  In  In22  1  0.33121926  0.66648762  0.66278011  1
  In  In23  1  0.52570687  0.66903846  0.50202886  1
  In  In24  1  0.84400637  0.32899951  0.14877489  1
  In  In25  1  0.16485105  0.67934766  0.81893527  1
  In  In26  1  0.14939403  0.49841328  0.67024398  1
  In  In27  1  0.66911179  0.50290337  0.52967159  1
  In  In28  1  0.31673858  0.33499896  0.67095120  1
  In  In29  1  0.17057264  0.17353142  0.32995354  1
  In  In30  1  0.66835018  0.83881194  0.50885741  1
  In  In31  1  0.30248269  0.63974248  0.35610355  1
  In  In32  1  0.48506773  0.19095383  0.66754788  1
  In  In33  1  0.32790555  0.83334265  0.50638303  1
  In  In34  1  0.65298694  0.30810535  0.00361609  1
  In  In35  1  0.47698439  0.02015965  0.83203931  1
  In  In36  1  0.02005940  -0.00731397  0.32795055  1
  In  In37  1  0.32445416  0.03608341  0.32904430  1
  In  In38  1  0.66917587  0.32453948  0.32910680  1
  In  In39  1  0.69240091  0.83748200  0.15579670  1
  In  In40  1  0.33216560  0.32656473  -0.00824184  1
  In  In41  1  0.30848516  0.16049406  0.82837135  1
  In  In42  1  0.18488281  0.48992322  -0.01063836  1
  In  In43  1  0.67012006  -0.00006795  0.68632741  1
  In  In44  1  0.83658523  0.84414352  -0.01375749  1
  In  In45  1  0.46015827  0.47039998  0.36794895  1
  In  In46  1  0.66559064  -0.01950443  -0.01095593  1
  In  In47  1  0.81878280  0.52380255  0.66527357  1
  In  In48  1  0.66865250  0.68111889  0.33610727  1
  In  In49  1  0.47559827  0.49462236  0.67001865  1
  In  In50  1  0.84112670  0.67721230  0.82744613  1
  In  In51  1  0.85521271  0.85452918  0.67202267  1
  In  In52  1  0.16917753  0.32921175  0.50633378  1
  In  In53  1  0.66861297  0.82596698  0.84275650  1
  In  In54  1  0.01657589  0.31866268  -0.00883461  1
  In  In55  1  0.48570172  0.49780104  0.01289370  1
  In  In56  1  0.65065837  0.49706820  0.82630202  1
  In  In57  1  0.47385594  0.85439935  -0.02699879  1
  In  In58  1  0.18132643  0.32981852  0.18777559  1
  In  In59  1  0.82723593  0.16981602  -0.00308340  1
  In  In60  1  0.64753316  0.34238313  0.67491329  1
  In  In61  1  0.49638960  0.16219301  0.00971631  1
  In  In62  1  0.84949140  0.13605352  0.66539342  1
  In  In63  1  0.84012162  0.00880665  0.15755717  1
  In  In64  1  0.64600481  0.49573226  0.18772700  1
  In  In65  1  -0.00263463  0.48820494  0.83278744  1
  In  In66  1  0.48846200  0.02286140  0.17566971  1
  In  In67  1  0.32857073  0.15898315  0.16118106  1
  In  In68  1  0.00339115  0.50291563  0.19369939  1
  In  In69  1  0.01039199  0.16756711  0.83182284  1
  In  In70  1  0.14707246  0.67146930  0.16543909  1
  In  In71  1  0.16357578  0.00101621  0.81393205  1
  Te  Te72  1  0.10981332  0.06644379  0.10245367  1
  Te  Te73  1  0.09944312  0.07903531  0.42557897  1
  Te  Te74  1  0.06832659  0.07883890  0.72278408  1
  Te  Te75  1  0.08488833  0.42338051  0.08713915  1
  Te  Te76  1  0.08739014  0.40761365  0.40836267  1
  Te  Te77  1  0.09265331  0.39179769  0.76433574  1
  Te  Te78  1  0.10906915  0.77309928  0.06433547  1
  Te  Te79  1  0.09052570  0.74008833  0.40833706  1
  Te  Te80  1  0.06959119  0.75285547  0.73319307  1
  Te  Te81  1  0.38756807  0.05492923  0.05100940  1
  Te  Te82  1  0.39496899  0.09346507  0.45395123  1
  Te  Te83  1  0.38805913  0.07928352  0.71311246  1
  Te  Te84  1  0.41457408  0.39506308  0.10066275  1
  Te  Te85  1  0.38543077  0.35780315  0.42874119  1
  Te  Te86  1  0.40970936  0.40348307  0.76518498  1
  Te  Te87  1  0.38917187  0.77282669  0.07939169  1
  Te  Te88  1  0.41800398  0.74377211  0.41059851  1
  Te  Te89  1  0.39463804  0.76089030  0.75726772  1
  Te  Te90  1  0.73087333  0.08325998  0.08108795  1
  Te  Te91  1  0.77960173  0.07506350  0.42774408  1
  Te  Te92  1  0.75022778  0.09559804  0.76583684  1
  Te  Te93  1  0.74357354  0.42665538  0.08357705  1
  Te  Te94  1  0.74929377  0.41982231  0.41980218  1
  Te  Te95  1  0.75775160  0.41566586  0.75381332  1
  Te  Te96  1  0.75277739  0.73787593  0.05755236  1
  Te  Te97  1  0.76546614  0.75978499  0.41908363  1
  Te  Te98  1  0.74732479  0.75345237  0.73582971  1
  Te  Te99  1  0.07365668  0.24944957  0.24771630  1
  Te  Te100  1  0.10108184  0.22436782  0.58878143  1
  Te  Te101  1  0.11280632  0.23565382  0.91578438  1
  Te  Te102  1  0.09513317  0.58582541  0.27374290  1
  Te  Te103  1  0.08146223  0.60434306  0.59342315  1
  Te  Te104  1  0.07733402  0.58397635  0.92532693  1
  Te  Te105  1  0.09505121  0.92453978  0.21612011  1
  Te  Te106  1  0.05995293  0.93947918  0.60663541  1
  Te  Te107  1  0.10314494  0.91021955  0.91861473  1
  Te  Te108  1  0.39320495  0.25192742  0.25574121  1
  Te  Te109  1  0.41160850  0.27673175  0.56776805  1
  Te  Te110  1  0.41930042  0.23864647  0.90235070  1
  Te  Te111  1  0.42150178  0.58090811  0.25654241  1
  Te  Te112  1  0.41402206  0.58414344  0.56198153  1
  Te  Te113  1  0.41227444  0.57287537  0.90202312  1
  Te  Te114  1  0.39128179  0.91814097  0.24815322  1
  Te  Te115  1  0.42687033  0.88660900  0.60187794  1
  Te  Te116  1  0.37496154  0.92606483  0.88786176  1
  Te  Te117  1  0.75525825  0.23989987  0.23699150  1
  Te  Te118  1  0.74666019  0.25006302  0.59330222  1
  Te  Te119  1  0.74962925  0.25643101  0.90620383  1
  Te  Te120  1  0.75823877  0.58712210  0.24517267  1
  Te  Te121  1  0.75323269  0.61567671  0.56942253  1
  Te  Te122  1  0.74815733  0.58524446  0.90787776  1
  Te  Te123  1  0.75236242  0.93028576  0.25753967  1
  Te  Te124  1  0.76103490  0.93635561  0.58139539  1
  Te  Te125  1  0.76972286  0.93728811  0.88311999  1
  Te  Te126  1  0.23417043  0.24306142  0.07349678  1
  Te  Te127  1  0.26682090  0.25500636  0.41283607  1
  Te  Te128  1  0.22720181  0.22631823  0.72000448  1
  Te  Te129  1  0.26197453  0.58667862  0.08122460  1
  Te  Te130  1  0.24210102  0.52663114  0.42876048  1
  Te  Te131  1  0.25365371  0.57317486  0.75669678  1
  Te  Te132  1  0.31929499  0.93248561  0.10358751  1
  Te  Te133  1  0.24697741  0.92486326  0.41485080  1
  Te  Te134  1  0.26465538  0.91311646  0.74402237  1
  Te  Te135  1  0.57319971  0.24064826  0.10697805  1
  Te  Te136  1  0.57712955  0.25088603  0.42586164  1
  Te  Te137  1  0.57963932  0.24765924  0.76504871  1
  Te  Te138  1  0.59075771  0.58803284  0.07837468  1
  Te  Te139  1  0.58878539  0.56891251  0.40276701  1
  Te  Te140  1  0.58626116  0.58831590  0.72275427  1
  Te  Te141  1  0.56911878  0.91364430  0.08832702  1
  Te  Te142  1  0.59683285  0.93509382  0.41080739  1
  Te  Te143  1  0.57089935  0.91531962  0.76570336  1
  Te  Te144  1  0.93893871  0.22750484  0.08588597  1
  Te  Te145  1  0.94887113  0.24158926  0.43062525  1
  Te  Te146  1  0.91376784  0.25104566  0.74565506  1
  Te  Te147  1  0.92290031  0.58912358  0.09246680  1
  Te  Te148  1  0.91904076  0.60052709  0.43363250  1
  Te  Te149  1  0.93400065  0.59128671  0.74086027  1
  Te  Te150  1  0.92568628  0.90213939  0.09271882  1
  Te  Te151  1  0.92025173  0.92821961  0.42397197  1
  Te  Te152  1  0.91301791  0.91436633  0.79270105  1
  Te  Te153  1  0.21606561  0.06368868  0.21893156  1
  Te  Te154  1  0.29065593  0.09185780  0.58908488  1
  Te  Te155  1  0.22726053  0.08137640  0.92395701  1
  Te  Te156  1  0.22820379  0.43559826  0.28618524  1
  Te  Te157  1  0.25369859  0.44644168  0.56891826  1
  Te  Te158  1  0.25938658  0.40926242  0.89182341  1
  Te  Te159  1  0.25949953  0.73935160  0.24936068  1
  Te  Te160  1  0.23232896  0.73026370  0.56427576  1
  Te  Te161  1  0.22208467  0.77397245  0.92016797  1
  Te  Te162  1  0.58476356  0.08223178  0.26948737  1
  Te  Te163  1  0.57755669  0.08298518  0.58979606  1
  Te  Te164  1  0.58871573  0.08748759  0.91183856  1
  Te  Te165  1  0.55561095  0.40095665  0.26145758  1
  Te  Te166  1  0.55835660  0.40885919  0.57033620  1
  Te  Te167  1  0.56967944  0.40888191  0.92055398  1
  Te  Te168  1  0.57876257  0.75417535  0.23502774  1
  Te  Te169  1  0.56975267  0.77202926  0.59790994  1
  Te  Te170  1  0.57036175  0.74383056  0.92728037  1
  Te  Te171  1  0.93293221  0.08914104  0.24629075  1
  Te  Te172  1  0.96144634  0.06448425  0.60189448  1
  Te  Te173  1  0.92322101  0.07829833  0.92025485  1
  Te  Te174  1  0.92371261  0.39222989  0.26374155  1
  Te  Te175  1  0.91509610  0.42804210  0.58511519  1
  Te  Te176  1  0.90780913  0.39155333  0.91098472  1
  Te  Te177  1  0.96090790  0.74554110  0.25912118  1
  Te  Te178  1  0.92989637  0.75637835  0.58981461  1
  Te  Te179  1  0.93949850  0.78240923  0.88571265  1
