# generated using pymatgen
data_In2Te3
_symmetry_space_group_name_H-M   'P 1'
_cell_length_a   18.92480997
_cell_length_b   18.91917782
_cell_length_c   18.92208454
_cell_angle_alpha   90.10884226
_cell_angle_beta   90.12805735
_cell_angle_gamma   90.11238172
_symmetry_Int_Tables_number   1
_chemical_formula_structural   In2Te3
_chemical_formula_sum   'In72 Te108'
_cell_volume   6774.85582722
_cell_formula_units_Z   36
loop_
 _symmetry_equiv_pos_site_id
 _symmetry_equiv_pos_as_xyz
  1  'x, y, z'
loop_
 _atom_site_type_symbol
 _atom_site_label
 _atom_site_symmetry_multiplicity
 _atom_site_fract_x
 _atom_site_fract_y
 _atom_site_fract_z
 _atom_site_occupancy
  In  In0  1  0.00544319  0.52017445  0.16345299  1
  In  In1  1  0.30288766  0.66566523  0.00140364  1
  In  In2  1  0.16059286  0.50876735  0.31584408  1
  In  In3  1  0.84532285  0.66555042  0.49975691  1
  In  In4  1  0.00872710  0.32819632  0.32924993  1
  In  In5  1  0.49561024  0.65113248  0.48630169  1
  In  In6  1  0.17038562  0.42566712  -0.03077089  1
  In  In7  1  0.00444986  0.84933063  0.17092183  1
  In  In8  1  0.15203493  0.67713313  0.48997074  1
  In  In9  1  0.83855445  0.15388548  0.67477693  1
  In  In10  1  0.01561330  0.32953122  0.65495586  1
  In  In11  1  0.82414238  0.47151211  0.36039241  1
  In  In12  1  0.14402599  0.84965667  0.00620785  1
  In  In13  1  0.50486043  0.66913646  0.85116664  1
  In  In14  1  0.31893757  0.00188609  0.66195206  1
  In  In15  1  0.47465541  -0.03031090  0.09768542  1
  In  In16  1  0.84198937  -0.01526636  0.19913589  1
  In  In17  1  0.67954932  0.66660473  0.66939555  1
  In  In18  1  0.52215674  0.32968090  0.16493923  1
  In  In19  1  0.33176148  0.32103529  0.34617374  1
  In  In20  1  0.14697492  0.65122802  0.83196291  1
  In  In21  1  0.31177085  0.68165655  0.30795858  1
  In  In22  1  0.31028915  0.01222483  0.34254098  1
  In  In23  1  0.46662853  0.41599895  0.64191987  1
  In  In24  1  0.84367070  0.17414068  0.31492624  1
  In  In25  1  0.02075692  0.15730032  0.47533228  1
  In  In26  1  0.00997722  0.67115346  0.64963671  1
  In  In27  1  0.66375091  0.65670342  0.31166759  1
  In  In28  1  0.85344753  0.49953350  0.67202334  1
  In  In29  1  0.33364511  0.66169424  0.68273442  1
  In  In30  1  0.51294720  0.47325176  0.31914839  1
  In  In31  1  0.51028190  0.50555127  -0.00856511  1
  In  In32  1  0.67824182  0.84934362  0.50105742  1
  In  In33  1  0.29805735  0.18920889  0.80767420  1
  In  In34  1  0.84850609  0.04254004  0.85255189  1
  In  In35  1  0.02604708  0.18462800  0.84791133  1
  In  In36  1  0.32588751  0.18496894  0.51566183  1
  In  In37  1  0.49031946  0.33456174  0.82247628  1
  In  In38  1  -0.00941501  0.46634056  0.84642636  1
  In  In39  1  0.17061695  0.30978101  0.17031964  1
  In  In40  1  0.16588402  -0.00354043  0.81951331  1
  In  In41  1  0.66751668  0.17502873  0.18264720  1
  In  In42  1  0.47525350  -0.02685453  0.84782275  1
  In  In43  1  0.48662662  0.14554035  -0.00621003  1
  In  In44  1  0.67409888  0.51861018  0.83268696  1
  In  In45  1  0.15997709  0.03207898  0.16363878  1
  In  In46  1  0.29917706  0.85848280  0.48924212  1
  In  In47  1  0.16827780  0.70563697  0.17871655  1
  In  In48  1  0.35741092  0.50254573  0.14613777  1
  In  In49  1  0.50017257  0.18166268  0.34942257  1
  In  In50  1  0.66425254  0.84392143  0.82621878  1
  In  In51  1  0.00659377  0.83869490  0.84080378  1
  In  In52  1  0.66386734  0.32866390  0.65812788  1
  In  In53  1  0.69204859  0.66347005  -0.01127485  1
  In  In54  1  0.17561499  0.18129991  -0.00119856  1
  In  In55  1  0.67093945  0.00514495  0.01572470  1
  In  In56  1  0.81455413  0.85432597  0.69228823  1
  In  In57  1  0.86657282  -0.02665982  0.47583742  1
  In  In58  1  0.47154811  0.82486777  0.66368390  1
  In  In59  1  0.81432549  0.30726563  0.86488806  1
  In  In60  1  0.49574792  0.17778432  0.66504320  1
  In  In61  1  0.65681279  0.18202445  0.49161470  1
  In  In62  1  0.50446415  0.83990593  0.33859184  1
  In  In63  1  0.84958270  0.82708144  0.00817978  1
  In  In64  1  0.82573629  0.30741207  0.07056007  1
  In  In65  1  0.30467838  0.47013508  0.52604042  1
  In  In66  1  0.67130567  0.00650333  0.32621464  1
  In  In67  1  0.85663278  0.66908706  0.16638519  1
  In  In68  1  0.31602657  0.81864552  0.17751990  1
  In  In69  1  0.01765528  0.49117591  0.49941965  1
  In  In70  1  0.03709542  -0.01928907  0.64534777  1
  In  In71  1  0.49276703  0.66438286  0.13445774  1
  Te  Te72  1  0.06638563  0.11987871  0.08374225  1
  Te  Te73  1  0.05192597  0.04351720  0.38506404  1
  Te  Te74  1  0.08421488  0.09601194  0.73952675  1
  Te  Te75  1  0.08239163  0.40659252  0.09537483  1
  Te  Te76  1  0.10976030  0.40610918  0.41415661  1
  Te  Te77  1  0.09347706  0.40928835  0.75393341  1
  Te  Te78  1  0.06276392  0.74319943  0.07597934  1
  Te  Te79  1  0.04845825  0.77658701  0.44777856  1
  Te  Te80  1  0.09129886  0.76369857  0.73938511  1
  Te  Te81  1  0.39142079  0.08838029  0.08939139  1
  Te  Te82  1  0.41063805  0.09017060  0.42912429  1
  Te  Te83  1  0.41224596  0.08459609  0.75452202  1
  Te  Te84  1  0.42899268  0.39917016  0.06459585  1
  Te  Te85  1  0.41117873  0.42529482  0.42134099  1
  Te  Te86  1  0.38169009  0.42254810  0.76522676  1
  Te  Te87  1  0.40479343  0.76271123  0.06298687  1
  Te  Te88  1  0.40590250  0.75507937  0.41998653  1
  Te  Te89  1  0.40324879  0.75817395  0.78140253  1
  Te  Te90  1  0.76255863  0.08100664  0.10957566  1
  Te  Te91  1  0.76712685  0.08317060  0.41729578  1
  Te  Te92  1  0.74224672  0.08870654  0.76359844  1
  Te  Te93  1  0.72021772  0.40298231  0.10491244  1
  Te  Te94  1  0.71867893  0.38874348  0.41737597  1
  Te  Te95  1  0.76084093  0.41072487  0.75526328  1
  Te  Te96  1  0.75073493  0.75402639  0.09602795  1
  Te  Te97  1  0.73992382  0.74051476  0.41788484  1
  Te  Te98  1  0.76172274  0.73722120  0.77533386  1
  Te  Te99  1  0.09033572  0.22659425  0.26089627  1
  Te  Te100  1  0.10122474  0.25217314  0.56019817  1
  Te  Te101  1  0.11074780  0.28961640  0.91538287  1
  Te  Te102  1  0.07275492  0.61725940  0.26220442  1
  Te  Te103  1  0.10822452  0.57062396  0.59109863  1
  Te  Te104  1  0.08953355  0.55103709  0.93103506  1
  Te  Te105  1  0.09043023  0.93710871  0.25706099  1
  Te  Te106  1  0.09457857  0.89230773  0.54318592  1
  Te  Te107  1  0.06630688  0.95139707  0.92533910  1
  Te  Te108  1  0.41813275  0.25054220  0.24209331  1
  Te  Te109  1  0.43054189  0.28198185  0.57847706  1
  Te  Te110  1  0.40473816  0.24083424  0.90426707  1
  Te  Te111  1  0.42789793  0.59298799  0.25821647  1
  Te  Te112  1  0.41298675  0.57086717  0.58620204  1
  Te  Te113  1  0.39761194  0.58040505  0.91785441  1
  Te  Te114  1  0.40311304  0.91911786  0.25781210  1
  Te  Te115  1  0.41211196  0.92499134  0.56723982  1
  Te  Te116  1  0.41649368  0.91581166  0.96820878  1
  Te  Te117  1  0.77280184  0.27320685  0.22717975  1
  Te  Te118  1  0.76416806  0.24667433  0.57952734  1
  Te  Te119  1  0.73855046  0.23672793  0.96825025  1
  Te  Te120  1  0.77435449  0.57414745  0.25435150  1
  Te  Te121  1  0.75535956  0.57096053  0.57962675  1
  Te  Te122  1  0.77944224  0.56429064  0.92416989  1
  Te  Te123  1  0.74413845  0.89644241  0.26326242  1
  Te  Te124  1  0.75652597  0.94565241  0.58640342  1
  Te  Te125  1  0.76397433  0.92160516  0.91344645  1
  Te  Te126  1  0.27208703  0.26122270  0.07704590  1
  Te  Te127  1  0.23872598  0.21943866  0.39856184  1
  Te  Te128  1  0.22023986  0.28719432  0.72962609  1
  Te  Te129  1  0.23513902  0.58422659  0.10751891  1
  Te  Te130  1  0.25623698  0.58314662  0.41670299  1
  Te  Te131  1  0.24001071  0.57172117  0.75035753  1
  Te  Te132  1  0.24217518  0.92387030  0.09311747  1
  Te  Te133  1  0.21153402  0.97444936  0.45174598  1
  Te  Te134  1  0.24846439  0.90279648  0.74401706  1
  Te  Te135  1  0.58912981  0.23665145  0.06452846  1
  Te  Te136  1  0.60853782  0.28087792  0.38861964  1
  Te  Te137  1  0.59496990  0.24202679  0.76156831  1
  Te  Te138  1  0.60559726  0.57904885  0.08416623  1
  Te  Te139  1  0.59523201  0.56535661  0.41226142  1
  Te  Te140  1  0.57154484  0.58624472  0.74291114  1
  Te  Te141  1  0.60562004  0.90619746  0.10101033  1
  Te  Te142  1  0.57847770  0.93694854  0.42820510  1
  Te  Te143  1  0.56862819  0.91870877  0.73600170  1
  Te  Te144  1  0.94242125  0.21647925  0.08400569  1
  Te  Te145  1  0.91512252  0.25415815  0.42320966  1
  Te  Te146  1  0.91904699  0.25740276  0.75599134  1
  Te  Te147  1  0.90405180  0.56949950  0.06859431  1
  Te  Te148  1  0.93046503  0.57795797  0.41171665  1
  Te  Te149  1  0.94184190  0.58571881  0.75641457  1
  Te  Te150  1  0.92447770  0.93909812  0.07775118  1
  Te  Te151  1  0.92254354  0.86002306  0.40079050  1
  Te  Te152  1  0.92536369  0.94039294  0.75276564  1
  Te  Te153  1  0.24423298  0.11405786  0.25703628  1
  Te  Te154  1  0.23286358  0.09802380  0.59111681  1
  Te  Te155  1  0.25271243  0.08357450  0.90867972  1
  Te  Te156  1  0.26782989  0.42581305  0.24606032  1
  Te  Te157  1  0.23342009  0.35880714  0.59170441  1
  Te  Te158  1  0.29752299  0.43427681  0.89774263  1
  Te  Te159  1  0.21431777  0.79519218  0.29443754  1
  Te  Te160  1  0.25395648  0.74693561  0.57997320  1
  Te  Te161  1  0.22405917  0.75940972  0.91418304  1
  Te  Te162  1  0.56543063  0.08485764  0.25065978  1
  Te  Te163  1  0.57635662  0.09430033  0.57555592  1
  Te  Te164  1  0.58266264  0.06479217  0.90729878  1
  Te  Te165  1  0.61918345  0.43015118  0.22130315  1
  Te  Te166  1  0.59530406  0.42620317  0.57286095  1
  Te  Te167  1  0.59331386  0.41253468  0.90595016  1
  Te  Te168  1  0.57089699  0.75034613  0.23633652  1
  Te  Te169  1  0.58182026  0.74782155  0.58140438  1
  Te  Te170  1  0.59034122  0.76407487  0.93185486  1
  Te  Te171  1  0.94323269  0.06781418  0.27614653  1
  Te  Te172  1  0.93121528  0.07711132  0.57829671  1
  Te  Te173  1  0.92171211  0.13479636  0.94565243  1
  Te  Te174  1  0.92344329  0.42466954  0.25205665  1
  Te  Te175  1  0.91358273  0.40618224  0.56936742  1
  Te  Te176  1  0.91071570  0.38753167  0.94598525  1
  Te  Te177  1  0.91590723  0.76974663  0.26135354  1
  Te  Te178  1  0.90019384  0.76464358  0.60109463  1
  Te  Te179  1  0.93018078  0.74285814  0.91986967  1
