# generated using pymatgen
data_In2Te3
_symmetry_space_group_name_H-M   'P 1'
_cell_length_a   18.93143405
_cell_length_b   18.91566276
_cell_length_c   18.90500051
_cell_angle_alpha   89.96717091
_cell_angle_beta   89.92278024
_cell_angle_gamma   90.06138557
_symmetry_Int_Tables_number   1
_chemical_formula_structural   In2Te3
_chemical_formula_sum   'In72 Te108'
_cell_volume   6769.88129286
_cell_formula_units_Z   36
loop_
 _symmetry_equiv_pos_site_id
 _symmetry_equiv_pos_as_xyz
  1  'x, y, z'
loop_
 _atom_site_type_symbol
 _atom_site_label
 _atom_site_symmetry_multiplicity
 _atom_site_fract_x
 _atom_site_fract_y
 _atom_site_fract_z
 _atom_site_occupancy
  In  In0  1  0.86060549  0.85413087  0.35172324  1
  In  In1  1  -0.01913129  0.64433045  0.03963404  1
  In  In2  1  0.00966437  0.31573891  0.34088314  1
  In  In3  1  0.69155063  -0.00699822  0.64915673  1
  In  In4  1  0.15785109  0.31956230  0.15335748  1
  In  In5  1  -0.00127968  0.83515589  0.84683487  1
  In  In6  1  0.16023537  0.02344972  0.48616541  1
  In  In7  1  -0.02993953  0.66578835  0.63452197  1
  In  In8  1  0.66213927  0.84135920  0.49654450  1
  In  In9  1  0.18104994  0.13663730  0.03170348  1
  In  In10  1  0.19759049  0.67786828  0.23375093  1
  In  In11  1  0.15068931  0.32235342  0.50006863  1
  In  In12  1  0.00481481  0.67415784  0.32895382  1
  In  In13  1  0.00886253  0.84470137  0.18048868  1
  In  In14  1  0.69397872  0.31991159  0.03020736  1
  In  In15  1  0.66119979  0.84855848  0.17087361  1
  In  In16  1  0.65599507  0.81705479  0.82551831  1
  In  In17  1  0.82535944  0.66935373  0.49329828  1
  In  In18  1  0.48788589  -0.01292564  0.17301050  1
  In  In19  1  0.49916621  0.67199027  0.48852331  1
  In  In20  1  0.15044266  0.67037157  0.84195519  1
  In  In21  1  -0.02514108  0.32559717  0.00030679  1
  In  In22  1  0.82976148  0.28734819  0.23966967  1
  In  In23  1  0.84559399  0.49227515  0.64411015  1
  In  In24  1  0.49469039  0.13606310  0.00279160  1
  In  In25  1  0.18355709  0.84500440  0.00800016  1
  In  In26  1  0.66937324  0.64206599  0.01495761  1
  In  In27  1  0.15598436  0.18986909  0.65105803  1
  In  In28  1  0.45780934  0.69447811  0.14709467  1
  In  In29  1  0.01317821  0.17319217  0.83743983  1
  In  In30  1  0.14489974  0.00624719  0.20537119  1
  In  In31  1  0.80597649  0.05857007  0.22071672  1
  In  In32  1  0.51151012  0.33286038  0.18916203  1
  In  In33  1  0.00963387  0.34287306  0.63395373  1
  In  In34  1  0.66912110  0.29664761  0.64004138  1
  In  In35  1  0.83120591  0.16125729  0.03305105  1
  In  In36  1  0.49207630  -0.00539084  0.84312969  1
  In  In37  1  0.84139776  0.15618407  0.64316497  1
  In  In38  1  0.34137890  0.67463564  0.67310656  1
  In  In39  1  0.17129799  0.66350872  0.46222824  1
  In  In40  1  0.83802849  -0.01160450  0.83742892  1
  In  In41  1  0.82047091  0.82532013  0.01186948  1
  In  In42  1  0.52322520  0.13703838  0.64249548  1
  In  In43  1  0.14580990  0.35146034  0.83575018  1
  In  In44  1  0.70200263  0.48791999  0.15761480  1
  In  In45  1  0.00242647  0.02135985  0.63866639  1
  In  In46  1  0.82795522  0.46893001  0.36144470  1
  In  In47  1  0.17865077  0.84700494  0.68347465  1
  In  In48  1  0.50063534  0.65627479  0.86721533  1
  In  In49  1  0.67424872  0.50663888  0.83282054  1
  In  In50  1  0.64774323  0.64708195  0.31607386  1
  In  In51  1  0.31942459  0.50488923  0.18313112  1
  In  In52  1  0.50329812  0.32540982  0.47870779  1
  In  In53  1  0.32948942  0.35373986  0.67741250  1
  In  In54  1  0.34118496  0.15688363  0.85837050  1
  In  In55  1  0.49812441  0.85961327  0.35487617  1
  In  In56  1  0.47580151  0.85006164  0.63930718  1
  In  In57  1  0.49420060  0.51255127  0.65400382  1
  In  In58  1  0.52662958  0.14772235  0.35519253  1
  In  In59  1  0.71090457  0.67164036  0.66702805  1
  In  In60  1  0.51445660  0.33695731  0.80456484  1
  In  In61  1  0.32068342  0.32620545  0.32116465  1
  In  In62  1  0.16911334  0.51572762  0.65145112  1
  In  In63  1  0.35085233  0.17548041  0.49593432  1
  In  In64  1  0.01349868  -0.03008712  -0.00027401  1
  In  In65  1  0.31713977  0.86557664  0.50020587  1
  In  In66  1  0.30907999  0.32556460  0.00274428  1
  In  In67  1  0.50130346  0.49230035  0.00400260  1
  In  In68  1  0.50424333  0.48260551  0.31551299  1
  In  In69  1  0.82854338  0.32974954  0.83235343  1
  In  In70  1  0.16265126  0.51438366  0.01917340  1
  In  In71  1  0.32694497  0.84862223  0.84092279  1
  Te  Te72  1  0.05899901  0.07647440  0.09706664  1
  Te  Te73  1  0.04950039  0.07611869  0.40001719  1
  Te  Te74  1  0.09600800  0.08641901  0.74663603  1
  Te  Te75  1  0.06517181  0.41819723  0.08473883  1
  Te  Te76  1  0.08289693  0.42004572  0.41444632  1
  Te  Te77  1  0.07012920  0.43779268  0.73706977  1
  Te  Te78  1  0.07817993  0.75948154  0.07550811  1
  Te  Te79  1  0.08562679  0.77196059  0.40711724  1
  Te  Te80  1  0.07103239  0.74551100  0.73654674  1
  Te  Te81  1  0.39777462  0.07372191  0.09150797  1
  Te  Te82  1  0.41551114  0.06907115  0.41614103  1
  Te  Te83  1  0.41889416  0.08837956  0.74749599  1
  Te  Te84  1  0.40500532  0.40733167  0.10056798  1
  Te  Te85  1  0.40342559  0.41740287  0.41088176  1
  Te  Te86  1  0.41411994  0.44471518  0.76518047  1
  Te  Te87  1  0.41715504  0.79746966  0.05335380  1
  Te  Te88  1  0.39974151  0.76125237  0.42066449  1
  Te  Te89  1  0.43278411  0.75772532  0.76177167  1
  Te  Te90  1  0.74141302  0.06056499  0.08609052  1
  Te  Te91  1  0.77485880  0.11868271  0.35951849  1
  Te  Te92  1  0.76012199  0.08507046  0.75021975  1
  Te  Te93  1  0.79555627  0.42739809  0.05604270  1
  Te  Te94  1  0.71595151  0.37865883  0.39443513  1
  Te  Te95  1  0.73684919  0.40639458  0.73590382  1
  Te  Te96  1  0.74491957  0.73649158  0.10895746  1
  Te  Te97  1  0.73320797  0.74647076  0.39783310  1
  Te  Te98  1  0.77535972  0.76421408  0.75871658  1
  Te  Te99  1  0.09955809  0.22587833  0.25548301  1
  Te  Te100  1  0.04732801  0.22078185  0.55068162  1
  Te  Te101  1  0.10195283  0.24548320  0.93908915  1
  Te  Te102  1  0.07535345  0.59601287  0.22544193  1
  Te  Te103  1  0.07716271  0.58805055  0.55669157  1
  Te  Te104  1  0.06332101  0.57830062  0.92335596  1
  Te  Te105  1  0.09726256  0.89175868  0.29147690  1
  Te  Te106  1  0.09421431  0.91624164  0.57850746  1
  Te  Te107  1  0.11280849  0.92231154  0.89519219  1
  Te  Te108  1  0.42943545  0.23487513  0.26918331  1
  Te  Te109  1  0.42517741  0.26007759  0.60435982  1
  Te  Te110  1  0.42208911  0.27370529  0.91496064  1
  Te  Te111  1  0.41738039  0.59500336  0.25718168  1
  Te  Te112  1  0.39625603  0.58456272  0.56319153  1
  Te  Te113  1  0.40164937  0.57982822  0.94213007  1
  Te  Te114  1  0.39198167  0.90356038  0.25700463  1
  Te  Te115  1  0.42719544  0.95450332  0.54837469  1
  Te  Te116  1  0.41702182  0.91036068  0.94439374  1
  Te  Te117  1  0.71305827  0.18981419  0.23330846  1
  Te  Te118  1  0.78992138  0.26830460  0.56246663  1
  Te  Te119  1  0.75296337  0.23263259  0.92039728  1
  Te  Te120  1  0.76827115  0.57424009  0.26280956  1
  Te  Te121  1  0.73737162  0.56517242  0.56418692  1
  Te  Te122  1  0.76109988  0.59383064  0.91109012  1
  Te  Te123  1  0.75010886  0.91962031  0.27095495  1
  Te  Te124  1  0.77365407  0.88833497  0.58276034  1
  Te  Te125  1  0.73701311  0.91204134  0.91899376  1
  Te  Te126  1  0.27580293  0.22724722  0.11122086  1
  Te  Te127  1  0.23957798  0.23451199  0.41194989  1
  Te  Te128  1  0.24559465  0.25789782  0.76261178  1
  Te  Te129  1  0.24896115  0.60821892  0.09911534  1
  Te  Te130  1  0.24926311  0.60446635  0.35495566  1
  Te  Te131  1  0.24971104  0.58762429  0.75786234  1
  Te  Te132  1  0.24284891  0.92417296  0.12033841  1
  Te  Te133  1  0.24215524  0.93807691  0.39654261  1
  Te  Te134  1  0.28573653  0.93476714  0.72968856  1
  Te  Te135  1  0.57341921  0.24605282  0.08136000  1
  Te  Te136  1  0.61654245  0.24962718  0.42004921  1
  Te  Te137  1  0.59570145  0.22298808  0.75154292  1
  Te  Te138  1  0.57385106  0.56985594  0.11267102  1
  Te  Te139  1  0.58118374  0.56229038  0.42283049  1
  Te  Te140  1  0.58509845  0.59598502  0.74597664  1
  Te  Te141  1  0.57365814  0.91522493  0.07510461  1
  Te  Te142  1  0.60052411  0.94668960  0.41495693  1
  Te  Te143  1  0.58224244  0.92010109  0.73187817  1
  Te  Te144  1  0.92013897  0.24638125  0.11829484  1
  Te  Te145  1  0.88608473  0.23168425  0.37444846  1
  Te  Te146  1  0.92913450  0.25404236  0.74077904  1
  Te  Te147  1  0.87104121  0.56144046  0.08784043  1
  Te  Te148  1  0.91921069  0.58127390  0.41549110  1
  Te  Te149  1  0.90354703  0.58729700  0.73874848  1
  Te  Te150  1  0.90554233  0.92031914  0.09443705  1
  Te  Te151  1  0.94437615  0.96002725  0.41367240  1
  Te  Te152  1  0.93535048  0.92489535  0.74233656  1
  Te  Te153  1  0.21535000  0.12393445  0.25864266  1
  Te  Te154  1  0.25433937  0.09649576  0.58511911  1
  Te  Te155  1  0.25659185  0.06185516  0.93010107  1
  Te  Te156  1  0.21875588  0.41697679  0.25462474  1
  Te  Te157  1  0.25093492  0.41967797  0.56686862  1
  Te  Te158  1  0.24464292  0.43282981  0.91790564  1
  Te  Te159  1  0.28089923  0.80129785  0.21387397  1
  Te  Te160  1  0.24301538  0.74756923  0.58331146  1
  Te  Te161  1  0.25666204  0.74104001  0.92290620  1
  Te  Te162  1  0.58767157  0.08192514  0.23579319  1
  Te  Te163  1  0.62670298  0.08521550  0.55296852  1
  Te  Te164  1  0.59032134  0.08181919  0.90752200  1
  Te  Te165  1  0.62778410  0.39822974  0.26430217  1
  Te  Te166  1  0.57851892  0.40859439  0.58386585  1
  Te  Te167  1  0.59854136  0.40739423  0.92289159  1
  Te  Te168  1  0.56035921  0.75529345  0.25342752  1
  Te  Te169  1  0.58367780  0.74357596  0.59347753  1
  Te  Te170  1  0.58718420  0.75134439  0.94504257  1
  Te  Te171  1  0.93755508  0.08568756  0.29163933  1
  Te  Te172  1  0.88985294  0.05394103  0.54654952  1
  Te  Te173  1  0.92748979  0.08188770  0.92399051  1
  Te  Te174  1  0.91926722  0.41082082  0.25504055  1
  Te  Te175  1  0.91434971  0.40965392  0.54308938  1
  Te  Te176  1  0.92585831  0.41749031  0.89752153  1
  Te  Te177  1  0.90461122  0.75471271  0.24621079  1
  Te  Te178  1  0.90585576  0.77566727  0.55913856  1
  Te  Te179  1  0.91863678  0.74141353  0.93220635  1
