# generated using pymatgen
data_In2Te3
_symmetry_space_group_name_H-M   'P 1'
_cell_length_a   19.00291015
_cell_length_b   19.00518701
_cell_length_c   19.00039064
_cell_angle_alpha   90.11671133
_cell_angle_beta   90.09937371
_cell_angle_gamma   89.72083899
_symmetry_Int_Tables_number   1
_chemical_formula_structural   In2Te3
_chemical_formula_sum   'In72 Te108'
_cell_volume   6861.95855397
_cell_formula_units_Z   36
loop_
 _symmetry_equiv_pos_site_id
 _symmetry_equiv_pos_as_xyz
  1  'x, y, z'
loop_
 _atom_site_type_symbol
 _atom_site_label
 _atom_site_symmetry_multiplicity
 _atom_site_fract_x
 _atom_site_fract_y
 _atom_site_fract_z
 _atom_site_occupancy
  In  In0  1  0.31817218  0.83189431  0.82761752  1
  In  In1  1  0.50550668  0.66362313  0.83159539  1
  In  In2  1  0.13878396  0.69392995  0.15197232  1
  In  In3  1  0.83436512  0.85756237  0.34918960  1
  In  In4  1  0.68227405  -0.00123803  0.68005464  1
  In  In5  1  0.66178442  0.65749838  0.67060103  1
  In  In6  1  0.50016838  0.00065757  0.83164620  1
  In  In7  1  0.34915816  0.33601042  0.64335885  1
  In  In8  1  0.19052338  0.32337423  0.50048706  1
  In  In9  1  0.15579700  0.16568863  0.01852537  1
  In  In10  1  0.50828744  0.33395357  0.48473326  1
  In  In11  1  0.34933826  0.15546227  0.18135936  1
  In  In12  1  0.00055021  0.00306223  0.66265909  1
  In  In13  1  0.52264763  0.65056789  0.15321585  1
  In  In14  1  0.67307586  0.81986432  0.82700124  1
  In  In15  1  0.34579987  0.02113260  0.35512195  1
  In  In16  1  0.15710288  0.16543256  0.67422549  1
  In  In17  1  0.66997078  0.32888651  0.01369848  1
  In  In18  1  0.03449317  0.49241744  0.05033907  1
  In  In19  1  0.50927968  0.30585447  0.16629024  1
  In  In20  1  0.83396229  0.47339185  0.34443698  1
  In  In21  1  0.33224804  0.68723682  -0.03013556  1
  In  In22  1  0.85788644  0.37136712  0.84846766  1
  In  In23  1  0.83155240  0.29420543  0.17479040  1
  In  In24  1  0.01713232  0.14916672  0.47730356  1
  In  In25  1  0.69125461  -0.00023247  0.02726342  1
  In  In26  1  0.84983429  0.68202459  0.51913474  1
  In  In27  1  0.00288032  0.52903575  0.50295207  1
  In  In28  1  -0.00953621  0.34847953  0.68163827  1
  In  In29  1  0.25510747  0.47887410  0.13248787  1
  In  In30  1  0.64976002  0.84884431  0.49034065  1
  In  In31  1  -0.00162361  0.68508013  0.69214535  1
  In  In32  1  0.17544079  0.15608861  0.33622463  1
  In  In33  1  0.32978834  0.00600779  0.63284151  1
  In  In34  1  0.14698306  0.00231653  0.48540410  1
  In  In35  1  0.66830696  0.81624158  0.15546992  1
  In  In36  1  0.16472782  0.67047788  0.50638655  1
  In  In37  1  0.01196677  0.93416377  0.15507647  1
  In  In38  1  0.12642944  0.32121271  0.84619458  1
  In  In39  1  0.47649030  0.48643907  0.32467794  1
  In  In40  1  0.65727658  0.66167224  0.32141060  1
  In  In41  1  0.30784039  0.48913050  0.81795302  1
  In  In42  1  -0.00964875  0.14772698  0.16875592  1
  In  In43  1  0.83349824  0.50575313  0.67624809  1
  In  In44  1  0.65215930  0.00464886  0.34642042  1
  In  In45  1  0.51485507  0.16022223  0.66202222  1
  In  In46  1  0.34635038  0.33263784  -0.01091852  1
  In  In47  1  0.86090209  0.01977576  0.86249643  1
  In  In48  1  0.48616147  0.65734424  0.50386321  1
  In  In49  1  0.51318061  0.50720079  0.01533286  1
  In  In50  1  0.65620729  0.48009155  0.14669510  1
  In  In51  1  0.50327655  0.32914740  0.83761036  1
  In  In52  1  0.82627686  0.00473226  0.51058453  1
  In  In53  1  0.33813344  0.65017106  0.67451874  1
  In  In54  1  0.33790538  0.82046032  0.16176732  1
  In  In55  1  0.01724343  0.69503195  0.32796987  1
  In  In56  1  0.66969445  0.45936596  0.49549182  1
  In  In57  1  0.65935230  0.17648646  0.49393838  1
  In  In58  1  0.01353854  0.32187416  0.33101881  1
  In  In59  1  0.50958145  -0.00402698  0.17482867  1
  In  In60  1  0.81816242  0.64902348  0.85248543  1
  In  In61  1  0.34116121  0.83306982  0.50154136  1
  In  In62  1  0.84066716  0.30259935  0.49468794  1
  In  In63  1  0.69078252  0.15921625  0.85890881  1
  In  In64  1  0.31750493  -0.00438528  0.00458864  1
  In  In65  1  0.34941943  0.20670440  0.84328619  1
  In  In66  1  0.15299033  0.00158392  0.84149789  1
  In  In67  1  0.82460161  0.67488586  0.15896897  1
  In  In68  1  0.16858202  0.51225218  0.32069822  1
  In  In69  1  -0.00402546  0.68341580  -0.00247913  1
  In  In70  1  0.31353635  0.66449332  0.32212160  1
  In  In71  1  0.00627843  0.84389239  0.83386025  1
  Te  Te72  1  0.09042389  0.05677555  0.09896189  1
  Te  Te73  1  0.05841990  0.05468300  0.35968582  1
  Te  Te74  1  0.06054689  0.09853630  0.76573838  1
  Te  Te75  1  0.13112325  0.40383540  0.11637092  1
  Te  Te76  1  0.08131327  0.42579418  0.42029319  1
  Te  Te77  1  0.09308143  0.42467204  0.74910369  1
  Te  Te78  1  0.03954402  0.79038501  0.09553969  1
  Te  Te79  1  0.08194826  0.76797213  0.43485670  1
  Te  Te80  1  0.10187130  0.75010425  0.77295820  1
  Te  Te81  1  0.42382622  0.07528420  0.07672147  1
  Te  Te82  1  0.39057350  0.09693238  0.47200667  1
  Te  Te83  1  0.40490049  0.09224308  0.75160952  1
  Te  Te84  1  0.42335494  0.41303179  0.09358330  1
  Te  Te85  1  0.40139759  0.41471545  0.42561963  1
  Te  Te86  1  0.42353438  0.41859130  0.74640412  1
  Te  Te87  1  0.43071003  0.74259830  0.07041385  1
  Te  Te88  1  0.41497077  0.74335741  0.40227162  1
  Te  Te89  1  0.42135376  0.75557923  0.74585762  1
  Te  Te90  1  0.80175158  0.09600563  0.06731346  1
  Te  Te91  1  0.75721009  0.09228791  0.40959143  1
  Te  Te92  1  0.77507199  0.09114060  0.75294951  1
  Te  Te93  1  0.77428891  0.41077123  0.08581406  1
  Te  Te94  1  0.74042781  0.36911106  0.39621537  1
  Te  Te95  1  0.75279899  0.41395346  0.75298548  1
  Te  Te96  1  0.77105998  0.76991597  0.06234468  1
  Te  Te97  1  0.74418610  0.74389490  0.41475343  1
  Te  Te98  1  0.76710577  0.74014300  0.73831755  1
  Te  Te99  1  0.09659507  0.23922399  0.23760254  1
  Te  Te100  1  0.07031904  0.25309018  0.57600795  1
  Te  Te101  1  0.05220713  0.22536242  0.92965695  1
  Te  Te102  1  0.06841805  0.58740637  0.23554747  1
  Te  Te103  1  0.08915830  0.58813184  0.60811591  1
  Te  Te104  1  0.07233413  0.57284876  0.93207731  1
  Te  Te105  1  0.04103458  0.91656766  0.29809534  1
  Te  Te106  1  0.10503675  0.92287590  0.59991843  1
  Te  Te107  1  0.05453655  0.94429621  0.93074786  1
  Te  Te108  1  0.43870539  0.23015091  0.27215145  1
  Te  Te109  1  0.41187856  0.21987885  0.56715664  1
  Te  Te110  1  0.45555952  0.23581713  0.94601501  1
  Te  Te111  1  0.41005367  0.58634747  0.23327168  1
  Te  Te112  1  0.42188883  0.56302462  0.59166060  1
  Te  Te113  1  0.40734025  0.56209152  0.91939123  1
  Te  Te114  1  0.40749454  0.91904332  0.25343612  1
  Te  Te115  1  0.43237665  0.91888843  0.57835599  1
  Te  Te116  1  0.41156806  0.91340824  0.91677778  1
  Te  Te117  1  0.71088269  0.22256875  0.21835816  1
  Te  Te118  1  0.74127118  0.25336158  0.58793648  1
  Te  Te119  1  0.77379367  0.26438288  0.92509293  1
  Te  Te120  1  0.74770493  0.56513677  0.24723661  1
  Te  Te121  1  0.74911770  0.57754153  0.56026555  1
  Te  Te122  1  0.71808055  0.57454565  0.92496155  1
  Te  Te123  1  0.73259272  0.91331826  0.25392739  1
  Te  Te124  1  0.75318847  0.89882758  0.58882704  1
  Te  Te125  1  0.74904274  0.92801752  0.90632629  1
  Te  Te126  1  0.26935341  0.24122457  0.08398135  1
  Te  Te127  1  0.26498972  0.25519057  0.39574754  1
  Te  Te128  1  0.24878777  0.26423992  0.74342682  1
  Te  Te129  1  0.24146044  0.61513563  0.07183874  1
  Te  Te130  1  0.25423825  0.57614703  0.42847182  1
  Te  Te131  1  0.23975208  0.61155063  0.77709504  1
  Te  Te132  1  0.24126431  0.88874648  0.07119460  1
  Te  Te133  1  0.25084186  0.91829666  0.41350460  1
  Te  Te134  1  0.24677558  0.93570065  0.74262444  1
  Te  Te135  1  0.61420580  0.21811635  0.09811785  1
  Te  Te136  1  0.56068763  0.22799263  0.39610705  1
  Te  Te137  1  0.59677726  0.23654185  0.76203463  1
  Te  Te138  1  0.63320959  0.60508497  0.05189420  1
  Te  Te139  1  0.58254571  0.56717254  0.41261273  1
  Te  Te140  1  0.59379152  0.56854085  0.76217336  1
  Te  Te141  1  0.57907023  0.90778104  0.07293289  1
  Te  Te142  1  0.55054251  0.92647939  0.41674864  1
  Te  Te143  1  0.57955473  0.90818839  0.74247878  1
  Te  Te144  1  0.94117701  0.25806132  0.08245736  1
  Te  Te145  1  0.91542350  0.22337276  0.38896605  1
  Te  Te146  1  0.90478490  0.26249424  0.75952278  1
  Te  Te147  1  0.90891739  0.58482442  0.07339717  1
  Te  Te148  1  0.91087734  0.59436520  0.39902477  1
  Te  Te149  1  0.92501132  0.57806976  0.76984677  1
  Te  Te150  1  0.87561143  0.95387722  0.09864089  1
  Te  Te151  1  0.92965493  0.92650096  0.43673008  1
  Te  Te152  1  0.90790896  0.92402055  0.75026293  1
  Te  Te153  1  0.24971359  0.06129698  0.24265041  1
  Te  Te154  1  0.23596397  0.10251922  0.56115324  1
  Te  Te155  1  0.25356576  0.10401044  0.90880519  1
  Te  Te156  1  0.25543148  0.40961038  0.26264242  1
  Te  Te157  1  0.23859996  0.42119617  0.59643631  1
  Te  Te158  1  0.23309576  0.40613760  0.91924735  1
  Te  Te159  1  0.22566281  0.76569811  0.25356162  1
  Te  Te160  1  0.25569381  0.75230338  0.59471254  1
  Te  Te161  1  0.22656648  0.78555841  0.93530043  1
  Te  Te162  1  0.61212571  0.08976979  0.22894361  1
  Te  Te163  1  0.59404337  0.06485253  0.57626697  1
  Te  Te164  1  0.59194691  0.07034029  0.92931083  1
  Te  Te165  1  0.58464171  0.40519859  0.25428894  1
  Te  Te166  1  0.58737332  0.39195016  0.59342790  1
  Te  Te167  1  0.59313377  0.41983832  0.91948920  1
  Te  Te168  1  0.56477247  0.75761496  0.25264477  1
  Te  Te169  1  0.57950625  0.74740326  0.58120702  1
  Te  Te170  1  0.57921569  0.75543352  0.91739192  1
  Te  Te171  1  0.87684204  0.05829126  0.20922312  1
  Te  Te172  1  0.91814976  0.10172870  0.58206604  1
  Te  Te173  1  0.91236860  0.11407104  0.96477480  1
  Te  Te174  1  0.92222306  0.40618402  0.24428475  1
  Te  Te175  1  0.90867059  0.42535686  0.56138771  1
  Te  Te176  1  0.96892656  0.43771771  0.92234251  1
  Te  Te177  1  0.90555346  0.76396633  0.25254340  1
  Te  Te178  1  0.94657117  0.76828274  0.58185029  1
  Te  Te179  1  0.90233493  0.76189534  0.91004616  1
