# generated using pymatgen
data_In2Te3
_symmetry_space_group_name_H-M   'P 1'
_cell_length_a   18.91302476
_cell_length_b   18.90913042
_cell_length_c   18.92149902
_cell_angle_alpha   89.99684299
_cell_angle_beta   90.05198866
_cell_angle_gamma   89.97329172
_symmetry_Int_Tables_number   1
_chemical_formula_structural   In2Te3
_chemical_formula_sum   'In72 Te108'
_cell_volume   6766.87043909
_cell_formula_units_Z   36
loop_
 _symmetry_equiv_pos_site_id
 _symmetry_equiv_pos_as_xyz
  1  'x, y, z'
loop_
 _atom_site_type_symbol
 _atom_site_label
 _atom_site_symmetry_multiplicity
 _atom_site_fract_x
 _atom_site_fract_y
 _atom_site_fract_z
 _atom_site_occupancy
  In  In0  1  0.51880635  0.35524787  0.14787249  1
  In  In1  1  0.00314797  0.00414797  0.64382246  1
  In  In2  1  0.82620290  0.67055424  0.81831177  1
  In  In3  1  0.81695153  0.51584397  0.64917239  1
  In  In4  1  0.01194504  0.49724995  0.18782137  1
  In  In5  1  0.67975747  0.00442945  0.34083334  1
  In  In6  1  0.36043567  0.35951408  0.36291617  1
  In  In7  1  0.86419659  0.31120659  0.47751223  1
  In  In8  1  0.31112784  0.82242269  0.48217351  1
  In  In9  1  0.66406131  0.51438420  0.82688601  1
  In  In10  1  0.47829273  0.65718004  0.18196984  1
  In  In11  1  0.05274672  0.82931730  0.18386081  1
  In  In12  1  0.31964621  0.83358575  0.82396442  1
  In  In13  1  0.00396795  0.66827869  0.64363110  1
  In  In14  1  0.68955617  0.16652747  0.51823857  1
  In  In15  1  0.16699651  0.34208877  0.86084153  1
  In  In16  1  0.84884422  -0.02010659  0.49789216  1
  In  In17  1  0.66701865  0.66950010  -0.01831135  1
  In  In18  1  0.69298943  0.75200999  0.49678479  1
  In  In19  1  0.66297050  0.17176282  0.83654611  1
  In  In20  1  0.15493952  0.82046498  0.00593291  1
  In  In21  1  0.68407716  0.50348400  0.17445311  1
  In  In22  1  -0.01239677  0.81392312  0.82793970  1
  In  In23  1  0.67324006  0.00359509  0.67177498  1
  In  In24  1  0.34833008  0.64989925  0.63347478  1
  In  In25  1  0.51642541  0.16970420  0.32884745  1
  In  In26  1  0.31082157  0.16434734  0.52555161  1
  In  In27  1  0.18371185  0.32173374  0.17345719  1
  In  In28  1  0.85310062  0.34434706  0.84108273  1
  In  In29  1  0.84561137  0.51009320  0.32899964  1
  In  In30  1  0.81966357  0.00565923  0.85126614  1
  In  In31  1  0.50742107  0.83041677  0.63618928  1
  In  In32  1  0.31693152  0.69443975  0.05753916  1
  In  In33  1  0.65329136  0.52727679  0.48764957  1
  In  In34  1  0.50986177  0.66208828  0.83560038  1
  In  In35  1  0.02321049  0.14206630  0.18066952  1
  In  In36  1  0.85021081  0.66011047  0.17625089  1
  In  In37  1  0.65093898  0.83814484  0.17422088  1
  In  In38  1  0.19776168  0.52112251  0.34307308  1
  In  In39  1  0.01535540  0.32119769  0.68110109  1
  In  In40  1  0.16004897  0.33451016  0.50879590  1
  In  In41  1  0.82723623  0.16196449  0.00513206  1
  In  In42  1  0.47888751  0.82373740  0.34602130  1
  In  In43  1  0.50689893  0.37257169  0.49747998  1
  In  In44  1  0.80999762  0.82729568  0.66958798  1
  In  In45  1  0.33785510  0.17920307  0.83257370  1
  In  In46  1  0.33129701  0.48805154  0.83413007  1
  In  In47  1  0.17666276  0.15382478  0.66029499  1
  In  In48  1  0.16726058  0.49969097  0.65427320  1
  In  In49  1  0.33227394  -0.02033877  0.33056388  1
  In  In50  1  0.82418816  0.84059738  -0.01517939  1
  In  In51  1  0.32821226  0.00584849  0.00066977  1
  In  In52  1  -0.00255593  0.33275621  -0.00055762  1
  In  In53  1  0.00632924  0.50102526  0.49356779  1
  In  In54  1  0.49026754  0.50274389  -0.00438222  1
  In  In55  1  0.83407229  0.34521034  0.17544615  1
  In  In56  1  0.46184342  -0.03189778  0.18827808  1
  In  In57  1  0.17207286  -0.00455915  0.82572276  1
  In  In58  1  0.68028083  0.17772343  0.16421509  1
  In  In59  1  0.02295662  0.65228457  0.33521602  1
  In  In60  1  -0.00180976  0.00785997  0.02259175  1
  In  In61  1  0.83251358  0.01826888  0.17863015  1
  In  In62  1  0.67772722  0.34536851  0.31447592  1
  In  In63  1  0.34666758  0.36653406  0.66435705  1
  In  In64  1  0.49924278  0.32827402  0.82970290  1
  In  In65  1  0.32737538  0.17563244  0.16640501  1
  In  In66  1  0.48513609  0.01504177  0.82217331  1
  In  In67  1  0.48210465  -0.00932097  0.49296923  1
  In  In68  1  0.02112181  0.83277814  0.47913354  1
  In  In69  1  0.48721711  0.16636145  0.68985775  1
  In  In70  1  0.14995491  0.13843678  0.35746015  1
  In  In71  1  0.13973921  0.62813810  0.85988228  1
  Te  Te72  1  0.11288095  0.06342372  0.09447794  1
  Te  Te73  1  0.02910440  0.07701090  0.41359253  1
  Te  Te74  1  0.07570258  0.08729167  0.75102584  1
  Te  Te75  1  0.09137429  0.41064994  0.09113001  1
  Te  Te76  1  0.09504349  0.42155587  0.40116107  1
  Te  Te77  1  0.08662600  0.42957831  0.75960191  1
  Te  Te78  1  0.05113867  0.73851439  0.06828169  1
  Te  Te79  1  0.11435353  0.73431737  0.41670070  1
  Te  Te80  1  0.08845450  0.72843922  0.75570956  1
  Te  Te81  1  0.42273680  0.08285378  0.09383265  1
  Te  Te82  1  0.40895334  0.09720920  0.41026402  1
  Te  Te83  1  0.37678593  0.07191612  0.73076768  1
  Te  Te84  1  0.40850858  0.43684710  0.09737773  1
  Te  Te85  1  0.42551754  0.48598947  0.42357468  1
  Te  Te86  1  0.44679975  0.44442761  0.74573700  1
  Te  Te87  1  0.44771381  0.75683682  0.07534191  1
  Te  Te88  1  0.41593973  0.72290724  0.43563166  1
  Te  Te89  1  0.41895953  0.74995866  0.73934865  1
  Te  Te90  1  0.73306719  0.06488121  0.07295356  1
  Te  Te91  1  0.77434603  0.09398603  0.41616254  1
  Te  Te92  1  0.76204796  0.10022870  0.74512779  1
  Te  Te93  1  0.74290899  0.40829606  0.08020180  1
  Te  Te94  1  0.75804996  0.42088147  0.42139593  1
  Te  Te95  1  0.75532969  0.41995170  0.74911660  1
  Te  Te96  1  0.75143773  0.74577920  0.09276860  1
  Te  Te97  1  0.76086890  0.72950044  0.37140756  1
  Te  Te98  1  0.71725243  0.74300957  0.74890111  1
  Te  Te99  1  0.09044276  0.24719197  0.26709531  1
  Te  Te100  1  0.07300163  0.22904221  0.57201144  1
  Te  Te101  1  0.07720639  0.24132469  0.91720028  1
  Te  Te102  1  0.11980383  0.59977325  0.22461878  1
  Te  Te103  1  0.10620587  0.59770249  0.55451510  1
  Te  Te104  1  0.05007943  0.55174065  0.94299046  1
  Te  Te105  1  0.11939713  0.91192414  0.28890957  1
  Te  Te106  1  0.08767657  0.89456916  0.59758065  1
  Te  Te107  1  0.06743066  0.91441838  0.91229392  1
  Te  Te108  1  0.42546895  0.26489898  0.25454840  1
  Te  Te109  1  0.42564034  0.26020877  0.57617173  1
  Te  Te110  1  0.41032233  0.26438117  0.92632695  1
  Te  Te111  1  0.34120023  0.62496671  0.23419230  1
  Te  Te112  1  0.42273170  0.53968287  0.57185138  1
  Te  Te113  1  0.40140236  0.59832097  0.92057885  1
  Te  Te114  1  0.36850502  0.85485583  0.24610398  1
  Te  Te115  1  0.39231422  0.91298839  0.58281993  1
  Te  Te116  1  0.41208455  0.91535976  0.91214405  1
  Te  Te117  1  0.77413726  0.23686014  0.26682744  1
  Te  Te118  1  0.77505328  0.26463809  0.58405889  1
  Te  Te119  1  0.75059942  0.26185396  0.92263471  1
  Te  Te120  1  0.73680291  0.60677303  0.27982848  1
  Te  Te121  1  0.74956937  0.61941354  0.56074811  1
  Te  Te122  1  0.76727693  0.57357897  0.92145000  1
  Te  Te123  1  0.75957560  0.90730321  0.25617370  1
  Te  Te124  1  0.72417305  0.90572410  0.56768819  1
  Te  Te125  1  0.72239635  0.91302525  0.90860496  1
  Te  Te126  1  0.25321758  0.25022525  0.06509940  1
  Te  Te127  1  0.25542184  0.25560816  0.41331664  1
  Te  Te128  1  0.25202470  0.27051353  0.73462625  1
  Te  Te129  1  0.23296195  0.58982031  0.11273546  1
  Te  Te130  1  0.27783245  0.64153637  0.37568505  1
  Te  Te131  1  0.25141068  0.58637708  0.74771002  1
  Te  Te132  1  0.24343640  0.91407773  0.08413681  1
  Te  Te133  1  0.22239491  0.92778994  0.41741810  1
  Te  Te134  1  0.22729350  0.89921815  0.73026940  1
  Te  Te135  1  0.58973487  0.25012788  0.07567722  1
  Te  Te136  1  0.59617880  0.25941798  0.42100360  1
  Te  Te137  1  0.59545243  0.26108346  0.73131892  1
  Te  Te138  1  0.58812060  0.58657112  0.08902945  1
  Te  Te139  1  0.55940942  0.55886327  0.37879995  1
  Te  Te140  1  0.60387702  0.61132867  0.73250621  1
  Te  Te141  1  0.55735184  0.91435671  0.08984137  1
  Te  Te142  1  0.58384671  0.91210252  0.41499835  1
  Te  Te143  1  0.57337983  0.91737911  0.74403446  1
  Te  Te144  1  0.92060458  0.23478175  0.10167718  1
  Te  Te145  1  0.96793928  0.21995777  0.42916924  1
  Te  Te146  1  0.92733751  0.24199234  0.76622179  1
  Te  Te147  1  0.90277163  0.54650205  0.10089647  1
  Te  Te148  1  0.91190494  0.60118624  0.43079581  1
  Te  Te149  1  0.92161519  0.58251533  0.73786638  1
  Te  Te150  1  0.90581471  0.91109082  0.09175626  1
  Te  Te151  1  0.91549028  0.89716096  0.39736390  1
  Te  Te152  1  0.90348891  0.91618947  0.75186019  1
  Te  Te153  1  0.24718772  0.08028823  0.25489627  1
  Te  Te154  1  0.21709448  0.05606446  0.55533891  1
  Te  Te155  1  0.24052493  0.09695282  0.91542021  1
  Te  Te156  1  0.27095112  0.41882986  0.25558626  1
  Te  Te157  1  0.26518566  0.43631612  0.55627855  1
  Te  Te158  1  0.24968285  0.43224870  0.94122669  1
  Te  Te159  1  0.20354448  0.81042172  0.21663789  1
  Te  Te160  1  0.24390464  0.74073582  0.58618496  1
  Te  Te161  1  0.24394827  0.73532538  0.91487576  1
  Te  Te162  1  0.58471355  0.06883647  0.24023212  1
  Te  Te163  1  0.56792120  0.08465874  0.57981265  1
  Te  Te164  1  0.56453740  0.09660045  0.91388437  1
  Te  Te165  1  0.56872321  0.44212450  0.26703847  1
  Te  Te166  1  0.60653432  0.42916002  0.58709103  1
  Te  Te167  1  0.58734489  0.41822032  0.91689398  1
  Te  Te168  1  0.57699661  0.74115084  0.26442509  1
  Te  Te169  1  0.55641981  0.72386766  0.54584209  1
  Te  Te170  1  0.57601318  0.76452445  0.91913120  1
  Te  Te171  1  0.94433949  0.05305656  0.27184153  1
  Te  Te172  1  0.89224089  0.08389388  0.59198684  1
  Te  Te173  1  0.92735096  0.09015700  0.91671283  1
  Te  Te174  1  0.93351463  0.39910133  0.27624098  1
  Te  Te175  1  0.92628554  0.41587597  0.58879102  1
  Te  Te176  1  0.94141352  0.44377929  0.91277994  1
  Te  Te177  1  0.93868298  0.75130508  0.25598289  1
  Te  Te178  1  0.91333589  0.76816144  0.57669315  1
  Te  Te179  1  0.91364894  0.73026311  0.93016446  1
