# generated using pymatgen
data_In2Te3
_symmetry_space_group_name_H-M   'P 1'
_cell_length_a   19.02715291
_cell_length_b   18.95977029
_cell_length_c   18.96562627
_cell_angle_alpha   89.91213727
_cell_angle_beta   89.93775006
_cell_angle_gamma   89.98009324
_symmetry_Int_Tables_number   1
_chemical_formula_structural   In2Te3
_chemical_formula_sum   'In72 Te108'
_cell_volume   6841.84568916
_cell_formula_units_Z   36
loop_
 _symmetry_equiv_pos_site_id
 _symmetry_equiv_pos_as_xyz
  1  'x, y, z'
loop_
 _atom_site_type_symbol
 _atom_site_label
 _atom_site_symmetry_multiplicity
 _atom_site_fract_x
 _atom_site_fract_y
 _atom_site_fract_z
 _atom_site_occupancy
  In  In0  1  0.17286883  0.36954077  0.19966557  1
  In  In1  1  -0.02704210  0.78941876  0.84463653  1
  In  In2  1  0.02568158  -0.01163980  0.33665981  1
  In  In3  1  0.65333909  -0.02920519  0.66029709  1
  In  In4  1  0.17520275  0.65573000  0.46942274  1
  In  In5  1  -0.01744048  0.64282835  0.68376045  1
  In  In6  1  0.66104631  0.34322701  -0.00217580  1
  In  In7  1  -0.00157093  0.51450752  0.46917998  1
  In  In8  1  0.14530930  0.84197708  0.00390264  1
  In  In9  1  0.51072123  -0.01936664  0.13988591  1
  In  In10  1  0.64953697  0.34141096  0.70643888  1
  In  In11  1  0.64554233  0.17351333  0.83574540  1
  In  In12  1  -0.01646747  0.15832330  0.14640800  1
  In  In13  1  -0.01803126  -0.00183917  0.68095056  1
  In  In14  1  0.52806184  0.33082641  0.49620363  1
  In  In15  1  0.76472194  -0.05700393  0.48733398  1
  In  In16  1  -0.01552972  0.18496338  0.53082159  1
  In  In17  1  0.66512049  0.13994663  0.50859645  1
  In  In18  1  0.34242197  0.38239382  0.01415517  1
  In  In19  1  0.34985756  0.84942417  0.83193440  1
  In  In20  1  0.16314667  0.33299212  0.83937630  1
  In  In21  1  0.66368469  0.51195531  0.82012834  1
  In  In22  1  0.32534181  0.17098437  0.85308860  1
  In  In23  1  0.35759727  0.18676558  0.48579916  1
  In  In24  1  0.63861166  -0.01393451  0.33860410  1
  In  In25  1  0.36146982  0.50345410  0.50231421  1
  In  In26  1  0.35825607  0.21962374  0.14500337  1
  In  In27  1  0.83700858  0.33922448  0.52170135  1
  In  In28  1  0.17668243  0.36365735  0.51407748  1
  In  In29  1  -0.01407819  0.67331079  0.30777635  1
  In  In30  1  0.17530833  0.67771660  0.81739459  1
  In  In31  1  0.81761205  0.81736793  0.32325787  1
  In  In32  1  0.34672891  0.80860525  0.15236092  1
  In  In33  1  -0.01528971  0.34318114  0.01408848  1
  In  In34  1  0.34877956  0.64995707  -0.02565606  1
  In  In35  1  0.49165205  0.50371576  0.66986795  1
  In  In36  1  0.79419892  0.38249262  0.87704492  1
  In  In37  1  0.32518019  -0.01390562  -0.01126419  1
  In  In38  1  0.69380830  -0.01237877  0.01148074  1
  In  In39  1  0.14912074  0.52152324  -0.01106652  1
  In  In40  1  0.15021033  0.66432542  0.16516683  1
  In  In41  1  0.19508252  0.01250686  0.50753161  1
  In  In42  1  0.17709702  0.15449205  0.01083124  1
  In  In43  1  0.00660760  0.35535373  0.65477422  1
  In  In44  1  -0.03783398  0.33438815  0.31395908  1
  In  In45  1  0.81635338  0.54684178  0.03821319  1
  In  In46  1  0.16167604  0.20348703  0.35538212  1
  In  In47  1  0.17740323  0.50205315  0.67853770  1
  In  In48  1  0.50977529  0.66923272  0.82670601  1
  In  In49  1  0.64562974  0.68957808  0.30899005  1
  In  In50  1  0.69599930  0.53679704  0.50961703  1
  In  In51  1  0.35502667  0.81710365  0.49050174  1
  In  In52  1  -0.02676892  0.82494152  0.52030738  1
  In  In53  1  0.83978247  0.17102565  0.68560632  1
  In  In54  1  0.16063196  0.84158376  0.31837203  1
  In  In55  1  0.51998739  0.35679653  0.15723860  1
  In  In56  1  0.15727098  0.00722971  0.20113741  1
  In  In57  1  0.50143705  0.17212972  0.33228076  1
  In  In58  1  0.83211512  0.49466419  0.32371293  1
  In  In59  1  0.33694111  0.01078069  0.68361512  1
  In  In60  1  -0.00723275  0.14851173  0.83029885  1
  In  In61  1  0.18612030  0.82872501  0.63424280  1
  In  In62  1  0.35199436  0.01619139  0.30949964  1
  In  In63  1  0.83209490  -0.01747388  0.83143619  1
  In  In64  1  0.35656448  0.64518315  0.34643734  1
  In  In65  1  0.68041918  0.79286029  0.81532965  1
  In  In66  1  0.52665926  0.51206610  0.30052479  1
  In  In67  1  0.50037270  0.15953580  -0.00595641  1
  In  In68  1  -0.03995771  -0.04116331  0.00021728  1
  In  In69  1  0.50660433  0.81955059  0.66212105  1
  In  In70  1  0.83252656  -0.02002536  0.18242229  1
  In  In71  1  0.79069593  0.18236395  0.22526241  1
  Te  Te72  1  0.07591564  0.05908051  0.07667367  1
  Te  Te73  1  0.08266555  0.09900029  0.43265806  1
  Te  Te74  1  0.08237587  0.09023878  0.73139790  1
  Te  Te75  1  0.08367517  0.42856690  0.08993424  1
  Te  Te76  1  0.06626064  0.39261090  0.41341592  1
  Te  Te77  1  0.07412352  0.43284740  0.76548228  1
  Te  Te78  1  0.06202332  0.73603899  0.06791980  1
  Te  Te79  1  0.07781911  0.76138879  0.41978622  1
  Te  Te80  1  0.08067272  0.75754193  0.71880980  1
  Te  Te81  1  0.39398904  0.08492697  0.08956058  1
  Te  Te82  1  0.43537639  0.06941657  0.42292374  1
  Te  Te83  1  0.41655655  0.07758443  0.78514014  1
  Te  Te84  1  0.45916121  0.45368393  0.06477674  1
  Te  Te85  1  0.45165355  0.42660421  0.40919089  1
  Te  Te86  1  0.45448802  0.43551615  0.79539050  1
  Te  Te87  1  0.43678923  0.72396192  0.07059649  1
  Te  Te88  1  0.44400531  0.75123610  0.39680848  1
  Te  Te89  1  0.40352751  0.74152852  0.74326766  1
  Te  Te90  1  0.75568078  0.08678143  0.10813187  1
  Te  Te91  1  0.74920264  0.06848957  0.40374918  1
  Te  Te92  1  0.74164081  0.07478551  0.75018300  1
  Te  Te93  1  0.74628008  0.42103089  0.09289522  1
  Te  Te94  1  0.74997590  0.41984819  0.42752582  1
  Te  Te95  1  0.76898082  0.42922087  0.73766337  1
  Te  Te96  1  0.73295354  0.66030960  0.10296922  1
  Te  Te97  1  0.72514626  0.75366911  0.42090938  1
  Te  Te98  1  0.77153901  0.69296811  0.75088604  1
  Te  Te99  1  0.07417752  0.24621507  0.23691948  1
  Te  Te100  1  0.10236510  0.25636053  0.59371824  1
  Te  Te101  1  0.07296401  0.24047463  0.93164794  1
  Te  Te102  1  0.08239103  0.57422999  0.26031815  1
  Te  Te103  1  0.09149889  0.58349878  0.57570305  1
  Te  Te104  1  0.07419339  0.60366613  0.89312176  1
  Te  Te105  1  0.05709169  0.89374814  0.22208035  1
  Te  Te106  1  0.08468965  0.92655899  0.56677429  1
  Te  Te107  1  0.05809324  0.90632909  0.89769117  1
  Te  Te108  1  0.42507008  0.28180946  0.26065764  1
  Te  Te109  1  0.43824794  0.25677721  0.58562509  1
  Te  Te110  1  0.40953779  0.26469299  0.93771804  1
  Te  Te111  1  0.39809801  0.55721103  0.23225724  1
  Te  Te112  1  0.44156889  0.60240835  0.57392793  1
  Te  Te113  1  0.43740229  0.55721380  0.89683233  1
  Te  Te114  1  0.42799485  0.90448167  0.24313555  1
  Te  Te115  1  0.41253527  0.91463028  0.58855865  1
  Te  Te116  1  0.43219874  0.90009080  0.94127484  1
  Te  Te117  1  0.75272912  0.32490050  0.21906461  1
  Te  Te118  1  0.74172317  0.24799976  0.59905586  1
  Te  Te119  1  0.75230904  0.24379234  0.91608846  1
  Te  Te120  1  0.75157193  0.59645894  0.24561539  1
  Te  Te121  1  0.76189545  0.61742071  0.61359638  1
  Te  Te122  1  0.69948264  0.58716117  0.94482356  1
  Te  Te123  1  0.71733790  0.89881559  0.24275642  1
  Te  Te124  1  0.75365173  0.87055628  0.61529111  1
  Te  Te125  1  0.75385299  0.88501685  0.91445254  1
  Te  Te126  1  0.23531152  0.27696299  0.07892378  1
  Te  Te127  1  0.26818164  0.28966294  0.41619092  1
  Te  Te128  1  0.26091046  0.26268528  0.75845567  1
  Te  Te129  1  0.25030032  0.59237457  0.07638952  1
  Te  Te130  1  0.25082695  0.54479514  0.40487594  1
  Te  Te131  1  0.26971983  0.58665276  0.75316895  1
  Te  Te132  1  0.24368222  0.91445149  0.10668079  1
  Te  Te133  1  0.25967552  0.92378478  0.40304089  1
  Te  Te134  1  0.23824621  0.91339650  0.74692194  1
  Te  Te135  1  0.58904132  0.23953483  0.08470297  1
  Te  Te136  1  0.61317320  0.24078764  0.40691730  1
  Te  Te137  1  0.55219096  0.23979276  0.74566081  1
  Te  Te138  1  0.60497964  0.58998153  0.15876962  1
  Te  Te139  1  0.59211678  0.59102310  0.41472156  1
  Te  Te140  1  0.59566355  0.60436050  0.72028251  1
  Te  Te141  1  0.60923419  0.88984483  0.08304138  1
  Te  Te142  1  0.62192862  0.88836335  0.45359824  1
  Te  Te143  1  0.57791182  0.89869777  0.76952547  1
  Te  Te144  1  0.89049808  0.25827731  0.09153566  1
  Te  Te145  1  0.89806432  0.24293624  0.42066464  1
  Te  Te146  1  0.92980557  0.26725510  0.75680740  1
  Te  Te147  1  0.94442480  0.62408195  0.05767373  1
  Te  Te148  1  0.89502588  0.60593998  0.40885267  1
  Te  Te149  1  0.89698243  0.61755397  0.80381552  1
  Te  Te150  1  0.87552605  0.87579167  0.08497411  1
  Te  Te151  1  0.90994932  0.91190820  0.41223833  1
  Te  Te152  1  0.90535248  0.88385196  0.74302435  1
  Te  Te153  1  0.24705151  0.11485072  0.26053520  1
  Te  Te154  1  0.26962031  0.11162332  0.58871077  1
  Te  Te155  1  0.22501119  0.06034886  0.90500599  1
  Te  Te156  1  0.29001433  0.44499476  0.23068037  1
  Te  Te157  1  0.28252401  0.42015011  0.60490457  1
  Te  Te158  1  0.24830744  0.43749971  0.90885781  1
  Te  Te159  1  0.25660859  0.73856827  0.26158202  1
  Te  Te160  1  0.26894626  0.72034229  0.56921036  1
  Te  Te161  1  0.25151055  0.76511905  0.92760423  1
  Te  Te162  1  0.57511610  0.08010383  0.23738563  1
  Te  Te163  1  0.56963465  0.06803268  0.59094765  1
  Te  Te164  1  0.59135247  0.06293281  0.92343760  1
  Te  Te165  1  0.61963168  0.40012647  0.26031084  1
  Te  Te166  1  0.60662978  0.42768567  0.58708467  1
  Te  Te167  1  0.57913027  0.40024729  0.88250102  1
  Te  Te168  1  0.53924442  0.71457733  0.20710161  1
  Te  Te169  1  0.61440258  0.78212879  0.56777915  1
  Te  Te170  1  0.60493923  0.72480034  0.92603794  1
  Te  Te171  1  0.92365091  0.08022142  0.26222436  1
  Te  Te172  1  0.89607836  0.07266724  0.58038833  1
  Te  Te173  1  0.89950370  0.07838021  0.92769228  1
  Te  Te174  1  0.93829708  0.45262157  0.23060328  1
  Te  Te175  1  0.91641150  0.45276413  0.58254480  1
  Te  Te176  1  0.91166863  0.44837143  0.93734787  1
  Te  Te177  1  0.89822385  0.75078473  0.21959849  1
  Te  Te178  1  0.89956814  0.71046592  0.57868256  1
  Te  Te179  1  0.89159206  0.70985737  0.93891540  1
