# generated using pymatgen
data_In2Te3
_symmetry_space_group_name_H-M   'P 1'
_cell_length_a   19.00475747
_cell_length_b   19.07782818
_cell_length_c   19.09373560
_cell_angle_alpha   90.10773101
_cell_angle_beta   89.80123037
_cell_angle_gamma   89.95763695
_symmetry_Int_Tables_number   1
_chemical_formula_structural   In2Te3
_chemical_formula_sum   'In72 Te108'
_cell_volume   6922.75030137
_cell_formula_units_Z   36
loop_
 _symmetry_equiv_pos_site_id
 _symmetry_equiv_pos_as_xyz
  1  'x, y, z'
loop_
 _atom_site_type_symbol
 _atom_site_label
 _atom_site_symmetry_multiplicity
 _atom_site_fract_x
 _atom_site_fract_y
 _atom_site_fract_z
 _atom_site_occupancy
  In  In0  1  0.34047786  0.02900414  0.02707588  1
  In  In1  1  0.81559377  0.48117208  0.31622036  1
  In  In2  1  0.50975283  0.85859898  0.66556489  1
  In  In3  1  0.33496567  0.48017263  0.14939085  1
  In  In4  1  -0.03077283  0.00542430  0.31235777  1
  In  In5  1  0.34396534  0.23248851  0.18041352  1
  In  In6  1  0.66541155  0.65034720  -0.00609612  1
  In  In7  1  0.00670667  0.65459653  0.33584919  1
  In  In8  1  -0.00100999  0.16136110  0.47806508  1
  In  In9  1  0.83539635  -0.01102784  0.49668021  1
  In  In10  1  0.54610974  0.62089955  0.49319895  1
  In  In11  1  0.64837805  0.19462056  0.04137404  1
  In  In12  1  0.33378348  0.87065866  0.16988739  1
  In  In13  1  0.82869931  0.34075782  0.48256626  1
  In  In14  1  0.34580310  0.50311357  0.81462194  1
  In  In15  1  0.83810130  0.65573689  0.84718385  1
  In  In16  1  0.15435418  0.31205235  0.49851645  1
  In  In17  1  0.80640143  0.30235112  0.15373214  1
  In  In18  1  0.10901523  0.67409128  0.80604089  1
  In  In19  1  0.16218369  0.85067146  0.34773476  1
  In  In20  1  0.16674766  0.01152568  0.17978920  1
  In  In21  1  0.77595072  0.34516405  0.86950730  1
  In  In22  1  -0.04027873  0.87155814  0.84843036  1
  In  In23  1  0.82215784  0.66488531  0.15044851  1
  In  In24  1  0.54569506  0.30847845  0.46256154  1
  In  In25  1  0.15003570  -0.00146355  0.84230383  1
  In  In26  1  0.18116136  0.17319419  0.32590370  1
  In  In27  1  0.32610515  0.18274936  0.81928316  1
  In  In28  1  0.28211761  0.86496393  0.51379087  1
  In  In29  1  0.36979987  0.33797279  -0.01331474  1
  In  In30  1  -0.04029357  0.35654929  0.68049886  1
  In  In31  1  0.14664102  0.15787113  0.02500016  1
  In  In32  1  0.28558899  0.01657474  0.65457230  1
  In  In33  1  0.81271789  0.82326865  0.69534250  1
  In  In34  1  0.17693982  0.32754399  0.85178842  1
  In  In35  1  0.51851119  0.86037673  0.00575376  1
  In  In36  1  0.49543291  0.42799289  0.29875273  1
  In  In37  1  0.34771478  0.51655766  0.49958197  1
  In  In38  1  0.51490120  0.03385860  0.15994417  1
  In  In39  1  0.34020870  0.15087830  0.50573718  1
  In  In40  1  -0.00009831  0.65468123  0.00136189  1
  In  In41  1  0.66407900  0.78255165  0.51462368  1
  In  In42  1  -0.03548551  0.31298442  -0.00151900  1
  In  In43  1  -0.01053080  0.32034467  0.31156976  1
  In  In44  1  0.34741100  0.84957344  0.85975648  1
  In  In45  1  0.50132114  0.66590712  0.16210727  1
  In  In46  1  0.51667736  0.65207358  0.81317366  1
  In  In47  1  0.34544039  0.65083732  0.00640170  1
  In  In48  1  0.17684317  0.65052906  0.50215071  1
  In  In49  1  0.34686416  0.67622032  0.35657866  1
  In  In50  1  0.50316438  0.17978979  0.67907610  1
  In  In51  1  0.48890315  0.82166089  0.34690486  1
  In  In52  1  -0.01657865  0.47931270  0.47477128  1
  In  In53  1  0.34756434  0.66575094  0.65014549  1
  In  In54  1  0.13887114  0.49581263  0.66939675  1
  In  In55  1  0.66165910  0.65658309  0.31217351  1
  In  In56  1  0.86128077  0.14728574  0.65712684  1
  In  In57  1  0.56843046  0.29172298  0.88636910  1
  In  In58  1  0.54173700  0.46497271  0.69662619  1
  In  In59  1  0.66928709  0.01277140  0.32730329  1
  In  In60  1  0.78975791  0.86499657  -0.01744760  1
  In  In61  1  0.33445708  0.35743973  0.67210117  1
  In  In62  1  -0.02880667  0.83238924  0.13820934  1
  In  In63  1  0.65991332  0.00304134  0.67266984  1
  In  In64  1  0.15144350  0.35814879  0.14355161  1
  In  In65  1  -0.02686661  0.70096443  0.69097316  1
  In  In66  1  -0.02945004  0.12806745  0.84560366  1
  In  In67  1  0.82425042  0.85503780  0.32864163  1
  In  In68  1  0.69048958  0.31260135  0.67767334  1
  In  In69  1  0.14685369  0.81979231  -0.03347732  1
  In  In70  1  0.50853823  0.01237494  0.48863909  1
  In  In71  1  0.16795153  0.65706310  0.19534198  1
  Te  Te72  1  0.05605578  0.06953225  0.10134078  1
  Te  Te73  1  0.08388493  0.07576523  0.38717058  1
  Te  Te74  1  0.06876089  0.07621980  0.75083845  1
  Te  Te75  1  0.06496257  0.41275452  0.04144214  1
  Te  Te76  1  0.08596981  0.40069503  0.39749287  1
  Te  Te77  1  0.07451725  0.40630331  0.77033160  1
  Te  Te78  1  0.09681900  0.74624789  0.09274573  1
  Te  Te79  1  0.08709475  0.74648542  0.42646843  1
  Te  Te80  1  0.06052189  0.80530999  0.75300821  1
  Te  Te81  1  0.42647572  0.13348543  0.09075560  1
  Te  Te82  1  0.43026873  0.09943831  0.40385781  1
  Te  Te83  1  0.40217263  0.08324583  0.73571832  1
  Te  Te84  1  0.45107784  0.42397461  0.07483795  1
  Te  Te85  1  0.42868082  0.40811219  0.43657105  1
  Te  Te86  1  0.44020778  0.38683448  0.77664133  1
  Te  Te87  1  0.40777737  0.76979448  0.08057605  1
  Te  Te88  1  0.44284850  0.72961978  0.45894940  1
  Te  Te89  1  0.41112014  0.75505252  0.75384079  1
  Te  Te90  1  0.76493854  0.10165191  0.06325640  1
  Te  Te91  1  0.75844372  0.08655803  0.41875980  1
  Te  Te92  1  0.77081841  0.06992482  0.74666114  1
  Te  Te93  1  0.71463705  0.37760971  0.06378579  1
  Te  Te94  1  0.72930539  0.42770135  0.42116821  1
  Te  Te95  1  0.75352293  0.42522412  0.74693502  1
  Te  Te96  1  0.73100741  0.75832547  0.07767361  1
  Te  Te97  1  0.75290127  0.74192647  0.39662642  1
  Te  Te98  1  0.73706636  0.74300462  0.78922279  1
  Te  Te99  1  0.09319869  0.24729279  0.22996913  1
  Te  Te100  1  0.03775395  0.26739446  0.58082673  1
  Te  Te101  1  0.07593067  0.22954260  0.91215863  1
  Te  Te102  1  0.07287722  0.56056464  0.24657479  1
  Te  Te103  1  0.06273770  0.57497682  0.56694407  1
  Te  Te104  1  0.09191110  0.58047835  0.91389959  1
  Te  Te105  1  0.07144327  0.90088680  0.23764839  1
  Te  Te106  1  0.17546717  0.94955552  0.57559992  1
  Te  Te107  1  0.05521283  0.93774752  0.94460908  1
  Te  Te108  1  0.45113039  0.28546130  0.26408101  1
  Te  Te109  1  0.41366127  0.25951218  0.58819015  1
  Te  Te110  1  0.43787499  0.22166769  0.91581812  1
  Te  Te111  1  0.39448161  0.59287894  0.23957849  1
  Te  Te112  1  0.44495165  0.55603482  0.61090375  1
  Te  Te113  1  0.43611320  0.57196221  0.91385650  1
  Te  Te114  1  0.44310633  0.93202329  0.25033195  1
  Te  Te115  1  0.41060489  0.92783640  0.57851082  1
  Te  Te116  1  0.42903016  0.95627562  0.92791797  1
  Te  Te117  1  0.72402588  0.24933456  0.26766098  1
  Te  Te118  1  0.77062759  0.23509674  0.57669199  1
  Te  Te119  1  0.77328611  0.20647532  0.94645393  1
  Te  Te120  1  0.73264974  0.56253475  0.21768270  1
  Te  Te121  1  0.68068951  0.63351349  0.55055838  1
  Te  Te122  1  0.78508651  0.57040319  0.95528283  1
  Te  Te123  1  0.75765513  0.94063603  0.23267290  1
  Te  Te124  1  0.73436968  0.90910396  0.57701343  1
  Te  Te125  1  0.69847031  0.94741466  0.90111450  1
  Te  Te126  1  0.25219770  0.26196777  0.05780234  1
  Te  Te127  1  0.26655530  0.25659081  0.41609860  1
  Te  Te128  1  0.23275126  0.25897109  0.72838906  1
  Te  Te129  1  0.23910802  0.57800942  0.08454475  1
  Te  Te130  1  0.24718786  0.56766963  0.39836498  1
  Te  Te131  1  0.24546819  0.58387303  0.73582626  1
  Te  Te132  1  0.23749766  0.92259092  0.06486104  1
  Te  Te133  1  0.27054257  0.93822926  0.38869488  1
  Te  Te134  1  0.25027177  0.91417661  0.76648937  1
  Te  Te135  1  0.57462147  0.31253092  0.09910948  1
  Te  Te136  1  0.64328689  0.22150521  0.39857980  1
  Te  Te137  1  0.61989179  0.21272478  0.77034436  1
  Te  Te138  1  0.57987503  0.57122420  0.08526857  1
  Te  Te139  1  0.56179091  0.55486789  0.36119385  1
  Te  Te140  1  0.62295186  0.55987026  0.77220059  1
  Te  Te141  1  0.60916214  0.94816696  0.08239946  1
  Te  Te142  1  0.59083893  0.90187574  0.42532270  1
  Te  Te143  1  0.58191491  0.92696778  0.77319500  1
  Te  Te144  1  0.92659243  0.22185726  0.11136475  1
  Te  Te145  1  0.89830068  0.23604879  0.39525515  1
  Te  Te146  1  0.90623326  0.24478194  0.76455548  1
  Te  Te147  1  0.91658414  0.57185859  0.08728159  1
  Te  Te148  1  0.89567941  0.57932013  0.40502279  1
  Te  Te149  1  0.94528526  0.58467713  0.77262554  1
  Te  Te150  1  0.86888590  0.92593358  0.09287450  1
  Te  Te151  1  0.93432924  0.90300512  0.41868872  1
  Te  Te152  1  0.87520983  0.94481499  0.75319152  1
  Te  Te153  1  0.27449074  0.10112745  0.23070511  1
  Te  Te154  1  0.21101778  0.10967668  0.56517519  1
  Te  Te155  1  0.24831586  0.09389733  0.91758654  1
  Te  Te156  1  0.25792755  0.39367807  0.23851451  1
  Te  Te157  1  0.23787986  0.42727831  0.57315314  1
  Te  Te158  1  0.26669686  0.42787557  0.91921678  1
  Te  Te159  1  0.26517623  0.76613288  0.25862387  1
  Te  Te160  1  0.23194830  0.74842590  0.60169828  1
  Te  Te161  1  0.26052217  0.73506767  0.91119017  1
  Te  Te162  1  0.60356110  0.11649935  0.24468259  1
  Te  Te163  1  0.58846004  0.10022107  0.58170836  1
  Te  Te164  1  0.62213677  0.06447069  0.96391814  1
  Te  Te165  1  0.61626948  0.35980889  0.24140771  1
  Te  Te166  1  0.60111640  0.38895717  0.57923666  1
  Te  Te167  1  0.64740926  0.41034652  0.92115528  1
  Te  Te168  1  0.58315049  0.76508441  0.24146058  1
  Te  Te169  1  0.58975852  0.73709499  0.63793426  1
  Te  Te170  1  0.56924427  0.74796045  0.92165775  1
  Te  Te171  1  0.93154569  0.10755763  0.21732041  1
  Te  Te172  1  0.94866520  0.05607952  0.57353830  1
  Te  Te173  1  0.87161936  0.08563569  0.94621032  1
  Te  Te174  1  0.90387147  0.40375249  0.22163772  1
  Te  Te175  1  0.88496704  0.44361116  0.58422141  1
  Te  Te176  1  0.89012403  0.41703101  0.92686152  1
  Te  Te177  1  0.91291392  0.74565916  0.24835691  1
  Te  Te178  1  0.88265675  0.74796774  0.58996248  1
  Te  Te179  1  0.90945783  0.76338288  0.93946162  1
