# generated using pymatgen
data_In2Te3
_symmetry_space_group_name_H-M   'P 1'
_cell_length_a   18.74688211
_cell_length_b   18.74270209
_cell_length_c   18.76039871
_cell_angle_alpha   90.00820349
_cell_angle_beta   90.04303006
_cell_angle_gamma   90.12492770
_symmetry_Int_Tables_number   1
_chemical_formula_structural   In2Te3
_chemical_formula_sum   'In72 Te108'
_cell_volume   6591.77166179
_cell_formula_units_Z   36
loop_
 _symmetry_equiv_pos_site_id
 _symmetry_equiv_pos_as_xyz
  1  'x, y, z'
loop_
 _atom_site_type_symbol
 _atom_site_label
 _atom_site_symmetry_multiplicity
 _atom_site_fract_x
 _atom_site_fract_y
 _atom_site_fract_z
 _atom_site_occupancy
  In  In0  1  0.64360508  0.67726291  -0.01780917  1
  In  In1  1  0.33433843  0.66416764  0.67320575  1
  In  In2  1  0.33030996  0.55339544  0.14267196  1
  In  In3  1  0.66747185  0.82956601  0.50070953  1
  In  In4  1  0.02531299  0.68356361  0.36275158  1
  In  In5  1  0.33881901  0.14977725  0.16757407  1
  In  In6  1  0.66191470  0.48941678  0.81859548  1
  In  In7  1  0.82255747  0.18271592  -0.01263616  1
  In  In8  1  0.83505380  0.67660914  0.50508904  1
  In  In9  1  0.82225402  0.32927063  0.81346499  1
  In  In10  1  0.83350527  0.81582817  -0.01480241  1
  In  In11  1  0.47815846  0.00444319  0.50826843  1
  In  In12  1  0.83880598  0.14745066  0.33751866  1
  In  In13  1  0.17252621  0.18995461  0.34154629  1
  In  In14  1  0.31593996  0.83979421  0.53350589  1
  In  In15  1  0.34066536  -0.01800465  0.37173435  1
  In  In16  1  0.15939185  0.34546251  0.18481734  1
  In  In17  1  0.49844827  0.52374443  0.34294976  1
  In  In18  1  0.17822179  0.66528116  0.80886600  1
  In  In19  1  0.51139543  0.32881491  0.14831725  1
  In  In20  1  0.32095899  0.66207655  0.32781451  1
  In  In21  1  0.00782652  0.34697216  0.00984263  1
  In  In22  1  0.16175441  0.84128759  -0.01976640  1
  In  In23  1  0.80422407  -0.03329720  0.20258997  1
  In  In24  1  0.83007199  0.35396060  0.15474007  1
  In  In25  1  -0.00955674  0.82349504  0.15495119  1
  In  In26  1  0.35125469  0.78991289  0.13947455  1
  In  In27  1  0.48625270  0.51376300  -0.02468531  1
  In  In28  1  0.19027766  0.33803102  0.81979794  1
  In  In29  1  0.65757316  0.00073701  0.68253391  1
  In  In30  1  0.14845063  0.83091732  0.66478692  1
  In  In31  1  0.30301308  0.32375637  0.34861419  1
  In  In32  1  0.49716065  0.14372020  0.33868821  1
  In  In33  1  0.69927112  0.50493838  0.14541015  1
  In  In34  1  0.47356764  0.65242745  0.51305507  1
  In  In35  1  0.49706883  0.00280219  0.15886939  1
  In  In36  1  0.85508193  0.35057844  0.53687934  1
  In  In37  1  0.50808904  -0.01208702  0.83367869  1
  In  In38  1  -0.00906275  -0.01459503  0.34457625  1
  In  In39  1  0.01914197  0.15445671  0.79958478  1
  In  In40  1  0.82169282  0.48074923  0.01412982  1
  In  In41  1  0.16751834  -0.00800034  0.51348907  1
  In  In42  1  0.65756317  0.33422502  0.33959447  1
  In  In43  1  0.33810897  0.34440374  -0.03005391  1
  In  In44  1  0.18186135  0.16664892  -0.00814851  1
  In  In45  1  0.65852931  0.65031539  0.67559508  1
  In  In46  1  0.00448011  0.51472475  0.80314178  1
  In  In47  1  0.15722851  -0.01092763  0.16591572  1
  In  In48  1  0.33362494  0.01206834  0.65444658  1
  In  In49  1  0.14621741  0.49679775  0.35396027  1
  In  In50  1  0.83046955  0.16907390  0.65816895  1
  In  In51  1  0.02234624  0.19238193  0.53311079  1
  In  In52  1  0.49459740  0.33663105  0.52298957  1
  In  In53  1  0.46937973  0.34185040  0.80218372  1
  In  In54  1  0.31780140  0.01606521  -0.03049091  1
  In  In55  1  0.65091520  -0.00809169  -0.00071698  1
  In  In56  1  0.00092184  0.67748143  -0.01355878  1
  In  In57  1  0.02717676  0.34132920  0.36056729  1
  In  In58  1  0.83665712  0.52757445  0.34258491  1
  In  In59  1  0.82893260  0.67141051  0.16859642  1
  In  In60  1  0.83260504  -0.01356040  0.82109519  1
  In  In61  1  0.65502553  0.16458955  0.15214103  1
  In  In62  1  0.84791172  0.81596225  0.66981985  1
  In  In63  1  0.84759918  0.01339758  0.49532274  1
  In  In64  1  0.34758776  0.82081808  0.83216408  1
  In  In65  1  0.50247842  0.17141860  0.67496551  1
  In  In66  1  0.02560974  0.48634340  0.16792152  1
  In  In67  1  0.30499399  0.47504104  0.52766432  1
  In  In68  1  0.85142601  0.66498439  0.82682404  1
  In  In69  1  0.50524983  0.82503473  0.32362415  1
  In  In70  1  0.63919425  0.49368565  0.50817416  1
  In  In71  1  0.02162588  -0.00354809  -0.01226792  1
  Te  Te72  1  0.08285345  0.09668951  0.08725543  1
  Te  Te73  1  0.07710796  0.09007547  0.41880838  1
  Te  Te74  1  0.12690073  0.06575876  0.75561222  1
  Te  Te75  1  0.12332926  0.43282232  0.06283636  1
  Te  Te76  1  0.09547398  0.41549448  0.47470984  1
  Te  Te77  1  0.08602292  0.40922968  0.73456194  1
  Te  Te78  1  0.09983491  0.74238109  0.08562797  1
  Te  Te79  1  0.12717741  0.76080803  0.43524920  1
  Te  Te80  1  0.06594826  0.72733195  0.73551437  1
  Te  Te81  1  0.42255872  0.09138072  0.05588154  1
  Te  Te82  1  0.38739384  0.10871118  0.44069905  1
  Te  Te83  1  0.41198603  0.08518933  0.76317642  1
  Te  Te84  1  0.40659150  0.42493352  0.08900950  1
  Te  Te85  1  0.41309124  0.42125756  0.41686816  1
  Te  Te86  1  0.41202513  0.46772816  0.74628244  1
  Te  Te87  1  0.44670575  0.72210261  0.04371159  1
  Te  Te88  1  0.40426460  0.75946214  0.42756485  1
  Te  Te89  1  0.43890606  0.73237283  0.75331572  1
  Te  Te90  1  0.76067412  0.07532444  0.08416791  1
  Te  Te91  1  0.73821713  0.07564881  0.41689417  1
  Te  Te92  1  0.74466525  0.09772418  0.76371153  1
  Te  Te93  1  0.71446913  0.37915298  0.05849534  1
  Te  Te94  1  0.75588123  0.42157650  0.42065226  1
  Te  Te95  1  0.76344883  0.43373105  0.72684952  1
  Te  Te96  1  0.73478519  0.75564397  0.08404013  1
  Te  Te97  1  0.75860495  0.75771986  0.40507855  1
  Te  Te98  1  0.74162630  0.74830198  0.75990491  1
  Te  Te99  1  0.06401363  0.24342647  0.24671400  1
  Te  Te100  1  0.11568164  0.26407243  0.62303417  1
  Te  Te101  1  0.08190680  0.25559517  0.91076253  1
  Te  Te102  1  0.09155052  0.59521575  0.25002336  1
  Te  Te103  1  0.06421285  0.54302868  0.55640872  1
  Te  Te104  1  0.09010308  0.58203447  0.90970763  1
  Te  Te105  1  0.08061124  0.89564710  0.25701147  1
  Te  Te106  1  0.05947096  0.91639680  0.58087323  1
  Te  Te107  1  0.09312019  0.92591379  0.87924263  1
  Te  Te108  1  0.42174332  0.25048178  0.25532272  1
  Te  Te109  1  0.39799286  0.25655377  0.60513394  1
  Te  Te110  1  0.40338160  0.24033487  0.89116608  1
  Te  Te111  1  0.43707215  0.61480694  0.23746756  1
  Te  Te112  1  0.42451126  0.53933744  0.60475398  1
  Te  Te113  1  0.39165229  0.62188769  0.93685609  1
  Te  Te114  1  0.40063424  0.91683499  0.24623352  1
  Te  Te115  1  0.43312795  0.90135184  0.61038805  1
  Te  Te116  1  0.42250703  0.90917181  0.93438007  1
  Te  Te117  1  0.75105756  0.25191536  0.24847203  1
  Te  Te118  1  0.74730483  0.25719868  0.57388192  1
  Te  Te119  1  0.72856943  0.25631479  0.90164894  1
  Te  Te120  1  0.72962722  0.59989414  0.26267474  1
  Te  Te121  1  0.75089139  0.57384793  0.58059909  1
  Te  Te122  1  0.75657340  0.58683661  0.92189744  1
  Te  Te123  1  0.72305953  0.86910467  0.27665653  1
  Te  Te124  1  0.75536030  0.91986038  0.59215673  1
  Te  Te125  1  0.73656260  0.90228087  0.90524936  1
  Te  Te126  1  0.25511644  0.25635991  0.09555751  1
  Te  Te127  1  0.23273016  0.25668320  0.45995297  1
  Te  Te128  1  0.27939950  0.26347330  0.72433635  1
  Te  Te129  1  0.23460247  0.62868500  0.06370519  1
  Te  Te130  1  0.24545051  0.58295590  0.43463654  1
  Te  Te131  1  0.26161782  0.55424407  0.74811059  1
  Te  Te132  1  0.26073050  0.91894088  0.07747107  1
  Te  Te133  1  0.22481323  0.88462214  0.41079076  1
  Te  Te134  1  0.26012825  0.90440767  0.74035572  1
  Te  Te135  1  0.56309227  0.22767031  0.05444961  1
  Te  Te136  1  0.57539271  0.24302629  0.42782336  1
  Te  Te137  1  0.58876420  0.27488398  0.73986630  1
  Te  Te138  1  0.58146739  0.57719349  0.08167548  1
  Te  Te139  1  0.59238691  0.61347501  0.42245696  1
  Te  Te140  1  0.56026335  0.58753922  0.76964577  1
  Te  Te141  1  0.58279707  0.89929373  0.09515590  1
  Te  Te142  1  0.57386512  0.92321417  0.42033596  1
  Te  Te143  1  0.58663290  0.89205241  0.75191455  1
  Te  Te144  1  0.91965855  0.24910867  0.08769264  1
  Te  Te145  1  0.91432130  0.24912258  0.42711218  1
  Te  Te146  1  0.93137660  0.25919704  0.73248451  1
  Te  Te147  1  0.92407308  0.57861906  0.08737655  1
  Te  Te148  1  0.94591377  0.57344544  0.43732332  1
  Te  Te149  1  0.91319051  0.59095208  0.71441133  1
  Te  Te150  1  0.90757267  0.92036550  0.07257706  1
  Te  Te151  1  0.91190056  0.89608531  0.43094631  1
  Te  Te152  1  0.93129621  0.92401766  0.73221013  1
  Te  Te153  1  0.24666212  0.07414009  0.26433488  1
  Te  Te154  1  0.22612033  0.09914972  0.59920614  1
  Te  Te155  1  0.23369482  0.09426905  0.86971545  1
  Te  Te156  1  0.25898213  0.44023053  0.25485418  1
  Te  Te157  1  0.23877583  0.37382600  0.62120103  1
  Te  Te158  1  0.26627204  0.44733118  0.89077912  1
  Te  Te159  1  0.24954608  0.75844349  0.24161343  1
  Te  Te160  1  0.22641782  0.72318136  0.58176211  1
  Te  Te161  1  0.25840518  0.73212469  0.93003252  1
  Te  Te162  1  0.59963567  0.06669083  0.25625152  1
  Te  Te163  1  0.58682434  0.08712532  0.57786740  1
  Te  Te164  1  0.58912119  0.08915779  0.90780266  1
  Te  Te165  1  0.58135011  0.43079838  0.24874316  1
  Te  Te166  1  0.59060441  0.40353102  0.61668219  1
  Te  Te167  1  0.57062017  0.40850395  0.90963295  1
  Te  Te168  1  0.60572632  0.77766076  0.22679589  1
  Te  Te169  1  0.57403037  0.74366014  0.58706469  1
  Te  Te170  1  0.53820611  0.76079376  0.92152212  1
  Te  Te171  1  0.91906097  0.06659334  0.23728524  1
  Te  Te172  1  0.93997148  0.08035605  0.59878612  1
  Te  Te173  1  0.92059920  0.09177589  0.90882737  1
  Te  Te174  1  0.92009496  0.42112273  0.26222700  1
  Te  Te175  1  0.95588309  0.44030177  0.60054983  1
  Te  Te176  1  0.91874028  0.42231738  0.90952072  1
  Te  Te177  1  0.91866268  0.74678695  0.26562345  1
  Te  Te178  1  0.94343109  0.74675873  0.57814489  1
  Te  Te179  1  0.94271781  0.77592363  0.88687475  1
