# generated using pymatgen
data_In2Te3
_symmetry_space_group_name_H-M   'P 1'
_cell_length_a   18.78430516
_cell_length_b   18.79963271
_cell_length_c   18.79231170
_cell_angle_alpha   89.96867958
_cell_angle_beta   90.04959921
_cell_angle_gamma   89.89303106
_symmetry_Int_Tables_number   1
_chemical_formula_structural   In2Te3
_chemical_formula_sum   'In72 Te108'
_cell_volume   6636.26503072
_cell_formula_units_Z   36
loop_
 _symmetry_equiv_pos_site_id
 _symmetry_equiv_pos_as_xyz
  1  'x, y, z'
loop_
 _atom_site_type_symbol
 _atom_site_label
 _atom_site_symmetry_multiplicity
 _atom_site_fract_x
 _atom_site_fract_y
 _atom_site_fract_z
 _atom_site_occupancy
  In  In0  1  0.84155834  -0.02143578  0.82705214  1
  In  In1  1  0.48723797  0.51612462  0.32861788  1
  In  In2  1  0.84445229  0.33879643  0.82652731  1
  In  In3  1  0.51193448  0.17810059  0.00102552  1
  In  In4  1  0.29307997  0.81249997  0.20896692  1
  In  In5  1  0.85502027  0.86141909  0.03232671  1
  In  In6  1  0.48640935  0.65257287  0.16565684  1
  In  In7  1  0.67425969  0.00234913  0.69482383  1
  In  In8  1  0.50479335  0.00456583  0.17403658  1
  In  In9  1  0.15407517  0.66427763  0.50445273  1
  In  In10  1  0.19250841  0.17320421  0.01818344  1
  In  In11  1  0.18043193  0.34046209  0.82242562  1
  In  In12  1  0.36945328  0.34231325  0.01771327  1
  In  In13  1  0.84037253  0.66185805  0.17161408  1
  In  In14  1  0.50737300  -0.02737808  0.49728834  1
  In  In15  1  0.85030585  0.48646939  0.34225803  1
  In  In16  1  0.46977008  0.66174565  0.50717081  1
  In  In17  1  0.00903444  0.67989248  0.66810424  1
  In  In18  1  0.83053988  0.16049166  0.31322925  1
  In  In19  1  0.34427315  0.34228209  0.32066603  1
  In  In20  1  0.33718465  0.00015039  -0.00001232  1
  In  In21  1  0.49471722  0.15594110  0.31150547  1
  In  In22  1  0.02038974  0.67416798  0.34592438  1
  In  In23  1  0.67793015  0.15631813  0.82297706  1
  In  In24  1  0.83435511  0.51518336  0.66244836  1
  In  In25  1  -0.00319981  0.33193448  0.00317405  1
  In  In26  1  0.00965865  0.15967705  0.16568146  1
  In  In27  1  0.66632647  0.66344309  0.66751940  1
  In  In28  1  0.30587087  -0.00552577  0.35748943  1
  In  In29  1  0.17355576  -0.03203883  0.83969175  1
  In  In30  1  0.68217997  0.64690176  -0.02437773  1
  In  In31  1  0.34200413  0.65390835  -0.00993507  1
  In  In32  1  0.81011569  0.13227833  0.02194495  1
  In  In33  1  0.65737415  0.68685936  0.34376846  1
  In  In34  1  0.15613217  0.13865588  0.64866353  1
  In  In35  1  0.63950223  0.83306501  0.49658645  1
  In  In36  1  0.48348561  0.15131916  0.68541775  1
  In  In37  1  0.17296845  0.83543186  -0.00327711  1
  In  In38  1  0.66078938  0.83615404  0.84672852  1
  In  In39  1  0.29987026  0.15468892  0.51205748  1
  In  In40  1  0.83743886  0.33057141  0.47981512  1
  In  In41  1  0.48602829  0.01792518  0.83174492  1
  In  In42  1  0.49473504  0.51522651  0.66437048  1
  In  In43  1  0.31411393  0.83265090  0.50318754  1
  In  In44  1  0.66189511  0.34258392  0.01263632  1
  In  In45  1  0.31682538  0.33697480  0.65410155  1
  In  In46  1  0.49028022  0.84437492  0.37275545  1
  In  In47  1  -0.00212756  0.50360818  0.18607743  1
  In  In48  1  0.65618625  0.50366528  0.15550085  1
  In  In49  1  0.84149828  0.81561897  0.65441994  1
  In  In50  1  0.17620507  0.49906050  0.33106972  1
  In  In51  1  -0.00644791  0.31469244  0.31487928  1
  In  In52  1  0.15335564  0.00633320  0.20023218  1
  In  In53  1  0.50340814  0.35106258  0.50006680  1
  In  In54  1  0.51208239  0.80884526  0.00593657  1
  In  In55  1  0.69215070  0.33846983  0.66961082  1
  In  In56  1  0.14698292  0.13902389  0.34911716  1
  In  In57  1  0.16256528  0.51331458  0.00796904  1
  In  In58  1  -0.00836466  0.82070197  0.83113237  1
  In  In59  1  0.34777813  0.80247169  0.80110088  1
  In  In60  1  -0.00521398  0.51756686  0.50252618  1
  In  In61  1  0.16115578  0.33934009  0.51568329  1
  In  In62  1  0.49886531  0.34018369  0.86355486  1
  In  In63  1  0.83749440  0.84696742  0.33370068  1
  In  In64  1  0.67144391  0.17646151  0.49606876  1
  In  In65  1  0.01011051  0.48931997  0.82073786  1
  In  In66  1  0.67866360  0.84554094  0.18123824  1
  In  In67  1  -0.01895084  0.16755835  0.83210165  1
  In  In68  1  0.67289095  0.35237916  0.30584090  1
  In  In69  1  0.30967087  0.52525911  0.80592597  1
  In  In70  1  0.00801108  0.67306598  -0.00653060  1
  In  In71  1  0.85982485  0.00721420  0.51517418  1
  Te  Te72  1  0.09225775  0.07342308  0.07034609  1
  Te  Te73  1  0.06694365  0.03984670  0.42488316  1
  Te  Te74  1  0.08447576  0.07449717  0.76957735  1
  Te  Te75  1  0.08500218  0.41377518  0.09611949  1
  Te  Te76  1  0.06410135  0.42034414  0.40404748  1
  Te  Te77  1  0.09132974  0.40888746  0.72691886  1
  Te  Te78  1  0.09297427  0.74957245  0.08592845  1
  Te  Te79  1  0.08636673  0.77891631  0.43235626  1
  Te  Te80  1  0.10059881  0.77083423  0.74385183  1
  Te  Te81  1  0.41478322  0.09550304  0.08877492  1
  Te  Te82  1  0.41841546  0.08507525  0.42551846  1
  Te  Te83  1  0.37993509  0.06266019  0.73873271  1
  Te  Te84  1  0.46424617  0.42338977  0.09352316  1
  Te  Te85  1  0.40085530  0.43630968  0.42884275  1
  Te  Te86  1  0.41581809  0.40471255  0.74872660  1
  Te  Te87  1  0.39643150  0.76630580  0.09592679  1
  Te  Te88  1  0.38932867  0.73671120  0.40139338  1
  Te  Te89  1  0.44990352  0.73759606  0.71784003  1
  Te  Te90  1  0.74073495  0.05726933  0.12765440  1
  Te  Te91  1  0.75791372  0.07655809  0.42097801  1
  Te  Te92  1  0.78868707  0.09365165  0.73777500  1
  Te  Te93  1  0.76000787  0.42712056  0.08528159  1
  Te  Te94  1  0.73438400  0.42827590  0.42347020  1
  Te  Te95  1  0.73995990  0.44440400  0.77109780  1
  Te  Te96  1  0.74282274  0.74464205  0.08475506  1
  Te  Te97  1  0.75717109  0.75882032  0.43169840  1
  Te  Te98  1  0.75414405  0.74983208  0.76024159  1
  Te  Te99  1  0.10761542  0.24833627  0.24251820  1
  Te  Te100  1  0.07212729  0.23641074  0.57091255  1
  Te  Te101  1  0.09143378  0.25065750  0.91532253  1
  Te  Te102  1  0.10082028  0.60647968  0.23128261  1
  Te  Te103  1  0.09193880  0.56593470  0.60727518  1
  Te  Te104  1  0.09550967  0.59270238  0.89554518  1
  Te  Te105  1  0.04956954  0.90684000  0.22953586  1
  Te  Te106  1  0.08539559  0.97987899  0.56874351  1
  Te  Te107  1  0.06118280  0.91516258  0.92929524  1
  Te  Te108  1  0.41536662  0.24910716  0.22954549  1
  Te  Te109  1  0.42022900  0.24441676  0.57210347  1
  Te  Te110  1  0.40366286  0.23215800  0.90763155  1
  Te  Te111  1  0.38337298  0.58367916  0.24501103  1
  Te  Te112  1  0.37911939  0.58326141  0.59745542  1
  Te  Te113  1  0.41738899  0.56781386  0.89727399  1
  Te  Te114  1  0.40844727  0.92167315  0.26017798  1
  Te  Te115  1  0.40581782  0.91522199  0.58636150  1
  Te  Te116  1  0.41752676  0.90081517  0.91671692  1
  Te  Te117  1  0.75238890  0.25532376  0.22849818  1
  Te  Te118  1  0.77497922  0.23910105  0.58873976  1
  Te  Te119  1  0.76022683  0.24499466  0.91602496  1
  Te  Te120  1  0.74088912  0.58501237  0.26301399  1
  Te  Te121  1  0.75406006  0.59684800  0.56930872  1
  Te  Te122  1  0.74883757  0.54941814  0.88987833  1
  Te  Te123  1  0.77765524  0.94640922  0.23450588  1
  Te  Te124  1  0.74003629  0.91936644  0.58450524  1
  Te  Te125  1  0.74899609  0.92341388  0.93466634  1
  Te  Te126  1  0.26025820  0.27791781  0.09605249  1
  Te  Te127  1  0.24406023  0.25619196  0.41284260  1
  Te  Te128  1  0.24691645  0.23229728  0.73800014  1
  Te  Te129  1  0.26677872  0.57708942  0.09256392  1
  Te  Te130  1  0.24944261  0.60574981  0.40417801  1
  Te  Te131  1  0.25627947  0.63237482  0.72032236  1
  Te  Te132  1  0.25084189  0.92346656  0.10032389  1
  Te  Te133  1  0.21477934  0.88595846  0.40222764  1
  Te  Te134  1  0.24117217  0.88567355  0.73612676  1
  Te  Te135  1  0.60276818  0.23941042  0.09993511  1
  Te  Te136  1  0.58140531  0.25955574  0.40299772  1
  Te  Te137  1  0.58670605  0.25543759  0.74709228  1
  Te  Te138  1  0.56677757  0.58194000  0.05880158  1
  Te  Te139  1  0.57923457  0.58760153  0.42899328  1
  Te  Te140  1  0.58113904  0.58597371  0.76116383  1
  Te  Te141  1  0.58905921  0.91754276  0.07835529  1
  Te  Te142  1  0.61085907  0.93547272  0.38630149  1
  Te  Te143  1  0.56735293  0.91264137  0.75236523  1
  Te  Te144  1  0.90791384  0.23741694  0.08172766  1
  Te  Te145  1  0.92748006  0.22504426  0.41706665  1
  Te  Te146  1  0.93469082  0.26776624  0.73438480  1
  Te  Te147  1  0.91931207  0.57553156  0.07488499  1
  Te  Te148  1  0.90260819  0.60537713  0.41971695  1
  Te  Te149  1  0.91819619  0.59683295  0.75968535  1
  Te  Te150  1  0.94121331  0.94337380  0.12580753  1
  Te  Te151  1  0.93605529  0.91940601  0.42138072  1
  Te  Te152  1  0.93366524  0.91588369  0.72409867  1
  Te  Te153  1  0.26276400  0.09767442  0.25468067  1
  Te  Te154  1  0.23796782  0.03329809  0.57289754  1
  Te  Te155  1  0.25093820  0.08376671  0.90774549  1
  Te  Te156  1  0.25520518  0.42269668  0.23186286  1
  Te  Te157  1  0.25105153  0.44096814  0.57238970  1
  Te  Te158  1  0.26008642  0.42304893  0.92257713  1
  Te  Te159  1  0.19574467  0.72731461  0.27827338  1
  Te  Te160  1  0.25011595  0.73517175  0.60042129  1
  Te  Te161  1  0.25078189  0.74197844  0.90557003  1
  Te  Te162  1  0.60902805  0.09024241  0.23985591  1
  Te  Te163  1  0.58760703  0.08537749  0.58935699  1
  Te  Te164  1  0.59535498  0.07515751  0.92220420  1
  Te  Te165  1  0.54709546  0.41335582  0.22777091  1
  Te  Te166  1  0.60004493  0.42925395  0.58741038  1
  Te  Te167  1  0.59813142  0.43546007  0.91523340  1
  Te  Te168  1  0.56347094  0.75957463  0.24734466  1
  Te  Te169  1  0.55040983  0.75792653  0.59822781  1
  Te  Te170  1  0.57072376  0.72307337  0.89666867  1
  Te  Te171  1  0.93358236  0.06662088  0.25428591  1
  Te  Te172  1  0.97243022  0.08071219  0.58501085  1
  Te  Te173  1  0.91349470  0.06945885  0.92873856  1
  Te  Te174  1  0.89638915  0.39678138  0.22946292  1
  Te  Te175  1  0.91669529  0.41337830  0.58197237  1
  Te  Te176  1  0.91389241  0.43281777  0.92547106  1
  Te  Te177  1  0.92834101  0.75663298  0.24736198  1
  Te  Te178  1  0.94083588  0.75871005  0.56185870  1
  Te  Te179  1  0.89468054  0.75409059  0.92864466  1
