# generated using pymatgen
data_In2Te3
_symmetry_space_group_name_H-M   'P 1'
_cell_length_a   18.82606531
_cell_length_b   18.83920350
_cell_length_c   18.83150575
_cell_angle_alpha   90.00979448
_cell_angle_beta   89.99382477
_cell_angle_gamma   89.98353460
_symmetry_Int_Tables_number   1
_chemical_formula_structural   In2Te3
_chemical_formula_sum   'In72 Te108'
_cell_volume   6678.93348920
_cell_formula_units_Z   36
loop_
 _symmetry_equiv_pos_site_id
 _symmetry_equiv_pos_as_xyz
  1  'x, y, z'
loop_
 _atom_site_type_symbol
 _atom_site_label
 _atom_site_symmetry_multiplicity
 _atom_site_fract_x
 _atom_site_fract_y
 _atom_site_fract_z
 _atom_site_occupancy
  In  In0  1  0.15695886  0.48217557  0.69096656  1
  In  In1  1  0.68704329  0.04451724  0.70525015  1
  In  In2  1  0.31149201  0.48647778  0.15127546  1
  In  In3  1  0.18151043  0.12731541  0.28495306  1
  In  In4  1  0.82271107  0.83217087  -0.01731714  1
  In  In5  1  -0.00356015  0.62988030  0.70993288  1
  In  In6  1  0.82118005  -0.01206027  0.49486141  1
  In  In7  1  0.64877512  0.83888633  0.16640310  1
  In  In8  1  0.17897532  0.83366134  0.64634353  1
  In  In9  1  0.48973241  0.65282582  0.51154756  1
  In  In10  1  0.16365716  0.50209987  -0.01269494  1
  In  In11  1  0.16624940  0.15712475  0.68315175  1
  In  In12  1  0.84944071  0.64191333  0.83098807  1
  In  In13  1  0.51070597  0.31576411  0.16176788  1
  In  In14  1  0.50941270  0.80400954  0.68647734  1
  In  In15  1  -0.01852690  0.03259316  0.67931911  1
  In  In16  1  0.32143864  0.16383014  0.85024442  1
  In  In17  1  0.68345203  0.65668576  0.65789397  1
  In  In18  1  -0.04276027  0.32301438  -0.01225449  1
  In  In19  1  0.82785801  0.47700430  0.31283971  1
  In  In20  1  0.36704484  0.34609926  0.71202416  1
  In  In21  1  0.16650189  -0.01112941  0.49864907  1
  In  In22  1  0.67964292  0.32408146  -0.01541393  1
  In  In23  1  0.83733027  0.17152117  0.31596545  1
  In  In24  1  0.17473700  0.65076537  0.83221728  1
  In  In25  1  0.51821798  0.63710784  0.16954592  1
  In  In26  1  0.16213847  0.87853814  0.29496569  1
  In  In27  1  0.53473708  0.33642190  0.54417088  1
  In  In28  1  0.66910417  0.67513644  -0.00306015  1
  In  In29  1  0.85141299  0.84009171  0.67253108  1
  In  In30  1  0.89322508  0.66788553  0.16091901  1
  In  In31  1  0.82141497  0.65195896  0.49466009  1
  In  In32  1  -0.01581490  0.33895907  0.67212923  1
  In  In33  1  0.82882231  0.03177819  0.14051510  1
  In  In34  1  0.53955032  0.19168111  0.68690904  1
  In  In35  1  0.14561330  0.34998933  0.49055034  1
  In  In36  1  -0.01401345  0.47630714  0.50919063  1
  In  In37  1  0.16031115  0.16101002  0.01565709  1
  In  In38  1  0.01347346  0.85228224  0.84439933  1
  In  In39  1  0.49797337  0.02099672  0.14507041  1
  In  In40  1  0.35538832  0.16126553  0.48028490  1
  In  In41  1  0.33746762  0.49872605  0.51622520  1
  In  In42  1  0.17134206  0.66956989  0.50071697  1
  In  In43  1  0.13464116  0.51070346  0.35368309  1
  In  In44  1  -0.01139090  0.17406759  0.84758973  1
  In  In45  1  0.29890606  0.85932835  0.13812875  1
  In  In46  1  0.34515836  0.65959976  -0.01796845  1
  In  In47  1  0.67700438  0.47909529  0.14585273  1
  In  In48  1  -0.02790669  0.83417929  0.49125034  1
  In  In49  1  0.49777667  0.51860585  0.34713509  1
  In  In50  1  0.48765734  0.65257891  0.86522158  1
  In  In51  1  0.48772923  0.85172475  0.00315197  1
  In  In52  1  0.33108031  0.33091736  0.33595199  1
  In  In53  1  0.52616807  0.05706603  0.84504493  1
  In  In54  1  0.50498331  0.18102187  0.32589399  1
  In  In55  1  0.66369132  0.00858097  0.33136605  1
  In  In56  1  0.49395894  0.01396416  0.51202533  1
  In  In57  1  -0.01261600  0.49936381  0.17814760  1
  In  In58  1  -0.01227425  0.16381032  0.48057359  1
  In  In59  1  0.48545248  0.84946659  0.34380530  1
  In  In60  1  0.84528011  0.81725683  0.32629578  1
  In  In61  1  0.67411223  0.87562097  0.82049018  1
  In  In62  1  0.33955613  -0.02533442  0.68382905  1
  In  In63  1  0.31107801  0.82464646  0.47832966  1
  In  In64  1  0.67895059  0.65190370  0.35502597  1
  In  In65  1  0.34559845  0.33898503  -0.02398843  1
  In  In66  1  0.68399797  0.31980696  0.32318348  1
  In  In67  1  0.66797796  0.48666590  0.83426012  1
  In  In68  1  0.33165338  0.84901634  0.86711829  1
  In  In69  1  0.00123877  0.00961157  -0.00075058  1
  In  In70  1  0.14341994  0.31359781  0.16374693  1
  In  In71  1  0.01347910  0.67283812  0.32030956  1
  Te  Te72  1  0.05966900  0.10046357  0.11195230  1
  Te  Te73  1  0.08953320  0.07887873  0.40414745  1
  Te  Te74  1  0.08781405  0.07229490  0.78112458  1
  Te  Te75  1  0.07071677  0.41309856  0.07444116  1
  Te  Te76  1  0.04279757  0.39607548  0.38970049  1
  Te  Te77  1  0.06473219  0.40546283  0.78103024  1
  Te  Te78  1  0.02319853  0.71514513  0.10754008  1
  Te  Te79  1  0.09223750  0.77065234  0.41799718  1
  Te  Te80  1  0.07934025  0.75747030  0.73787674  1
  Te  Te81  1  0.38599586  0.09251023  0.08367318  1
  Te  Te82  1  0.42435322  0.06507797  0.38451677  1
  Te  Te83  1  0.41590612  0.09539305  0.73547765  1
  Te  Te84  1  0.42696602  0.41779238  0.08260974  1
  Te  Te85  1  0.42990980  0.40222215  0.42671490  1
  Te  Te86  1  0.46591614  0.40802795  0.80076013  1
  Te  Te87  1  0.43269115  0.73616494  0.08557459  1
  Te  Te88  1  0.40922010  0.73325662  0.40569388  1
  Te  Te89  1  0.40207529  0.74737906  0.77428595  1
  Te  Te90  1  0.74589022  0.09296756  0.03365233  1
  Te  Te91  1  0.74618898  0.09833775  0.42036581  1
  Te  Te92  1  0.78438851  0.12375510  0.78303238  1
  Te  Te93  1  0.77786452  0.40587508  0.06424368  1
  Te  Te94  1  0.74038518  0.41996310  0.41627391  1
  Te  Te95  1  0.73130463  0.38497815  0.74310724  1
  Te  Te96  1  0.75438070  0.74784214  0.10153719  1
  Te  Te97  1  0.74691733  0.76928609  0.43094901  1
  Te  Te98  1  0.75756590  0.75195313  0.76442769  1
  Te  Te99  1  0.07959324  0.23258501  0.26826057  1
  Te  Te100  1  0.08021260  0.24179220  0.58728284  1
  Te  Te101  1  0.08644332  0.25922429  0.92708374  1
  Te  Te102  1  0.10495042  0.59218217  0.23024969  1
  Te  Te103  1  0.08375753  0.57405261  0.58083799  1
  Te  Te104  1  0.06797562  0.58175617  0.90557706  1
  Te  Te105  1  0.11481890  0.97422380  0.19010345  1
  Te  Te106  1  0.05924901  0.92672336  0.58997914  1
  Te  Te107  1  0.09311900  0.89578339  0.96343918  1
  Te  Te108  1  0.39803784  0.23933217  0.23493005  1
  Te  Te109  1  0.41428288  0.24888667  0.59141181  1
  Te  Te110  1  0.43272543  0.23705401  0.91259639  1
  Te  Te111  1  0.40048000  0.57543939  0.24479230  1
  Te  Te112  1  0.43599031  0.55643362  0.60875017  1
  Te  Te113  1  0.39220773  0.54309029  0.90005999  1
  Te  Te114  1  0.42190217  0.90705398  0.21975231  1
  Te  Te115  1  0.41406625  0.89722801  0.57438335  1
  Te  Te116  1  0.42474475  0.95833529  0.91625075  1
  Te  Te117  1  0.74993603  0.24212021  0.21527421  1
  Te  Te118  1  0.67131666  0.27432374  0.63062397  1
  Te  Te119  1  0.75876514  0.24541918  0.88157661  1
  Te  Te120  1  0.74712658  0.58551547  0.23658968  1
  Te  Te121  1  0.78031411  0.56090894  0.60236763  1
  Te  Te122  1  0.75699286  0.57035572  0.92941040  1
  Te  Te123  1  0.75508095  0.91943638  0.24498825  1
  Te  Te124  1  0.74336955  0.92693145  0.61118958  1
  Te  Te125  1  0.75317678  0.94829342  0.92030592  1
  Te  Te126  1  0.25699780  0.26211512  0.07827470  1
  Te  Te127  1  0.24022671  0.24303687  0.42346092  1
  Te  Te128  1  0.24424439  0.26072006  0.76108675  1
  Te  Te129  1  0.24224165  0.59950758  0.07769923  1
  Te  Te130  1  0.25723670  0.57938436  0.41254591  1
  Te  Te131  1  0.25954232  0.57658715  0.73752524  1
  Te  Te132  1  0.22545244  0.95366096  0.04945449  1
  Te  Te133  1  0.26466015  0.93964453  0.39079898  1
  Te  Te134  1  0.22910947  0.91445123  0.76634393  1
  Te  Te135  1  0.58519156  0.23332101  0.06236227  1
  Te  Te136  1  0.59182339  0.25084804  0.42619834  1
  Te  Te137  1  0.63424502  0.25645925  0.78589082  1
  Te  Te138  1  0.58227656  0.56244881  0.05537213  1
  Te  Te139  1  0.60113115  0.56261921  0.45034875  1
  Te  Te140  1  0.58917956  0.59817805  0.76398532  1
  Te  Te141  1  0.59975543  0.93667045  0.06315742  1
  Te  Te142  1  0.58911557  0.91931432  0.42912873  1
  Te  Te143  1  0.56023491  0.93761218  0.74052658  1
  Te  Te144  1  0.88456571  0.27549936  0.10920061  1
  Te  Te145  1  0.89239331  0.26138471  0.42289200  1
  Te  Te146  1  0.90339415  0.22823525  0.73526511  1
  Te  Te147  1  0.91543838  0.55776240  0.06329161  1
  Te  Te148  1  0.92025222  0.58284067  0.39867413  1
  Te  Te149  1  0.89863530  0.52456533  0.75113045  1
  Te  Te150  1  0.90721030  0.91478258  0.07886411  1
  Te  Te151  1  0.92248308  0.93695320  0.39223417  1
  Te  Te152  1  0.90836281  0.93861635  0.77571636  1
  Te  Te153  1  0.27317875  0.06564806  0.18348146  1
  Te  Te154  1  0.25854268  0.07528027  0.58464913  1
  Te  Te155  1  0.23906547  0.06668616  0.92902096  1
  Te  Te156  1  0.22860021  0.41473202  0.26099392  1
  Te  Te157  1  0.24910523  0.39838585  0.59152466  1
  Te  Te158  1  0.25561229  0.42750073  0.89650309  1
  Te  Te159  1  0.24011158  0.76617752  0.23732744  1
  Te  Te160  1  0.27613284  0.72910962  0.59406170  1
  Te  Te161  1  0.23304778  0.75171112  0.93134542  1
  Te  Te162  1  0.59561429  0.10127830  0.23213871  1
  Te  Te163  1  0.60113759  0.09146328  0.58366722  1
  Te  Te164  1  0.61826241  0.11688861  0.94441138  1
  Te  Te165  1  0.57751077  0.42403804  0.25609655  1
  Te  Te166  1  0.61354850  0.42200984  0.63634097  1
  Te  Te167  1  0.57003642  0.40780303  0.91869333  1
  Te  Te168  1  0.58223031  0.74271999  0.26859752  1
  Te  Te169  1  0.59376389  0.74918658  0.57448016  1
  Te  Te170  1  0.58774527  0.77203832  0.90954066  1
  Te  Te171  1  0.92788472  0.08446110  0.23593142  1
  Te  Te172  1  0.88865405  0.09788249  0.57874573  1
  Te  Te173  1  0.90387497  0.11629239  0.95813742  1
  Te  Te174  1  0.90501287  0.38094524  0.22638934  1
  Te  Te175  1  0.88918062  0.37937186  0.56425317  1
  Te  Te176  1  0.92732152  0.40419212  0.86826957  1
  Te  Te177  1  0.96746551  0.79345138  0.23230580  1
  Te  Te178  1  0.92185220  0.72869947  0.59220551  1
  Te  Te179  1  0.92711667  0.74506603  0.91320966  1
