# generated using pymatgen
data_In2Te3
_symmetry_space_group_name_H-M   'P 1'
_cell_length_a   18.93028071
_cell_length_b   18.94484983
_cell_length_c   18.93728003
_cell_angle_alpha   90.02598529
_cell_angle_beta   89.82750707
_cell_angle_gamma   89.88077090
_symmetry_Int_Tables_number   1
_chemical_formula_structural   In2Te3
_chemical_formula_sum   'In72 Te108'
_cell_volume   6791.45563740
_cell_formula_units_Z   36
loop_
 _symmetry_equiv_pos_site_id
 _symmetry_equiv_pos_as_xyz
  1  'x, y, z'
loop_
 _atom_site_type_symbol
 _atom_site_label
 _atom_site_symmetry_multiplicity
 _atom_site_fract_x
 _atom_site_fract_y
 _atom_site_fract_z
 _atom_site_occupancy
  In  In0  1  0.85994211  0.79698869  0.30514163  1
  In  In1  1  0.84366259  0.68407575  0.83943472  1
  In  In2  1  0.17440816  0.81730914  0.32340508  1
  In  In3  1  0.49029967  0.49447180  -0.00357427  1
  In  In4  1  0.32314228  0.33039811  0.67849893  1
  In  In5  1  0.33329222  0.64398573  0.00364227  1
  In  In6  1  0.15176847  0.69363309  0.52368083  1
  In  In7  1  0.33164141  0.35720265  -0.00276324  1
  In  In8  1  0.47504731  0.34059660  0.48921152  1
  In  In9  1  0.29625292  0.82155068  0.52700629  1
  In  In10  1  0.49186536  0.14399741  0.31811235  1
  In  In11  1  0.15013429  0.18266302  0.33840085  1
  In  In12  1  0.35125410  -0.01179541  0.35090563  1
  In  In13  1  0.82830235  0.33806814  0.84134837  1
  In  In14  1  0.35611312  0.01041758  -0.00967968  1
  In  In15  1  0.31274546  0.53284728  0.80826863  1
  In  In16  1  0.69265748  -0.01890677  0.33743842  1
  In  In17  1  0.15849668  0.51298507  -0.00961348  1
  In  In18  1  0.65442006  0.34539300  0.30512021  1
  In  In19  1  0.68938951  0.52855835  0.51029005  1
  In  In20  1  -0.01722391  -0.01210902  -0.02537822  1
  In  In21  1  -0.00944838  0.67896606  0.67530789  1
  In  In22  1  0.81709742  0.15268478  0.67222546  1
  In  In23  1  -0.00471072  0.37477690  0.66849552  1
  In  In24  1  0.82097880  -0.00580476  0.14987695  1
  In  In25  1  0.85635857  0.34768491  0.49363820  1
  In  In26  1  0.14434379  0.14768624  0.66997717  1
  In  In27  1  0.80664907  0.16555242  0.33182623  1
  In  In28  1  0.33713844  0.51220708  0.49148785  1
  In  In29  1  0.15330139  0.18055655  -0.01079064  1
  In  In30  1  -0.04011060  0.18824081  0.12613392  1
  In  In31  1  0.69193650  0.49200890  0.12424634  1
  In  In32  1  0.17530162  0.00299349  0.15379873  1
  In  In33  1  0.68917654  0.50360622  0.86218262  1
  In  In34  1  0.17608109  0.34018416  0.48088393  1
  In  In35  1  0.85277076  0.50076329  0.32570737  1
  In  In36  1  0.67434428  0.82237335  0.48527323  1
  In  In37  1  0.33763032  0.16488238  0.16709188  1
  In  In38  1  0.00047965  0.16363776  0.83286851  1
  In  In39  1  0.54813265  0.80847653  -0.02804996  1
  In  In40  1  0.32883667  0.81838337  0.18636733  1
  In  In41  1  0.65200430  0.33728312  0.69130051  1
  In  In42  1  -0.00605348  0.51689868  0.83996434  1
  In  In43  1  0.65326955  0.64247224  0.32872071  1
  In  In44  1  0.01885108  0.63322058  0.31113052  1
  In  In45  1  -0.01808214  0.50916742  0.13562259  1
  In  In46  1  0.32484969  -0.00287720  0.66170039  1
  In  In47  1  0.14174271  0.80764708  0.02072174  1
  In  In48  1  0.84927541  0.82016402  -0.00342863  1
  In  In49  1  0.84707698  -0.00580227  0.51488221  1
  In  In50  1  0.01262242  0.00347077  0.33358551  1
  In  In51  1  0.03124817  0.37237742  0.30370510  1
  In  In52  1  0.50279551  0.83612332  0.33939124  1
  In  In53  1  0.52287342  0.17020422  0.00519387  1
  In  In54  1  0.33831918  0.81346590  0.84310975  1
  In  In55  1  0.50348393  0.67514013  0.50668843  1
  In  In56  1  0.31272832  0.16047836  0.81084595  1
  In  In57  1  0.32112797  0.66679621  0.31957565  1
  In  In58  1  0.49908760  0.83023504  0.68371291  1
  In  In59  1  0.66183370  0.18712352  0.15390039  1
  In  In60  1  0.66602992  -0.01691218  -0.01809786  1
  In  In61  1  0.14525617  0.83817790  0.68410532  1
  In  In62  1  0.50269583  0.29760976  0.83486161  1
  In  In63  1  0.50050038  0.66023350  0.16432934  1
  In  In64  1  -0.01816322  0.82540836  0.52916068  1
  In  In65  1  -0.03111520  0.18038868  0.51248556  1
  In  In66  1  0.16991334  0.37545459  0.18052451  1
  In  In67  1  0.86256947  0.84805325  0.69867697  1
  In  In68  1  0.67801941  -0.00615580  0.70605326  1
  In  In69  1  0.50277414  0.17244528  0.68691835  1
  In  In70  1  0.63869116  0.18202985  0.52892031  1
  In  In71  1  0.52468200  0.51704146  0.68890345  1
  Te  Te72  1  0.07069668  0.08338987  0.07899738  1
  Te  Te73  1  0.07504512  0.09400591  0.43631890  1
  Te  Te74  1  0.07732802  0.05203598  0.76511730  1
  Te  Te75  1  0.07715028  0.40803869  0.06597329  1
  Te  Te76  1  0.07259387  0.43052445  0.42958644  1
  Te  Te77  1  0.09045886  0.44291846  0.75452362  1
  Te  Te78  1  0.07767969  0.71521120  0.11428453  1
  Te  Te79  1  0.06344941  0.75869876  0.41047011  1
  Te  Te80  1  0.06345026  0.75774066  0.77823026  1
  Te  Te81  1  0.44034373  0.07600876  0.09603802  1
  Te  Te82  1  0.42591221  0.08257512  0.43296720  1
  Te  Te83  1  0.41984635  0.06793787  0.75941311  1
  Te  Te84  1  0.39913259  0.43850222  0.10043837  1
  Te  Te85  1  0.40365716  0.42387198  0.39191226  1
  Te  Te86  1  0.43180984  0.40579595  0.75290933  1
  Te  Te87  1  0.41435916  0.75165534  0.07724064  1
  Te  Te88  1  0.39936311  0.75597807  0.41939719  1
  Te  Te89  1  0.42544728  0.72840952  0.75980983  1
  Te  Te90  1  0.74199611  0.09112896  0.06761509  1
  Te  Te91  1  0.74594285  0.08914612  0.44976017  1
  Te  Te92  1  0.78082841  0.06547486  0.78550870  1
  Te  Te93  1  0.77473337  0.39233144  0.04502574  1
  Te  Te94  1  0.74421110  0.41740208  0.41277290  1
  Te  Te95  1  0.75392667  0.43292484  0.74111347  1
  Te  Te96  1  0.76914291  0.71125982  0.05878913  1
  Te  Te97  1  0.75679214  0.73107250  0.39761113  1
  Te  Te98  1  0.74821567  0.79184674  0.78705158  1
  Te  Te99  1  0.07615791  0.24314753  0.22256210  1
  Te  Te100  1  0.07556310  0.26504526  0.57756767  1
  Te  Te101  1  0.06977221  0.26807368  0.90891713  1
  Te  Te102  1  0.09111231  0.52106626  0.24283615  1
  Te  Te103  1  0.07822704  0.59046758  0.59591102  1
  Te  Te104  1  0.06041163  0.60848486  0.93655290  1
  Te  Te105  1  0.08794828  0.91167099  0.23910965  1
  Te  Te106  1  0.08837063  0.91464873  0.57241582  1
  Te  Te107  1  0.10704386  0.92005722  0.93476694  1
  Te  Te108  1  0.43929684  0.25161387  0.23113728  1
  Te  Te109  1  0.41124491  0.24450242  0.58878103  1
  Te  Te110  1  0.39424253  0.23540285  0.92423743  1
  Te  Te111  1  0.41778766  0.57888481  0.25451473  1
  Te  Te112  1  0.42247002  0.58430468  0.59768166  1
  Te  Te113  1  0.42360525  0.58849310  0.89444166  1
  Te  Te114  1  0.42876225  0.92161883  0.23821236  1
  Te  Te115  1  0.41278759  0.90247713  0.57936359  1
  Te  Te116  1  0.43519506  0.90332074  0.91946910  1
  Te  Te117  1  0.76351389  0.26988647  0.23061191  1
  Te  Te118  1  0.75442540  0.26670502  0.57982433  1
  Te  Te119  1  0.73849299  0.27781776  0.94633924  1
  Te  Te120  1  0.75565613  0.57777200  0.23815406  1
  Te  Te121  1  0.73899042  0.63621565  0.58952092  1
  Te  Te122  1  0.77742892  0.59706788  0.94616800  1
  Te  Te123  1  0.75582537  0.88677724  0.23667460  1
  Te  Te124  1  0.75017752  0.90883621  0.59282606  1
  Te  Te125  1  0.77296950  0.91048104  0.90551817  1
  Te  Te126  1  0.24784216  0.25847677  0.08699125  1
  Te  Te127  1  0.26738348  0.24875361  0.40296107  1
  Te  Te128  1  0.21265694  0.25698597  0.75323418  1
  Te  Te129  1  0.26481421  0.54549513  0.09071437  1
  Te  Te130  1  0.23453106  0.60400514  0.42645240  1
  Te  Te131  1  0.21460587  0.61295593  0.73809877  1
  Te  Te132  1  0.26800333  0.91085218  0.07722099  1
  Te  Te133  1  0.23797215  0.91491924  0.42103842  1
  Te  Te134  1  0.25124559  0.91235383  0.76293180  1
  Te  Te135  1  0.55490737  0.27681053  0.10222064  1
  Te  Te136  1  0.58165104  0.25105925  0.40674951  1
  Te  Te137  1  0.62006824  0.21719118  0.77508575  1
  Te  Te138  1  0.58754027  0.59066241  0.06151655  1
  Te  Te139  1  0.56779504  0.56342720  0.42516307  1
  Te  Te140  1  0.61253723  0.60061614  0.77480553  1
  Te  Te141  1  0.60463527  0.89022321  0.07830634  1
  Te  Te142  1  0.58190505  0.92938559  0.42870447  1
  Te  Te143  1  0.57688466  0.91392309  0.77683202  1
  Te  Te144  1  0.87522876  0.26782205  0.03241055  1
  Te  Te145  1  0.91903870  0.25275227  0.38887990  1
  Te  Te146  1  0.91109885  0.25643328  0.73338233  1
  Te  Te147  1  0.88016832  0.60490681  0.08008579  1
  Te  Te148  1  0.91922177  0.59725833  0.41277339  1
  Te  Te149  1  0.89481854  0.58132027  0.74209664  1
  Te  Te150  1  0.93141012  0.90848939  0.09363509  1
  Te  Te151  1  0.90705873  0.91300094  0.40176980  1
  Te  Te152  1  0.96617592  0.94371679  0.73721692  1
  Te  Te153  1  0.24935333  0.07757732  0.26393176  1
  Te  Te154  1  0.24910752  0.09442540  0.58290645  1
  Te  Te155  1  0.24151853  0.07795105  0.91693893  1
  Te  Te156  1  0.24664459  0.37161194  0.30606235  1
  Te  Te157  1  0.25229096  0.42468802  0.58410874  1
  Te  Te158  1  0.24661149  0.42632298  0.89385218  1
  Te  Te159  1  0.21748679  0.71605695  0.21443898  1
  Te  Te160  1  0.25880479  0.72321375  0.63762736  1
  Te  Te161  1  0.23849334  0.73309659  0.92698916  1
  Te  Te162  1  0.61310880  0.07587431  0.25210250  1
  Te  Te163  1  0.58277730  0.06787962  0.60714993  1
  Te  Te164  1  0.57888425  0.07762357  0.90744395  1
  Te  Te165  1  0.58978782  0.44607476  0.22142676  1
  Te  Te166  1  0.57466767  0.41077217  0.58381098  1
  Te  Te167  1  0.58025268  0.40764642  0.90998245  1
  Te  Te168  1  0.58961731  0.75360499  0.24699219  1
  Te  Te169  1  0.60510979  0.74262544  0.59649820  1
  Te  Te170  1  0.62538430  0.73680187  0.86941204  1
  Te  Te171  1  0.90469430  0.07849290  0.25218616  1
  Te  Te172  1  0.93410154  0.06900985  0.61160108  1
  Te  Te173  1  0.90032027  0.09650189  0.91913550  1
  Te  Te174  1  0.90835710  0.40580393  0.22177290  1
  Te  Te175  1  0.91580168  0.45443383  0.57287297  1
  Te  Te176  1  0.90683332  0.42971862  0.92645220  1
  Te  Te177  1  0.95262140  0.72525434  0.20955902  1
  Te  Te178  1  0.87323031  0.73749231  0.58536340  1
  Te  Te179  1  0.95380755  0.76203484  0.90383631  1
