# generated using pymatgen
data_In2Te3
_symmetry_space_group_name_H-M   'P 1'
_cell_length_a   18.95678848
_cell_length_b   18.94948435
_cell_length_c   19.00233769
_cell_angle_alpha   90.10137930
_cell_angle_beta   89.83049755
_cell_angle_gamma   89.76006518
_symmetry_Int_Tables_number   1
_chemical_formula_structural   In2Te3
_chemical_formula_sum   'In72 Te108'
_cell_volume   6825.94515556
_cell_formula_units_Z   36
loop_
 _symmetry_equiv_pos_site_id
 _symmetry_equiv_pos_as_xyz
  1  'x, y, z'
loop_
 _atom_site_type_symbol
 _atom_site_label
 _atom_site_symmetry_multiplicity
 _atom_site_fract_x
 _atom_site_fract_y
 _atom_site_fract_z
 _atom_site_occupancy
  In  In0  1  0.81110801  0.82522328  -0.01771238  1
  In  In1  1  0.18938140  0.50202443  0.33906345  1
  In  In2  1  0.66012692  0.02616811  0.02347976  1
  In  In3  1  -0.05568932  0.76471866  0.48610267  1
  In  In4  1  0.17465201  0.35145553  0.48839615  1
  In  In5  1  0.34446145  0.34207273  0.67297819  1
  In  In6  1  0.53282415  0.34899576  0.46121165  1
  In  In7  1  0.50589900  0.01461220  0.85781721  1
  In  In8  1  -0.01869626  0.22013466  0.52806225  1
  In  In9  1  0.16072725  0.03049344  0.81966650  1
  In  In10  1  0.11267100  0.63842039  0.50546219  1
  In  In11  1  0.17689408  0.70165553  0.82505033  1
  In  In12  1  0.66224763  -0.01795229  0.32339860  1
  In  In13  1  0.14526373  0.82923770  0.66586777  1
  In  In14  1  0.82543358  0.17322736  0.32586155  1
  In  In15  1  0.80923941  -0.00314085  0.49043759  1
  In  In16  1  0.66307602  0.33061164  0.67384989  1
  In  In17  1  0.37769468  0.25336536  0.08159290  1
  In  In18  1  0.68360308  0.49651174  0.82161417  1
  In  In19  1  -0.00025235  0.66822709  0.03251210  1
  In  In20  1  0.16756794  0.01307254  0.50743838  1
  In  In21  1  0.15636463  0.48873517  -0.02379585  1
  In  In22  1  0.55973858  0.63476247  0.49833784  1
  In  In23  1  0.18199917  0.81883442  0.30801959  1
  In  In24  1  0.34328520  0.33688495  0.30414964  1
  In  In25  1  0.85553764  0.00996644  0.81205935  1
  In  In26  1  -0.02570709  0.49863254  0.85347884  1
  In  In27  1  0.52606344  0.34244024  0.18114611  1
  In  In28  1  0.51775779  0.63843249  0.17881736  1
  In  In29  1  0.34691107  0.67523533  0.64421596  1
  In  In30  1  -0.03775813  0.03988074  0.00600679  1
  In  In31  1  0.34244002  0.18027578  0.83686321  1
  In  In32  1  0.34473300  0.49042870  0.49957926  1
  In  In33  1  0.70436376  0.33205937  -0.01357551  1
  In  In34  1  0.49489038  0.33481244  0.82274506  1
  In  In35  1  0.67121659  0.84353409  0.82199763  1
  In  In36  1  0.51455079  0.66407109  0.84200114  1
  In  In37  1  0.35355523  0.82625277  0.46927530  1
  In  In38  1  0.33837636  0.82053262  0.16183883  1
  In  In39  1  0.82852624  0.66297551  0.80163216  1
  In  In40  1  0.18141475  0.67302411  0.15415938  1
  In  In41  1  0.84380504  0.57453869  0.21852388  1
  In  In42  1  0.65306733  -0.00847874  0.65105052  1
  In  In43  1  0.68690297  0.80218462  0.49636321  1
  In  In44  1  0.00993899  -0.01755278  0.35625556  1
  In  In45  1  0.67177215  0.83067906  0.15158823  1
  In  In46  1  0.81058948  -0.00614577  0.16838135  1
  In  In47  1  0.80610810  0.34044599  0.50220872  1
  In  In48  1  0.35580184  0.65851597  0.02217580  1
  In  In49  1  0.34149693  -0.00080103  0.62384745  1
  In  In50  1  0.15972870  0.02931434  0.20199825  1
  In  In51  1  0.18259464  0.88124451  -0.01942306  1
  In  In52  1  0.65993872  0.66364653  -0.00672372  1
  In  In53  1  0.16835876  0.19192272  0.34597454  1
  In  In54  1  -0.01721257  0.62414513  0.37267258  1
  In  In55  1  0.37080496  0.00936602  0.36324100  1
  In  In56  1  0.51068206  0.80826456  0.32995502  1
  In  In57  1  0.80046857  0.36189062  0.17581233  1
  In  In58  1  0.33619580  0.06034131  0.04868272  1
  In  In59  1  0.00320507  0.18578875  0.19619466  1
  In  In60  1  -0.02511539  -0.00315898  0.67019027  1
  In  In61  1  0.82834702  0.18939528  0.68157846  1
  In  In62  1  0.66387116  0.17716695  0.19025289  1
  In  In63  1  0.32812303  0.52720063  0.83397558  1
  In  In64  1  0.49280499  0.17202328  0.65074550  1
  In  In65  1  0.02314630  0.82610487  0.82975498  1
  In  In66  1  -0.02708140  0.79198483  0.16544908  1
  In  In67  1  0.15343490  0.34279329  0.82670418  1
  In  In68  1  0.35410069  0.86173902  0.83649897  1
  In  In69  1  -0.01478354  0.31503762  -0.00312619  1
  In  In70  1  -0.00503695  0.19017237  0.80798038  1
  In  In71  1  0.01770968  0.48474657  0.17575664  1
  Te  Te72  1  0.07147669  0.09555676  0.09278591  1
  Te  Te73  1  0.06957516  0.10314340  0.42543845  1
  Te  Te74  1  0.07820890  0.09863065  0.71508173  1
  Te  Te75  1  0.08838768  0.39559618  0.07364744  1
  Te  Te76  1  0.07765493  0.43679720  0.41371674  1
  Te  Te77  1  0.08453414  0.45650376  0.76609861  1
  Te  Te78  1  0.10657233  0.77675190  0.06875842  1
  Te  Te79  1  0.08229991  0.75346087  0.40996944  1
  Te  Te80  1  0.05864061  0.72021182  0.72383930  1
  Te  Te81  1  0.44836831  0.12447813  0.12049879  1
  Te  Te82  1  0.46345978  0.09674458  0.43435101  1
  Te  Te83  1  0.40658445  0.07665824  0.74481540  1
  Te  Te84  1  0.41426745  0.39511747  0.10182134  1
  Te  Te85  1  0.42460510  0.43567718  0.38533806  1
  Te  Te86  1  0.42562733  0.44595421  0.74736865  1
  Te  Te87  1  0.45122048  0.75198283  0.08970446  1
  Te  Te88  1  0.44011001  0.71295859  0.42167549  1
  Te  Te89  1  0.41805721  0.74836513  0.75750703  1
  Te  Te90  1  0.76532293  0.11263735  0.08970421  1
  Te  Te91  1  0.72664235  0.09226919  0.40729612  1
  Te  Te92  1  0.74177951  0.07930120  0.74049646  1
  Te  Te93  1  0.72904067  0.44725985  0.07840686  1
  Te  Te94  1  0.67777883  0.40640196  0.46080074  1
  Te  Te95  1  0.76516110  0.42968101  0.71600177  1
  Te  Te96  1  0.76510266  0.72787515  0.08673486  1
  Te  Te97  1  0.76878127  0.69482708  0.42766576  1
  Te  Te98  1  0.71362073  0.72989590  0.73608965  1
  Te  Te99  1  0.09319900  0.28272638  0.25815186  1
  Te  Te100  1  0.09464702  0.28208826  0.59233173  1
  Te  Te101  1  0.08965848  0.23824765  0.91684351  1
  Te  Te102  1  0.08966012  0.59815859  0.24893791  1
  Te  Te103  1  0.04491657  0.51954946  0.55637173  1
  Te  Te104  1  0.09267514  0.61310841  0.91870262  1
  Te  Te105  1  0.06816208  0.90534237  0.23846517  1
  Te  Te106  1  0.06651976  0.91959530  0.57393157  1
  Te  Te107  1  0.05620360  0.95777694  0.90668792  1
  Te  Te108  1  0.44702665  0.23252726  0.26386646  1
  Te  Te109  1  0.43388111  0.28179671  0.56769633  1
  Te  Te110  1  0.42665198  0.25658347  0.93194626  1
  Te  Te111  1  0.38562002  0.59570307  0.22160936  1
  Te  Te112  1  0.43921657  0.57400448  0.58215477  1
  Te  Te113  1  0.43731910  0.56805501  0.93147633  1
  Te  Te114  1  0.41850642  0.90799663  0.26035928  1
  Te  Te115  1  0.43165990  0.90048427  0.56817442  1
  Te  Te116  1  0.40799340  0.94479646  0.94732253  1
  Te  Te117  1  0.72753500  0.28070743  0.28134441  1
  Te  Te118  1  0.72952766  0.23196631  0.57631150  1
  Te  Te119  1  0.78651731  0.27004081  0.88229170  1
  Te  Te120  1  0.71292963  0.54442982  0.28200252  1
  Te  Te121  1  0.72521506  0.61259441  0.54423862  1
  Te  Te122  1  0.76484466  0.58620393  0.91509787  1
  Te  Te123  1  0.76426231  0.88667006  0.26197047  1
  Te  Te124  1  0.75955677  0.89945332  0.59413162  1
  Te  Te125  1  0.75009086  0.94432578  0.91110344  1
  Te  Te126  1  0.25550460  0.17544573  0.10867823  1
  Te  Te127  1  0.27827304  0.26299827  0.42138774  1
  Te  Te128  1  0.24698746  0.25079872  0.74412001  1
  Te  Te129  1  0.24892337  0.56438140  0.07367924  1
  Te  Te130  1  0.24465865  0.59580073  0.44442753  1
  Te  Te131  1  0.24517621  0.60223710  0.73152971  1
  Te  Te132  1  0.24974893  0.93608452  0.11391052  1
  Te  Te133  1  0.24040314  0.92266140  0.40663893  1
  Te  Te134  1  0.23673737  0.91641649  0.75309451  1
  Te  Te135  1  0.60591502  0.26092035  0.07895779  1
  Te  Te136  1  0.54337560  0.22021030  0.38089572  1
  Te  Te137  1  0.58307477  0.23064352  0.75674061  1
  Te  Te138  1  0.59797177  0.56044905  0.07960511  1
  Te  Te139  1  0.58490691  0.55925679  0.37171008  1
  Te  Te140  1  0.60404821  0.59696474  0.74518158  1
  Te  Te141  1  0.57858164  0.93011013  0.09808614  1
  Te  Te142  1  0.58818563  0.89855006  0.42359484  1
  Te  Te143  1  0.56229841  0.92117643  0.75067244  1
  Te  Te144  1  0.90316343  0.26241352  0.11202159  1
  Te  Te145  1  0.91045815  0.27037667  0.40681036  1
  Te  Te146  1  0.93826076  0.28274356  0.70767055  1
  Te  Te147  1  0.91889368  0.55306887  0.08162337  1
  Te  Te148  1  0.86830748  0.55619912  0.44667577  1
  Te  Te149  1  0.89163591  0.54410443  0.73772280  1
  Te  Te150  1  0.90688026  0.91286738  0.07243002  1
  Te  Te151  1  0.90200898  0.89839689  0.41971640  1
  Te  Te152  1  0.90787101  0.88283081  0.74553105  1
  Te  Te153  1  0.26749643  0.09330224  0.28379151  1
  Te  Te154  1  0.26449402  0.10621544  0.56428310  1
  Te  Te155  1  0.25297864  0.09043358  0.91995790  1
  Te  Te156  1  0.23312264  0.40736304  0.23513693  1
  Te  Te157  1  0.24769178  0.43164730  0.59862509  1
  Te  Te158  1  0.26621034  0.40988664  0.90772315  1
  Te  Te159  1  0.29117342  0.71249816  0.26227477  1
  Te  Te160  1  0.25277920  0.77320048  0.57541403  1
  Te  Te161  1  0.27637740  0.75718571  0.92741325  1
  Te  Te162  1  0.58114175  0.05847243  0.22599942  1
  Te  Te163  1  0.56875167  0.07712684  0.56356011  1
  Te  Te164  1  0.58975283  0.11049195  0.92748809  1
  Te  Te165  1  0.59244875  0.44629715  0.26255943  1
  Te  Te166  1  0.58214521  0.42126704  0.58698579  1
  Te  Te167  1  0.59543785  0.40863281  0.90709763  1
  Te  Te168  1  0.61561232  0.73256037  0.25263478  1
  Te  Te169  1  0.58586802  0.74807392  0.58878676  1
  Te  Te170  1  0.58238968  0.77427733  0.92371924  1
  Te  Te171  1  0.91593157  0.06683096  0.26095476  1
  Te  Te172  1  0.90178746  0.08922883  0.56869542  1
  Te  Te173  1  0.89053364  0.12700928  0.90580179  1
  Te  Te174  1  0.90188263  0.43618317  0.26189904  1
  Te  Te175  1  0.90975384  0.44129732  0.54178296  1
  Te  Te176  1  0.88964708  0.38459832  0.90427700  1
  Te  Te177  1  0.90427194  0.70642744  0.26693137  1
  Te  Te178  1  0.86457226  0.67857196  0.57411182  1
  Te  Te179  1  0.92302626  0.74438728  0.91753819  1
