# generated using pymatgen
data_In2Te3
_symmetry_space_group_name_H-M   'P 1'
_cell_length_a   18.96349831
_cell_length_b   18.97983915
_cell_length_c   18.97189595
_cell_angle_alpha   89.82691856
_cell_angle_beta   90.23832010
_cell_angle_gamma   90.04668719
_symmetry_Int_Tables_number   1
_chemical_formula_structural   In2Te3
_chemical_formula_sum   'In72 Te108'
_cell_volume   6828.35105558
_cell_formula_units_Z   36
loop_
 _symmetry_equiv_pos_site_id
 _symmetry_equiv_pos_as_xyz
  1  'x, y, z'
loop_
 _atom_site_type_symbol
 _atom_site_label
 _atom_site_symmetry_multiplicity
 _atom_site_fract_x
 _atom_site_fract_y
 _atom_site_fract_z
 _atom_site_occupancy
  In  In0  1  0.50002273  0.21942255  0.75218686  1
  In  In1  1  0.68833293  -0.00929134  0.31999623  1
  In  In2  1  0.13935441  0.68077811  0.17296115  1
  In  In3  1  0.16102120  0.31919505  0.15063510  1
  In  In4  1  0.34871028  0.51539982  0.48808260  1
  In  In5  1  0.31591491  -0.01493790  0.67637551  1
  In  In6  1  0.15624999  0.67296604  0.49268046  1
  In  In7  1  0.31379014  0.14715975  0.82160295  1
  In  In8  1  0.82040497  0.01377284  0.85011150  1
  In  In9  1  0.53318867  0.66864359  0.15684774  1
  In  In10  1  0.70581299  0.14067725  0.14792286  1
  In  In11  1  0.15088374  0.66409573  0.83158429  1
  In  In12  1  -0.05333337  0.14646301  0.15577694  1
  In  In13  1  0.17250101  0.49372875  0.67998439  1
  In  In14  1  0.33611660  0.83171494  0.16314561  1
  In  In15  1  0.51094761  0.18674112  -0.01407450  1
  In  In16  1  -0.00731419  0.16726788  0.50094221  1
  In  In17  1  0.49344892  0.80344971  0.65651656  1
  In  In18  1  0.48058062  0.65121183  0.83189699  1
  In  In19  1  0.30794982  0.66912924  0.33676451  1
  In  In20  1  0.84967025  0.33907308  0.14874156  1
  In  In21  1  0.69247617  0.14049713  0.49175103  1
  In  In22  1  0.83384901  0.68249931  0.14350734  1
  In  In23  1  0.68228942  -0.00874999  0.66360784  1
  In  In24  1  0.84854491  -0.01063867  0.47822291  1
  In  In25  1  0.86271826  0.68090625  0.83343401  1
  In  In26  1  0.00467854  0.83525963  0.49338950  1
  In  In27  1  0.15139846  0.85313946  0.00520395  1
  In  In28  1  0.52277347  -0.02569615  0.13402657  1
  In  In29  1  0.16026882  0.00451646  0.85193263  1
  In  In30  1  0.83885477  0.32887424  0.49490788  1
  In  In31  1  0.51914285  0.45332752  0.69075573  1
  In  In32  1  0.00024682  0.48758492  0.49064865  1
  In  In33  1  0.34379891  0.01246283  -0.01036924  1
  In  In34  1  0.31212728  0.35285536  0.34937589  1
  In  In35  1  -0.02301131  0.47984473  0.86120107  1
  In  In36  1  0.00665869  -0.01329971  0.65652439  1
  In  In37  1  0.50355005  0.63987263  0.50637691  1
  In  In38  1  0.66274304  0.49391262  0.83999058  1
  In  In39  1  0.32196405  0.18103139  0.16557180  1
  In  In40  1  0.30495203  0.66431659  0.67045246  1
  In  In41  1  0.84232974  0.18003551  0.69969371  1
  In  In42  1  0.65422102  0.32635516  0.31168601  1
  In  In43  1  0.49716767  0.00070351  0.49741814  1
  In  In44  1  -0.00951402  0.51645322  0.16213404  1
  In  In45  1  0.48290788  0.48378824  0.32101448  1
  In  In46  1  0.70248214  0.34027315  -0.00294663  1
  In  In47  1  0.83988573  0.84486640  0.31685902  1
  In  In48  1  -0.00021481  0.18181622  0.84102859  1
  In  In49  1  0.01570890  0.82819597  0.84171241  1
  In  In50  1  0.33569351  0.49250118  0.16424452  1
  In  In51  1  0.83969990  0.84436083  0.64998519  1
  In  In52  1  0.34023314  0.15129937  0.52945944  1
  In  In53  1  0.16583226  0.49995931  -0.00704050  1
  In  In54  1  0.70108918  0.67975946  0.33246914  1
  In  In55  1  0.68650612  0.65710044  0.64158772  1
  In  In56  1  0.67620428  0.84988608  0.83960978  1
  In  In57  1  0.15191808  0.16602301  0.33374664  1
  In  In58  1  0.51414571  0.01004514  0.86458797  1
  In  In59  1  0.49817767  0.14578794  0.34244501  1
  In  In60  1  0.48556300  0.82927379  0.33006898  1
  In  In61  1  0.16215029  0.32002187  0.84508774  1
  In  In62  1  0.14017348  0.32165815  0.52499134  1
  In  In63  1  0.33744780  0.32800007  0.67598055  1
  In  In64  1  0.34028542  0.67981143  0.00112492  1
  In  In65  1  0.49395653  0.32730055  0.16404262  1
  In  In66  1  0.84339568  0.50818437  0.32182910  1
  In  In67  1  0.01786614  0.86278475  0.17724630  1
  In  In68  1  0.65918443  0.49736172  0.51064156  1
  In  In69  1  0.27755081  0.88039611  0.46964571  1
  In  In70  1  0.83266702  0.49416644  0.67578604  1
  In  In71  1  0.66784559  0.66490810  -0.02086722  1
  Te  Te72  1  0.03402343  0.02232806  0.11862909  1
  Te  Te73  1  0.09912640  0.07936317  0.44404164  1
  Te  Te74  1  0.07482344  0.08139826  0.75303788  1
  Te  Te75  1  0.07244093  0.41718828  0.07696356  1
  Te  Te76  1  0.07664432  0.38911647  0.41274360  1
  Te  Te77  1  0.07462261  0.41506228  0.76348949  1
  Te  Te78  1  0.05711192  0.75520265  0.07088496  1
  Te  Te79  1  0.07662522  0.75110665  0.39788971  1
  Te  Te80  1  0.08162981  0.75220637  0.73734884  1
  Te  Te81  1  0.42948035  0.09867882  0.08653057  1
  Te  Te82  1  0.38986710  0.06664547  0.41198099  1
  Te  Te83  1  0.42733103  0.07171536  0.75071346  1
  Te  Te84  1  0.40803866  0.40462537  0.07193923  1
  Te  Te85  1  0.43361836  0.40097592  0.43613806  1
  Te  Te86  1  0.40977200  0.41021011  0.77535325  1
  Te  Te87  1  0.44095737  0.76314850  0.07915772  1
  Te  Te88  1  0.41361922  0.73480309  0.42464934  1
  Te  Te89  1  0.39314041  0.75263962  0.75790893  1
  Te  Te90  1  0.82429847  0.08507730  0.07766567  1
  Te  Te91  1  0.78411818  0.09616992  0.37863082  1
  Te  Te92  1  0.72860234  0.09638379  0.75988463  1
  Te  Te93  1  0.76886102  0.44282855  0.07939905  1
  Te  Te94  1  0.74117640  0.41467105  0.40280345  1
  Te  Te95  1  0.73086245  0.40734592  0.73950985  1
  Te  Te96  1  0.72554494  0.76157214  0.07715507  1
  Te  Te97  1  0.77917348  0.76233707  0.42249975  1
  Te  Te98  1  0.74948064  0.75023122  0.74360232  1
  Te  Te99  1  0.06817094  0.22465772  0.22122794  1
  Te  Te100  1  0.05433943  0.24231319  0.61128990  1
  Te  Te101  1  0.09315034  0.23368223  0.94277080  1
  Te  Te102  1  0.07212908  0.58716799  0.26316169  1
  Te  Te103  1  0.08730393  0.57574599  0.58677687  1
  Te  Te104  1  0.06134324  0.58878089  0.92770127  1
  Te  Te105  1  0.11069938  0.96203458  0.24323594  1
  Te  Te106  1  0.10045095  0.90390234  0.58237623  1
  Te  Te107  1  0.05067344  0.94475039  0.93684629  1
  Te  Te108  1  0.41243645  0.25809218  0.27373736  1
  Te  Te109  1  0.43714793  0.23645066  0.60870822  1
  Te  Te110  1  0.41670669  0.24254136  0.88273341  1
  Te  Te111  1  0.41424762  0.60209600  0.24584367  1
  Te  Te112  1  0.41710504  0.57338521  0.61156902  1
  Te  Te113  1  0.42358624  0.57380010  0.94259771  1
  Te  Te114  1  0.42032076  0.93228872  0.24052379  1
  Te  Te115  1  0.40962410  0.90489522  0.57601213  1
  Te  Te116  1  0.42839277  0.91145686  0.92792925  1
  Te  Te117  1  0.76164875  0.25043072  0.23824004  1
  Te  Te118  1  0.75623094  0.24052680  0.58664567  1
  Te  Te119  1  0.71415445  0.22130892  0.91001329  1
  Te  Te120  1  0.74903808  0.58336331  0.22949382  1
  Te  Te121  1  0.77980756  0.57667361  0.55618000  1
  Te  Te122  1  0.76867821  0.58070285  0.90204666  1
  Te  Te123  1  0.76045278  0.91782165  0.21261881  1
  Te  Te124  1  0.74172504  0.90932558  0.55251257  1
  Te  Te125  1  0.74130505  0.92919454  0.94574455  1
  Te  Te126  1  0.27974465  0.28377521  0.06973565  1
  Te  Te127  1  0.25228493  0.24557857  0.43655566  1
  Te  Te128  1  0.23137611  0.23834814  0.73417834  1
  Te  Te129  1  0.24262482  0.59902671  0.09519148  1
  Te  Te130  1  0.23021093  0.56329882  0.40951640  1
  Te  Te131  1  0.25800532  0.56997442  0.77939574  1
  Te  Te132  1  0.25400625  0.93154856  0.08353074  1
  Te  Te133  1  0.17518291  0.94437119  0.38515592  1
  Te  Te134  1  0.24419838  0.91045304  0.77887233  1
  Te  Te135  1  0.60249108  0.24756986  0.09640356  1
  Te  Te136  1  0.59479258  0.23477962  0.41771014  1
  Te  Te137  1  0.62468651  0.28585155  0.80236996  1
  Te  Te138  1  0.57283349  0.57627081  0.05166265  1
  Te  Te139  1  0.58569366  0.57818737  0.39526725  1
  Te  Te140  1  0.58758851  0.59000557  0.73442832  1
  Te  Te141  1  0.63415644  0.90451072  0.07333779  1
  Te  Te142  1  0.58422954  0.91819211  0.40629048  1
  Te  Te143  1  0.57523371  0.90844537  0.73406086  1
  Te  Te144  1  0.92319246  0.26198318  0.04460009  1
  Te  Te145  1  0.92309985  0.25205618  0.40386182  1
  Te  Te146  1  0.89930389  0.28445218  0.78965091  1
  Te  Te147  1  0.89400947  0.57255069  0.06504988  1
  Te  Te148  1  0.93784570  0.58735825  0.40088510  1
  Te  Te149  1  0.93401289  0.57956431  0.74864426  1
  Te  Te150  1  0.90114198  0.93964224  0.12088508  1
  Te  Te151  1  0.94601568  0.94968850  0.37072917  1
  Te  Te152  1  0.90584995  0.92342701  0.76114921  1
  Te  Te153  1  0.23819122  0.08758444  0.24050483  1
  Te  Te154  1  0.23444396  0.07437891  0.59398039  1
  Te  Te155  1  0.23234783  0.10418541  0.94256649  1
  Te  Te156  1  0.22904445  0.42159657  0.24567673  1
  Te  Te157  1  0.26073720  0.42069955  0.57835732  1
  Te  Te158  1  0.25191064  0.41448189  0.91401375  1
  Te  Te159  1  0.23253834  0.77112857  0.25518410  1
  Te  Te160  1  0.25436001  0.76076400  0.56780402  1
  Te  Te161  1  0.23520169  0.75532180  0.92293022  1
  Te  Te162  1  0.59035800  0.08293947  0.23991723  1
  Te  Te163  1  0.58719969  0.08378153  0.58574026  1
  Te  Te164  1  0.61317776  0.08976444  0.93991919  1
  Te  Te165  1  0.58667362  0.43203621  0.22468072  1
  Te  Te166  1  0.59262237  0.39030153  0.58311462  1
  Te  Te167  1  0.58534110  0.40049452  0.92468389  1
  Te  Te168  1  0.59935941  0.76380911  0.25461693  1
  Te  Te169  1  0.59634243  0.74784801  0.55900917  1
  Te  Te170  1  0.57407192  0.75350646  0.89731358  1
  Te  Te171  1  0.91672088  0.07416405  0.28556858  1
  Te  Te172  1  0.89348751  0.07195276  0.59747109  1
  Te  Te173  1  0.89658508  0.11459962  0.92829684  1
  Te  Te174  1  0.93308951  0.40735593  0.25484184  1
  Te  Te175  1  0.92387003  0.40454271  0.59457904  1
  Te  Te176  1  0.90769471  0.36607364  0.92821407  1
  Te  Te177  1  0.92776542  0.75020965  0.24019726  1
  Te  Te178  1  0.93083088  0.75055428  0.58853099  1
  Te  Te179  1  0.90619090  0.78233871  0.92761443  1
