# generated using pymatgen
data_In2Te3
_symmetry_space_group_name_H-M   'P 1'
_cell_length_a   18.87362312
_cell_length_b   18.89323958
_cell_length_c   18.87803645
_cell_angle_alpha   89.84605943
_cell_angle_beta   89.87067507
_cell_angle_gamma   89.85917718
_symmetry_Int_Tables_number   1
_chemical_formula_structural   In2Te3
_chemical_formula_sum   'In72 Te108'
_cell_volume   6731.54187240
_cell_formula_units_Z   36
loop_
 _symmetry_equiv_pos_site_id
 _symmetry_equiv_pos_as_xyz
  1  'x, y, z'
loop_
 _atom_site_type_symbol
 _atom_site_label
 _atom_site_symmetry_multiplicity
 _atom_site_fract_x
 _atom_site_fract_y
 _atom_site_fract_z
 _atom_site_occupancy
  In  In0  1  0.00684524  0.67498626  0.65984625  1
  In  In1  1  0.01496400  0.17662591  0.50470824  1
  In  In2  1  0.34715977  0.15268102  0.17345167  1
  In  In3  1  -0.01211771  0.32268907  0.67216771  1
  In  In4  1  0.00339263  0.51073851  0.21528755  1
  In  In5  1  0.78520808  0.00132042  0.16258483  1
  In  In6  1  0.17501617  0.01632600  0.50155602  1
  In  In7  1  0.49192209  0.49536116  0.66873335  1
  In  In8  1  0.83843403  -0.00107031  0.49193770  1
  In  In9  1  0.00401588  0.68869325  0.00668678  1
  In  In10  1  0.49142005  0.00943788  0.82624597  1
  In  In11  1  0.65683222  0.66538022  0.67324530  1
  In  In12  1  0.79471494  0.81516833  0.00588599  1
  In  In13  1  0.01099978  0.85454564  0.82051693  1
  In  In14  1  0.64167653  -0.01508213  0.62692811  1
  In  In15  1  0.36295882  0.50391742  0.12932020  1
  In  In16  1  -0.01329032  0.49417755  0.84430735  1
  In  In17  1  0.49512539  0.15838172  0.32500251  1
  In  In18  1  0.00703639  0.83877300  0.15468644  1
  In  In19  1  0.18526183  -0.02604487  0.14627025  1
  In  In20  1  0.82777951  0.80190036  0.66180639  1
  In  In21  1  0.49427144  0.49716047  0.33479239  1
  In  In22  1  0.66344093  0.17645371  0.82765332  1
  In  In23  1  0.34919694  0.53496192  0.86193711  1
  In  In24  1  0.19815307  0.50787620  0.02579842  1
  In  In25  1  0.81281724  0.65889041  0.84317236  1
  In  In26  1  0.31789000  0.32581016  0.34694380  1
  In  In27  1  0.17774696  0.66263834  0.49378581  1
  In  In28  1  -0.02178937  0.33112268  0.03460402  1
  In  In29  1  0.17846629  0.16835885  0.34444949  1
  In  In30  1  0.20718722  0.65805595  0.86321285  1
  In  In31  1  0.81584096  0.33339354  0.50224786  1
  In  In32  1  0.00707616  0.47807488  0.50455007  1
  In  In33  1  0.17148696  0.83960996  0.66252479  1
  In  In34  1  0.34500214  0.66406584  0.66462612  1
  In  In35  1  0.16150258  0.32406949  0.82394933  1
  In  In36  1  0.60612698  0.74030748  0.36284753  1
  In  In37  1  0.34947794  0.33477420  0.68166596  1
  In  In38  1  0.82566230  0.66853759  0.15063243  1
  In  In39  1  0.17404358  0.33569833  0.18305481  1
  In  In40  1  0.18175304  0.81744198  0.32239934  1
  In  In41  1  0.21772947  0.82961454  -0.01556493  1
  In  In42  1  0.49427275  0.82666621  0.65496236  1
  In  In43  1  0.64468453  0.52616903  0.17476813  1
  In  In44  1  0.77622843  0.30115945  0.15104100  1
  In  In45  1  -0.02400129  0.17197891  0.18228215  1
  In  In46  1  0.17196429  0.15934452  -0.01354752  1
  In  In47  1  0.00375889  0.63685044  0.32924749  1
  In  In48  1  0.65071225  0.69188483  0.00311441  1
  In  In49  1  0.33236666  0.49496550  0.51490800  1
  In  In50  1  0.18611749  0.15437076  0.69164064  1
  In  In51  1  0.51093801  0.15324880  0.65664763  1
  In  In52  1  0.64477308  0.33866279  0.71704828  1
  In  In53  1  0.83603791  0.48777678  0.34224456  1
  In  In54  1  -0.02082976  0.36560451  0.35928810  1
  In  In55  1  0.81286026  -0.01732610  0.84642321  1
  In  In56  1  0.83535464  0.16977007  0.69627729  1
  In  In57  1  0.37331460  0.70276654  0.32496481  1
  In  In58  1  0.80342405  0.84965220  0.33054162  1
  In  In59  1  0.49675212  0.83321941  -0.00516965  1
  In  In60  1  0.66454833  0.51403867  0.51552646  1
  In  In61  1  0.52782928  0.30371678  0.12909139  1
  In  In62  1  0.80836971  0.14523691  0.31837141  1
  In  In63  1  0.66064573  0.16848432  0.49198028  1
  In  In64  1  0.37361002  -0.02979510  0.34146591  1
  In  In65  1  0.18877314  -0.00834161  0.83168182  1
  In  In66  1  0.15336213  0.50529118  0.33697297  1
  In  In67  1  0.03675607  0.00473386  0.67299586  1
  In  In68  1  0.80452508  0.52338518  -0.00884678  1
  In  In69  1  0.35809826  0.30975584  -0.02584865  1
  In  In70  1  0.50073021  0.00422823  0.14633143  1
  In  In71  1  -0.01599316  0.01714541  0.00027293  1
  Te  Te72  1  0.08441857  0.09239193  0.09901419  1
  Te  Te73  1  0.07108090  0.07785560  0.40550446  1
  Te  Te74  1  0.07991122  0.09486112  0.78362680  1
  Te  Te75  1  0.08316901  0.42429273  0.09629453  1
  Te  Te76  1  0.11218842  0.39378444  0.43067927  1
  Te  Te77  1  0.07853145  0.42453793  0.74538399  1
  Te  Te78  1  0.11483832  0.76031681  0.08031881  1
  Te  Te79  1  0.08035224  0.74267917  0.41017027  1
  Te  Te80  1  0.10051064  0.74341969  0.76660238  1
  Te  Te81  1  0.43696071  0.11270481  0.06320058  1
  Te  Te82  1  0.38770899  0.10080409  0.41035732  1
  Te  Te83  1  0.40554529  0.06656912  0.71806259  1
  Te  Te84  1  0.45025523  0.40644332  0.04497668  1
  Te  Te85  1  0.42004727  0.40373137  0.42932432  1
  Te  Te86  1  0.42162750  0.42590876  0.78628522  1
  Te  Te87  1  0.40713886  0.72280760  0.04627836  1
  Te  Te88  1  0.42582963  0.77990309  0.44126277  1
  Te  Te89  1  0.42686615  0.74293005  0.75991302  1
  Te  Te90  1  0.74353898  0.11124632  0.07602380  1
  Te  Te91  1  0.72433405  0.05696706  0.40980571  1
  Te  Te92  1  0.72800969  0.06727821  0.73228756  1
  Te  Te93  1  0.72833003  0.43245723  0.08629108  1
  Te  Te94  1  0.72524986  0.41167380  0.41060509  1
  Te  Te95  1  0.74371080  0.42883271  0.77416321  1
  Te  Te96  1  0.71302058  0.76512690  0.12460163  1
  Te  Te97  1  0.74962974  0.73152175  0.39877755  1
  Te  Te98  1  0.73308378  0.76698216  0.77281943  1
  Te  Te99  1  0.07257692  0.25854300  0.26580420  1
  Te  Te100  1  0.10285032  0.24874744  0.60194240  1
  Te  Te101  1  0.07318632  0.26242954  0.93330936  1
  Te  Te102  1  0.12042939  0.60771106  0.22972793  1
  Te  Te103  1  0.09455103  0.57463530  0.58521845  1
  Te  Te104  1  0.08558234  0.58051060  0.92570407  1
  Te  Te105  1  0.08913759  0.92017267  0.25168660  1
  Te  Te106  1  0.07844546  0.91006482  0.56476153  1
  Te  Te107  1  0.08969601  0.91690689  0.93524596  1
  Te  Te108  1  0.41182253  0.27526077  0.23534288  1
  Te  Te109  1  0.43235977  0.25791634  0.58704074  1
  Te  Te110  1  0.45989855  0.21306844  0.92225268  1
  Te  Te111  1  0.43193196  0.59316410  0.23456494  1
  Te  Te112  1  0.43552696  0.59366987  0.56461581  1
  Te  Te113  1  0.44449510  0.60737546  0.94996535  1
  Te  Te114  1  0.44977337  0.89095242  0.23813434  1
  Te  Te115  1  0.43334969  0.90216048  0.53935270  1
  Te  Te116  1  0.40776251  0.93433017  0.92627244  1
  Te  Te117  1  0.71141259  0.24620740  0.27156284  1
  Te  Te118  1  0.73895670  0.24466843  0.60024940  1
  Te  Te119  1  0.72376356  0.27056676  0.92647292  1
  Te  Te120  1  0.75478869  0.58811571  0.25882490  1
  Te  Te121  1  0.75871580  0.58522382  0.60150805  1
  Te  Te122  1  0.69781855  0.57986516  0.90111164  1
  Te  Te123  1  0.69927620  0.92536945  0.25649061  1
  Te  Te124  1  0.75154641  0.89846909  0.56764766  1
  Te  Te125  1  0.71460784  0.92527787  0.94240053  1
  Te  Te126  1  0.25536146  0.25615483  0.08265877  1
  Te  Te127  1  0.26780432  0.22689282  0.44636235  1
  Te  Te128  1  0.27745380  0.23736077  0.77945201  1
  Te  Te129  1  0.28506517  0.62065658  0.06838848  1
  Te  Te130  1  0.27075463  0.58801047  0.39960191  1
  Te  Te131  1  0.25396933  0.57244205  0.74690139  1
  Te  Te132  1  0.29863370  0.92783080  0.06231348  1
  Te  Te133  1  0.25275708  0.91483066  0.41673581  1
  Te  Te134  1  0.27297363  0.91482500  0.73751594  1
  Te  Te135  1  0.64412273  0.23335682  0.06092999  1
  Te  Te136  1  0.58009131  0.25281431  0.40140192  1
  Te  Te137  1  0.52681534  0.24131857  0.78296230  1
  Te  Te138  1  0.56116653  0.58904096  0.06770832  1
  Te  Te139  1  0.58587572  0.59059261  0.40966394  1
  Te  Te140  1  0.56140827  0.59009619  0.75669440  1
  Te  Te141  1  0.59531377  0.92840011  0.05839241  1
  Te  Te142  1  0.55674406  0.86489597  0.44455270  1
  Te  Te143  1  0.58205876  0.91389204  0.74594534  1
  Te  Te144  1  0.88261059  0.21655347  0.07077683  1
  Te  Te145  1  0.89993224  0.23737385  0.41631906  1
  Te  Te146  1  0.90648223  0.26534159  0.78016904  1
  Te  Te147  1  0.92670425  0.57781684  0.08114295  1
  Te  Te148  1  0.91307061  0.57757284  0.43694506  1
  Te  Te149  1  0.91386777  0.59129249  0.75210843  1
  Te  Te150  1  0.89899169  0.91315576  0.07467136  1
  Te  Te151  1  0.91527620  0.91431863  0.40018189  1
  Te  Te152  1  0.90990834  0.92596717  0.73265739  1
  Te  Te153  1  0.25003386  0.06801313  0.25242543  1
  Te  Te154  1  0.26824722  0.06364006  0.60668624  1
  Te  Te155  1  0.27165624  0.07629398  0.91971982  1
  Te  Te156  1  0.26834624  0.43913824  0.24079199  1
  Te  Te157  1  0.25067014  0.41347083  0.60435975  1
  Te  Te158  1  0.24868398  0.41241413  0.92040554  1
  Te  Te159  1  0.29095735  0.78146366  0.23072355  1
  Te  Te160  1  0.26426512  0.75724869  0.57361582  1
  Te  Te161  1  0.29780305  0.77498543  0.87025672  1
  Te  Te162  1  0.58442222  0.06650162  0.25256835  1
  Te  Te163  1  0.55432240  0.06697232  0.53581209  1
  Te  Te164  1  0.57652394  0.09225819  0.91804798  1
  Te  Te165  1  0.56961421  0.40882662  0.23543736  1
  Te  Te166  1  0.58593191  0.40514482  0.59103080  1
  Te  Te167  1  0.63478851  0.38615426  0.86615463  1
  Te  Te168  1  0.53075642  0.75766407  0.23787192  1
  Te  Te169  1  0.59827024  0.75767103  0.57009402  1
  Te  Te170  1  0.58667580  0.76825043  0.89480163  1
  Te  Te171  1  0.90641919  0.05456123  0.24572176  1
  Te  Te172  1  0.92323397  0.09212744  0.59342631  1
  Te  Te173  1  0.90258025  0.08598682  0.89938901  1
  Te  Te174  1  0.89617285  0.39430249  0.23236401  1
  Te  Te175  1  0.89762973  0.41987150  0.59516896  1
  Te  Te176  1  0.89577283  0.41276384  0.93450425  1
  Te  Te177  1  0.92776788  0.73976667  0.23875182  1
  Te  Te178  1  0.93109408  0.75893612  0.56713425  1
  Te  Te179  1  0.91357492  0.76622340  0.90927166  1
