# generated using pymatgen
data_In2Te3
_symmetry_space_group_name_H-M   'P 1'
_cell_length_a   18.94765151
_cell_length_b   18.93737226
_cell_length_c   18.95644041
_cell_angle_alpha   90.14741240
_cell_angle_beta   89.94318036
_cell_angle_gamma   89.95617963
_symmetry_Int_Tables_number   1
_chemical_formula_structural   In2Te3
_chemical_formula_sum   'In72 Te108'
_cell_volume   6801.89801573
_cell_formula_units_Z   36
loop_
 _symmetry_equiv_pos_site_id
 _symmetry_equiv_pos_as_xyz
  1  'x, y, z'
loop_
 _atom_site_type_symbol
 _atom_site_label
 _atom_site_symmetry_multiplicity
 _atom_site_fract_x
 _atom_site_fract_y
 _atom_site_fract_z
 _atom_site_occupancy
  In  In0  1  0.64117754  0.00856277  0.65024483  1
  In  In1  1  0.84109925  0.14076844  0.00142308  1
  In  In2  1  0.65876147  0.17137606  0.82538856  1
  In  In3  1  0.16660747  0.49141846  -0.01235915  1
  In  In4  1  0.82562500  0.82859871  0.68172802  1
  In  In5  1  0.14765168  0.67534065  0.16955397  1
  In  In6  1  0.66056957  0.67244390  0.01756634  1
  In  In7  1  0.65788289  0.34696948  0.66853354  1
  In  In8  1  0.65408644  0.15513328  0.51102125  1
  In  In9  1  0.48768704  0.81365670  0.34583232  1
  In  In10  1  0.00512840  0.86190444  0.50079148  1
  In  In11  1  0.67045666  0.80381908  0.82638309  1
  In  In12  1  0.01558739  0.16132385  0.53337573  1
  In  In13  1  -0.02120134  0.48898344  0.51391234  1
  In  In14  1  0.64316726  0.83610258  0.51114429  1
  In  In15  1  0.31890989  0.32161618  0.33076914  1
  In  In16  1  0.49109852  0.68032210  0.51893849  1
  In  In17  1  0.33089294  0.16212131  0.19084036  1
  In  In18  1  0.82162260  0.51736653  0.02247648  1
  In  In19  1  0.01529292  0.32158701  0.00410162  1
  In  In20  1  0.67781661  0.18723538  0.16477337  1
  In  In21  1  0.32202674  0.82479923  0.16350068  1
  In  In22  1  0.18046771  0.19349858  0.34556379  1
  In  In23  1  0.87772760  0.31616122  0.82113363  1
  In  In24  1  0.32631417  0.85052402  0.83478576  1
  In  In25  1  0.33292881  0.51903821  0.49166676  1
  In  In26  1  0.67001910  0.66397658  0.32384015  1
  In  In27  1  0.30954088  0.18769170  0.80663676  1
  In  In28  1  -0.00793453  -0.00876966  0.33550223  1
  In  In29  1  0.32356116  0.66767888  -0.02205365  1
  In  In30  1  0.82305726  0.15353831  0.34321211  1
  In  In31  1  0.49979448  0.65004375  0.16443638  1
  In  In32  1  0.02063981  0.83489274  0.82858182  1
  In  In33  1  0.49769333  0.50979939  0.32985579  1
  In  In34  1  0.19041710  0.17618672  0.00427462  1
  In  In35  1  0.83680066  0.15471805  0.65814366  1
  In  In36  1  -0.00931311  0.69389489  0.31725350  1
  In  In37  1  0.14698832  0.01696709  0.79649137  1
  In  In38  1  0.18510924  0.85595741  0.36593560  1
  In  In39  1  0.50854645  0.35116961  0.15333614  1
  In  In40  1  0.31631423  0.67571220  0.66394514  1
  In  In41  1  0.84184786  0.83195184  -0.00128199  1
  In  In42  1  0.33601060  0.00019886  0.00908897  1
  In  In43  1  0.81409297  0.66224682  0.51122233  1
  In  In44  1  0.68325885  0.34450080  -0.00237221  1
  In  In45  1  0.34288276  0.47382503  0.82748975  1
  In  In46  1  0.17186495  0.49016955  0.68336571  1
  In  In47  1  0.50763435  0.00731648  0.18986857  1
  In  In48  1  0.65376814  -0.00603525  0.00106308  1
  In  In49  1  0.01847141  0.66811718  0.67428629  1
  In  In50  1  -0.02096009  0.83946372  0.15078596  1
  In  In51  1  0.00863286  0.48882055  0.82777506  1
  In  In52  1  0.48000538  0.66426325  0.82076415  1
  In  In53  1  0.86611309  -0.00508516  0.83911981  1
  In  In54  1  0.65556399  0.32684160  0.35264056  1
  In  In55  1  -0.00961627  0.16999737  0.18105646  1
  In  In56  1  -0.01905318  0.65983265  -0.01566713  1
  In  In57  1  0.19464189  0.31084067  0.50307927  1
  In  In58  1  0.34960920  0.50191909  0.17738466  1
  In  In59  1  0.35529854  -0.01452472  0.67088884  1
  In  In60  1  0.47763595  0.30995770  0.54582247  1
  In  In61  1  0.65886679  0.51807367  0.84362648  1
  In  In62  1  0.48971023  0.31143088  0.81863168  1
  In  In63  1  0.84991107  0.34719110  0.48696216  1
  In  In64  1  0.50910951  -0.01113533  0.84094084  1
  In  In65  1  0.69218480  -0.03060466  0.30853307  1
  In  In66  1  0.01458468  0.34266749  0.32620556  1
  In  In67  1  0.84144616  0.48179173  0.65858211  1
  In  In68  1  0.18740363  0.01857186  0.51399495  1
  In  In69  1  0.17153917  0.52495633  0.34789403  1
  In  In70  1  0.83183526  0.49757527  0.31870920  1
  In  In71  1  0.17223187  0.01156988  0.16596008  1
  Te  Te72  1  0.08095396  0.09674493  0.08264849  1
  Te  Te73  1  0.08207608  0.09064201  0.41129542  1
  Te  Te74  1  0.07065600  0.10779582  0.70726335  1
  Te  Te75  1  0.07162297  0.43219111  0.08149776  1
  Te  Te76  1  0.09562796  0.41312820  0.43412868  1
  Te  Te77  1  0.09734436  0.38619000  0.76344488  1
  Te  Te78  1  0.07183409  0.75387515  0.06560334  1
  Te  Te79  1  0.08087090  0.75704544  0.42046906  1
  Te  Te80  1  0.11266147  0.74902654  0.75051374  1
  Te  Te81  1  0.42334111  0.08951149  0.09101959  1
  Te  Te82  1  0.39539325  0.10856459  0.31291276  1
  Te  Te83  1  0.42010791  0.08328021  0.76703396  1
  Te  Te84  1  0.40133891  0.41189625  0.07481891  1
  Te  Te85  1  0.41242946  0.41579577  0.41268056  1
  Te  Te86  1  0.42514362  0.40484632  0.72656067  1
  Te  Te87  1  0.41327941  0.74099001  0.07754959  1
  Te  Te88  1  0.39240494  0.77356794  0.45585887  1
  Te  Te89  1  0.41095477  0.77040669  0.73627020  1
  Te  Te90  1  0.74653568  0.06940838  0.09519910  1
  Te  Te91  1  0.73932162  0.06200882  0.42757074  1
  Te  Te92  1  0.74804221  0.07076826  0.75321351  1
  Te  Te93  1  0.74839269  0.42016280  0.10323220  1
  Te  Te94  1  0.74260417  0.43150117  0.42342082  1
  Te  Te95  1  0.76008624  0.40320846  0.76738372  1
  Te  Te96  1  0.73414208  0.78381900  0.09064966  1
  Te  Te97  1  0.74055222  0.75774564  0.42108373  1
  Te  Te98  1  0.73371614  0.72031381  0.72196819  1
  Te  Te99  1  0.10184069  0.25981794  0.23249033  1
  Te  Te100  1  0.12650342  0.22876042  0.61140874  1
  Te  Te101  1  0.10589821  0.25337719  0.91107747  1
  Te  Te102  1  0.06566956  0.57767218  0.25267224  1
  Te  Te103  1  0.08868050  0.56957645  0.58276924  1
  Te  Te104  1  0.09024346  0.59177599  0.90281433  1
  Te  Te105  1  0.08788971  0.90907059  0.24811561  1
  Te  Te106  1  0.09932849  0.92875999  0.58989872  1
  Te  Te107  1  0.07869858  0.94568685  0.90638360  1
  Te  Te108  1  0.44087287  0.26512228  0.25807570  1
  Te  Te109  1  0.37455538  0.21915665  0.59459564  1
  Te  Te110  1  0.39481606  0.24654327  0.91020232  1
  Te  Te111  1  0.39984233  0.60968759  0.27326277  1
  Te  Te112  1  0.41659060  0.57767492  0.60245500  1
  Te  Te113  1  0.42160690  0.56752312  0.92194423  1
  Te  Te114  1  0.40875875  0.90673694  0.25475364  1
  Te  Te115  1  0.45573013  0.94149477  0.57123420  1
  Te  Te116  1  0.42807318  0.90404544  0.93582462  1
  Te  Te117  1  0.76311307  0.26665283  0.26269812  1
  Te  Te118  1  0.75325171  0.25579788  0.57233826  1
  Te  Te119  1  0.76490500  0.24122256  0.90786979  1
  Te  Te120  1  0.76208137  0.59396075  0.23230158  1
  Te  Te121  1  0.74152599  0.55779593  0.58359431  1
  Te  Te122  1  0.75596035  0.60552230  0.91742792  1
  Te  Te123  1  0.75947133  0.87965992  0.21408447  1
  Te  Te124  1  0.74711532  0.91851800  0.58802911  1
  Te  Te125  1  0.74527338  0.91986436  0.89977250  1
  Te  Te126  1  0.25767825  0.25743723  0.10633437  1
  Te  Te127  1  0.29934512  0.21392393  0.44336181  1
  Te  Te128  1  0.21579533  0.28389155  0.74553848  1
  Te  Te129  1  0.24886724  0.59108268  0.09342198  1
  Te  Te130  1  0.23946704  0.62297037  0.43813210  1
  Te  Te131  1  0.25351862  0.58498111  0.76761698  1
  Te  Te132  1  0.23299954  0.90829083  0.07263288  1
  Te  Te133  1  0.28543638  0.92995001  0.44597140  1
  Te  Te134  1  0.23673241  0.91187358  0.72863092  1
  Te  Te135  1  0.58379414  0.25013168  0.06555573  1
  Te  Te136  1  0.55872120  0.24102533  0.43104130  1
  Te  Te137  1  0.57582569  0.22876491  0.71500640  1
  Te  Te138  1  0.58299564  0.56523607  0.07977268  1
  Te  Te139  1  0.57859564  0.59564365  0.42384798  1
  Te  Te140  1  0.56794064  0.57300230  0.74526517  1
  Te  Te141  1  0.56710446  0.91713425  0.09009070  1
  Te  Te142  1  0.57992584  0.92058082  0.40174613  1
  Te  Te143  1  0.58576464  0.90353999  0.74380335  1
  Te  Te144  1  0.90436175  0.25004860  0.08543649  1
  Te  Te145  1  0.93053204  0.24186566  0.41053524  1
  Te  Te146  1  0.94625199  0.20230596  0.75187865  1
  Te  Te147  1  0.90188550  0.61419737  0.09908436  1
  Te  Te148  1  0.92073425  0.59013407  0.41721725  1
  Te  Te149  1  0.91816214  0.57913141  0.74660409  1
  Te  Te150  1  0.92727016  0.93687987  0.05498350  1
  Te  Te151  1  0.89870644  0.91019817  0.41330075  1
  Te  Te152  1  0.93594106  0.92132037  0.72852983  1
  Te  Te153  1  0.24736567  0.06304330  0.28679994  1
  Te  Te154  1  0.27487707  0.09749362  0.60848515  1
  Te  Te155  1  0.25196507  0.06963893  0.90356549  1
  Te  Te156  1  0.24070805  0.42764220  0.25414578  1
  Te  Te157  1  0.26332789  0.41926951  0.58376262  1
  Te  Te158  1  0.25450348  0.39720723  0.91809361  1
  Te  Te159  1  0.23787124  0.75088721  0.26560759  1
  Te  Te160  1  0.25831474  0.74008420  0.54596382  1
  Te  Te161  1  0.23687338  0.76603378  0.91431008  1
  Te  Te162  1  0.61017275  0.09398166  0.26210871  1
  Te  Te163  1  0.53462830  0.07011046  0.56259978  1
  Te  Te164  1  0.57199268  0.09883955  0.92545008  1
  Te  Te165  1  0.59727423  0.42639532  0.25270162  1
  Te  Te166  1  0.57795227  0.41297334  0.56602101  1
  Te  Te167  1  0.58122090  0.40463172  0.90445796  1
  Te  Te168  1  0.58006076  0.75394084  0.24120786  1
  Te  Te169  1  0.59047238  0.74132457  0.61049139  1
  Te  Te170  1  0.56883930  0.74352492  0.91859784  1
  Te  Te171  1  0.89793250  0.06692893  0.24270602  1
  Te  Te172  1  0.90567030  0.07017506  0.56047011  1
  Te  Te173  1  0.94411179  0.10132395  0.90385857  1
  Te  Te174  1  0.92148405  0.41272342  0.23915301  1
  Te  Te175  1  0.94027925  0.37516839  0.60639818  1
  Te  Te176  1  0.91141997  0.42394617  0.92613712  1
  Te  Te177  1  0.88787381  0.78082280  0.25422460  1
  Te  Te178  1  0.92086036  0.74446765  0.58381821  1
  Te  Te179  1  0.90738469  0.75179874  0.88790186  1
