# generated using pymatgen
data_In2Te3
_symmetry_space_group_name_H-M   'P 1'
_cell_length_a   19.01146855
_cell_length_b   19.02110165
_cell_length_c   19.00628881
_cell_angle_alpha   89.83326744
_cell_angle_beta   89.98827165
_cell_angle_gamma   90.14563237
_symmetry_Int_Tables_number   1
_chemical_formula_structural   In2Te3
_chemical_formula_sum   'In72 Te108'
_cell_volume   6872.98513610
_cell_formula_units_Z   36
loop_
 _symmetry_equiv_pos_site_id
 _symmetry_equiv_pos_as_xyz
  1  'x, y, z'
loop_
 _atom_site_type_symbol
 _atom_site_label
 _atom_site_symmetry_multiplicity
 _atom_site_fract_x
 _atom_site_fract_y
 _atom_site_fract_z
 _atom_site_occupancy
  In  In0  1  0.81829341  0.33770981  0.16899995  1
  In  In1  1  0.82906948  0.85233087  -0.01443169  1
  In  In2  1  0.32285225  0.34749016  0.34066432  1
  In  In3  1  0.19280930  0.68921699  0.84967479  1
  In  In4  1  0.50843825  0.85680828  0.32006488  1
  In  In5  1  0.83456468  0.82486144  0.68341296  1
  In  In6  1  0.19516268  -0.02416727  0.15456567  1
  In  In7  1  0.33818988  0.16310787  0.82268869  1
  In  In8  1  0.80512238  0.01098456  0.14861532  1
  In  In9  1  0.01652652  0.66205138  0.65904821  1
  In  In10  1  0.66226618  0.66431972  0.00322271  1
  In  In11  1  0.82057889  0.65545405  0.50987268  1
  In  In12  1  0.65288554  0.85597510  0.14126933  1
  In  In13  1  0.67320231  0.15878182  0.83014281  1
  In  In14  1  0.51141051  0.14649908  0.67424675  1
  In  In15  1  0.15467088  0.15350191  -0.02418746  1
  In  In16  1  0.48729403  -0.02769650  0.86151682  1
  In  In17  1  0.16716355  0.31926452  0.16920509  1
  In  In18  1  0.19284036  -0.03553527  0.85878212  1
  In  In19  1  -0.02352772  0.14216197  0.50720077  1
  In  In20  1  0.15989832  0.13624660  0.67202071  1
  In  In21  1  0.50028602  0.51539517  -0.01041294  1
  In  In22  1  0.32753700  0.35636989  -0.00338430  1
  In  In23  1  0.51567257  0.36111420  0.84334684  1
  In  In24  1  0.52479831  0.15635995  0.30311031  1
  In  In25  1  0.83469884  0.66140763  0.18837363  1
  In  In26  1  0.67143863  0.16097774  0.50727435  1
  In  In27  1  0.48217742  0.68421611  0.85534970  1
  In  In28  1  0.35250419  0.52451371  0.14770072  1
  In  In29  1  0.82987598  -0.00117213  0.50739103  1
  In  In30  1  -0.01080403  -0.00811595  -0.01198387  1
  In  In31  1  0.82518348  0.17970278  0.33950911  1
  In  In32  1  0.35811881  0.32104403  0.68765069  1
  In  In33  1  0.33916526  0.67626492  0.33462770  1
  In  In34  1  0.16616952  0.33523302  0.50713708  1
  In  In35  1  0.66672255  0.64499792  0.34139446  1
  In  In36  1  0.16193648  0.52992302  0.32341671  1
  In  In37  1  0.68325308  0.83653345  0.83541645  1
  In  In38  1  0.67478751  0.47878810  0.47905620  1
  In  In39  1  0.01618983  -0.00906507  0.34112909  1
  In  In40  1  0.35196648  0.00076488  0.31183712  1
  In  In41  1  0.36645948  0.49284859  0.52242785  1
  In  In42  1  0.50216868  0.31103832  0.49075059  1
  In  In43  1  0.18752560  0.51756616  -0.00824894  1
  In  In44  1  -0.02377664  0.34083077  0.65997375  1
  In  In45  1  0.32139895  0.66895272  0.68120251  1
  In  In46  1  -0.01040924  0.15635599  0.82579732  1
  In  In47  1  0.17077826  -0.00957732  0.50917543  1
  In  In48  1  0.01412753  0.50226417  0.82446686  1
  In  In49  1  0.04182918  0.74528092  -0.01017593  1
  In  In50  1  -0.00660198  0.16413951  0.17552499  1
  In  In51  1  0.15385745  0.66050308  0.49919993  1
  In  In52  1  0.83622360  0.49676670  0.66702660  1
  In  In53  1  0.16464259  0.85415824  0.67026393  1
  In  In54  1  0.82721662  0.32263009  0.83074643  1
  In  In55  1  0.35345042  0.83801116  0.49118585  1
  In  In56  1  0.16745237  0.80461782  0.32552684  1
  In  In57  1  0.48255928  0.69405723  0.14986872  1
  In  In58  1  0.48397617  0.16177430  0.02424381  1
  In  In59  1  0.81073525  0.51525968  0.00700733  1
  In  In60  1  0.82225772  -0.00145259  0.82175080  1
  In  In61  1  0.51698582  0.51937389  0.68867382  1
  In  In62  1  0.50347919  0.84741784  0.65710220  1
  In  In63  1  0.68577692  0.33228656  0.64679348  1
  In  In64  1  0.16457992  0.20990207  0.32587690  1
  In  In65  1  -0.00900992  0.33736314  0.01254168  1
  In  In66  1  -0.00496462  0.51499799  0.48201391  1
  In  In67  1  0.54150397  0.34805696  0.19456810  1
  In  In68  1  0.65119314  0.84284958  0.49412501  1
  In  In69  1  -0.02261365  0.49694298  0.17467112  1
  In  In70  1  0.35400428  0.15452848  0.16109952  1
  In  In71  1  0.84682094  0.83549043  0.31310196  1
  Te  Te72  1  0.08247824  0.07735215  0.08618903  1
  Te  Te73  1  0.09884100  0.09692287  0.41158292  1
  Te  Te74  1  0.09257638  0.05601368  0.78112808  1
  Te  Te75  1  0.09141888  0.42676717  0.08441737  1
  Te  Te76  1  0.09297602  0.42288796  0.40650185  1
  Te  Te77  1  0.07951455  0.40489997  0.73927269  1
  Te  Te78  1  0.11649070  0.69737729  0.10728831  1
  Te  Te79  1  0.06910367  0.73765327  0.41066639  1
  Te  Te80  1  0.09099457  0.75322835  0.75371683  1
  Te  Te81  1  0.41214404  0.04395372  0.08281397  1
  Te  Te82  1  0.42609867  0.09467864  0.39341569  1
  Te  Te83  1  0.41619479  0.05773853  0.75221011  1
  Te  Te84  1  0.42982894  0.40400740  0.09696923  1
  Te  Te85  1  0.43579815  0.42115948  0.40861488  1
  Te  Te86  1  0.41243784  0.43938665  0.76602258  1
  Te  Te87  1  0.40996017  0.75652781  0.03737143  1
  Te  Te88  1  0.44525152  0.74940949  0.41296412  1
  Te  Te89  1  0.40926579  0.76749852  0.75160756  1
  Te  Te90  1  0.68669012  0.09800834  0.12739890  1
  Te  Te91  1  0.74419956  0.07104656  0.40599831  1
  Te  Te92  1  0.74892285  0.08552080  0.73087209  1
  Te  Te93  1  0.73193208  0.41176564  0.07384040  1
  Te  Te94  1  0.75103793  0.40429203  0.37951749  1
  Te  Te95  1  0.73915624  0.42123877  0.75663056  1
  Te  Te96  1  0.75813858  0.75737804  0.08678680  1
  Te  Te97  1  0.75297809  0.75481588  0.40809024  1
  Te  Te98  1  0.74261047  0.73324446  0.75211964  1
  Te  Te99  1  0.04911070  0.27998129  0.25525167  1
  Te  Te100  1  0.07564148  0.24074108  0.58572244  1
  Te  Te101  1  0.06883553  0.25710175  0.90862604  1
  Te  Te102  1  0.07365224  0.60132259  0.22992806  1
  Te  Te103  1  0.09558879  0.55420809  0.58906870  1
  Te  Te104  1  0.07826935  0.60194720  0.92235262  1
  Te  Te105  1  0.08955476  0.90642935  0.23812993  1
  Te  Te106  1  0.06523114  0.91998505  0.58391454  1
  Te  Te107  1  0.08500647  0.88698630  0.93797559  1
  Te  Te108  1  0.41297922  0.26120417  0.25256934  1
  Te  Te109  1  0.41743963  0.22835150  0.58489551  1
  Te  Te110  1  0.41762903  0.25979510  0.91411724  1
  Te  Te111  1  0.43351106  0.58768358  0.25590822  1
  Te  Te112  1  0.43077555  0.60607903  0.59698002  1
  Te  Te113  1  0.39305471  0.59259983  0.93009841  1
  Te  Te114  1  0.39213771  0.88464319  0.23025842  1
  Te  Te115  1  0.42667472  0.93669069  0.56812188  1
  Te  Te116  1  0.39876722  0.87655057  0.93729585  1
  Te  Te117  1  0.74013738  0.22179873  0.22594888  1
  Te  Te118  1  0.77272904  0.24965356  0.56594110  1
  Te  Te119  1  0.75001547  0.24056126  0.92317854  1
  Te  Te120  1  0.73585506  0.56259969  0.23962212  1
  Te  Te121  1  0.72732646  0.56964771  0.59130452  1
  Te  Te122  1  0.74348496  0.59498976  0.90351976  1
  Te  Te123  1  0.73843018  0.91947412  0.25033077  1
  Te  Te124  1  0.74491634  0.90973536  0.59458707  1
  Te  Te125  1  0.72960860  0.94990613  0.93259060  1
  Te  Te126  1  0.24813637  0.23845953  0.07092512  1
  Te  Te127  1  0.26490663  0.24492780  0.43509455  1
  Te  Te128  1  0.23898303  0.24640819  0.74791927  1
  Te  Te129  1  0.25111243  0.61438838  0.08721586  1
  Te  Te130  1  0.26763821  0.57450101  0.42913711  1
  Te  Te131  1  0.23151963  0.58338057  0.75651225  1
  Te  Te132  1  0.21394775  0.87754376  0.04818102  1
  Te  Te133  1  0.24970440  0.91624094  0.40073217  1
  Te  Te134  1  0.27066296  0.92072362  0.74343269  1
  Te  Te135  1  0.58090223  0.24890127  0.09434935  1
  Te  Te136  1  0.60157470  0.24543890  0.40054475  1
  Te  Te137  1  0.58026028  0.26196198  0.74714785  1
  Te  Te138  1  0.57599274  0.58567682  0.09931050  1
  Te  Te139  1  0.57624799  0.57552664  0.43163308  1
  Te  Te140  1  0.58436319  0.59743904  0.79134206  1
  Te  Te141  1  0.54720599  0.94492117  0.09158661  1
  Te  Te142  1  0.57493599  0.94270605  0.41748724  1
  Te  Te143  1  0.58793280  0.92541070  0.75849865  1
  Te  Te144  1  0.90218189  0.23760087  0.08105881  1
  Te  Te145  1  0.93123796  0.24528154  0.41497988  1
  Te  Te146  1  0.89847433  0.23252636  0.73219579  1
  Te  Te147  1  0.91665576  0.59510916  0.07699187  1
  Te  Te148  1  0.89736958  0.58965360  0.40485790  1
  Te  Te149  1  0.91729995  0.59256254  0.75057353  1
  Te  Te150  1  0.91226564  0.91734581  0.09469354  1
  Te  Te151  1  0.92087908  0.90882010  0.42357618  1
  Te  Te152  1  0.91807300  0.89175671  0.78671813  1
  Te  Te153  1  0.23697046  0.09939406  0.24480209  1
  Te  Te154  1  0.26049398  0.07242884  0.58900883  1
  Te  Te155  1  0.27266178  0.07405582  0.92787934  1
  Te  Te156  1  0.25299783  0.43271163  0.23513032  1
  Te  Te157  1  0.26829788  0.40629564  0.59574010  1
  Te  Te158  1  0.23313756  0.41182504  0.90252067  1
  Te  Te159  1  0.27874327  0.76685400  0.23396579  1
  Te  Te160  1  0.24736744  0.75574906  0.57026463  1
  Te  Te161  1  0.27154480  0.78186993  0.93780368  1
  Te  Te162  1  0.56245135  0.04872753  0.20600913  1
  Te  Te163  1  0.58248251  0.06673753  0.57579505  1
  Te  Te164  1  0.56479751  0.09115081  0.91663037  1
  Te  Te165  1  0.64173049  0.42223548  0.27284221  1
  Te  Te166  1  0.56674270  0.40776130  0.59025214  1
  Te  Te167  1  0.60340270  0.42179497  0.94301067  1
  Te  Te168  1  0.59489671  0.75219855  0.24319963  1
  Te  Te169  1  0.58926329  0.75112099  0.58878730  1
  Te  Te170  1  0.58511031  0.77075779  0.93104673  1
  Te  Te171  1  0.91198192  0.06488720  0.25613100  1
  Te  Te172  1  0.93720033  0.03881509  0.60265539  1
  Te  Te173  1  0.89710080  0.09078604  0.92565320  1
  Te  Te174  1  0.88405419  0.42859927  0.26728741  1
  Te  Te175  1  0.90078828  0.41919727  0.55540427  1
  Te  Te176  1  0.91321741  0.42537882  0.91647778  1
  Te  Te177  1  0.93934590  0.74933820  0.24122722  1
  Te  Te178  1  0.91828370  0.74569881  0.58142609  1
  Te  Te179  1  0.91938420  0.76645451  0.90729001  1
