# generated using pymatgen
data_In2Te3
_symmetry_space_group_name_H-M   'P 1'
_cell_length_a   18.77432128
_cell_length_b   18.78036677
_cell_length_c   18.77289269
_cell_angle_alpha   89.93236087
_cell_angle_beta   89.90349179
_cell_angle_gamma   89.93363752
_symmetry_Int_Tables_number   1
_chemical_formula_structural   In2Te3
_chemical_formula_sum   'In72 Te108'
_cell_volume   6619.09026860
_cell_formula_units_Z   36
loop_
 _symmetry_equiv_pos_site_id
 _symmetry_equiv_pos_as_xyz
  1  'x, y, z'
loop_
 _atom_site_type_symbol
 _atom_site_label
 _atom_site_symmetry_multiplicity
 _atom_site_fract_x
 _atom_site_fract_y
 _atom_site_fract_z
 _atom_site_occupancy
  In  In0  1  0.17618696  0.14157524  0.65163472  1
  In  In1  1  0.18386182  -0.02122333  0.82469854  1
  In  In2  1  0.47708110  0.68761447  0.18772813  1
  In  In3  1  0.82674310  0.29697143  0.17504097  1
  In  In4  1  0.85166475  0.67666377  0.19732332  1
  In  In5  1  0.62187076  0.33714032  0.64396364  1
  In  In6  1  0.47633396  0.53212116  0.66745242  1
  In  In7  1  0.18586122  0.83425659  0.66210184  1
  In  In8  1  0.85241193  0.65630914  0.83283384  1
  In  In9  1  0.48059517  0.34144574  0.17972947  1
  In  In10  1  0.17422116  0.31523490  0.14926499  1
  In  In11  1  0.64200753  0.67221465  0.00611950  1
  In  In12  1  0.86631693  0.83403905  0.66440980  1
  In  In13  1  0.19810997  0.52235539  0.35031321  1
  In  In14  1  0.33790274  0.69326354  0.63657406  1
  In  In15  1  0.66144792  -0.01081432  0.02220869  1
  In  In16  1  0.01295140  0.68690726  0.01213355  1
  In  In17  1  0.81170684  0.50602418  0.34774441  1
  In  In18  1  0.82554434  0.14077032  0.64395173  1
  In  In19  1  0.02109804  0.51678146  0.17658286  1
  In  In20  1  0.64824456  0.17297808  0.50443539  1
  In  In21  1  0.83923945  0.70187265  0.51299825  1
  In  In22  1  0.48314387  -0.03598875  0.19064951  1
  In  In23  1  0.19388342  -0.02830806  0.48291705  1
  In  In24  1  0.82956679  0.33591346  0.83576122  1
  In  In25  1  0.32881756  0.52463455  0.82132520  1
  In  In26  1  0.00131820  0.13720257  0.16646756  1
  In  In27  1  0.63915691  0.83598483  0.50361659  1
  In  In28  1  0.64910717  0.82402753  0.18740868  1
  In  In29  1  0.66706320  0.14812033  0.18889668  1
  In  In30  1  0.01759989  0.53557436  0.50717297  1
  In  In31  1  0.83753720  -0.00894944  0.49262789  1
  In  In32  1  0.18984475  0.15043426  0.32613025  1
  In  In33  1  0.84377401  0.52956284  0.67383468  1
  In  In34  1  0.18612126  0.68472869  0.82171388  1
  In  In35  1  0.36030400  0.51119268  0.17712537  1
  In  In36  1  0.49940466  0.16111525  -0.00226620  1
  In  In37  1  0.20999060  0.35696166  0.50144952  1
  In  In38  1  0.64892265  0.49616100  0.17793407  1
  In  In39  1  0.30719000  -0.02360664  0.00984385  1
  In  In40  1  0.16581560  0.69501483  0.16591080  1
  In  In41  1  0.33330373  0.68693240  -0.00478107  1
  In  In42  1  0.49937921  0.15559478  0.65054997  1
  In  In43  1  0.69019986  0.14687371  0.78442835  1
  In  In44  1  0.47881371  0.84574582  0.63785248  1
  In  In45  1  0.85533381  0.83778879  0.02111404  1
  In  In46  1  0.64281899  0.50184549  0.80536021  1
  In  In47  1  0.66344433  0.02929690  0.66324430  1
  In  In48  1  -0.00777466  0.16858761  0.49906100  1
  In  In49  1  0.17276986  0.50318728  -0.01415141  1
  In  In50  1  0.34108665  0.33700000  0.33682261  1
  In  In51  1  0.84715161  0.49023022  -0.02412987  1
  In  In52  1  0.00498692  0.32691266  0.67887005  1
  In  In53  1  0.66100376  0.66172564  0.64604582  1
  In  In54  1  0.82977303  0.36304425  0.47949629  1
  In  In55  1  -0.01246255  0.34104301  0.33727134  1
  In  In56  1  0.03042651  -0.01577296  0.01236316  1
  In  In57  1  0.32831915  0.67831072  0.34943026  1
  In  In58  1  0.66123378  0.82148456  0.84058493  1
  In  In59  1  0.02363555  0.15495660  0.84285883  1
  In  In60  1  0.85134992  0.15538946  0.00551084  1
  In  In61  1  0.85033060  0.82941878  0.34156135  1
  In  In62  1  0.15874269  0.32489028  0.83439967  1
  In  In63  1  0.01387691  -0.01187738  0.30329260  1
  In  In64  1  0.34227425  0.15478230  0.82534162  1
  In  In65  1  0.48257341  0.36683531  0.81823599  1
  In  In66  1  0.65819880  -0.02110937  0.34500908  1
  In  In67  1  0.31712871  0.15745081  0.16951803  1
  In  In68  1  0.49126208  -0.01088804  0.84681540  1
  In  In69  1  -0.01682710  0.50061085  0.80961338  1
  In  In70  1  0.48276141  0.33658643  0.49748833  1
  In  In71  1  0.66005688  0.34242616  -0.00675487  1
  Te  Te72  1  0.11359342  0.08082187  0.08975477  1
  Te  Te73  1  0.08875570  0.08012171  0.41853590  1
  Te  Te74  1  0.08360894  0.05973124  0.73962278  1
  Te  Te75  1  0.08290976  0.41862722  0.07781628  1
  Te  Te76  1  0.08863064  0.42296212  0.41768096  1
  Te  Te77  1  0.09938330  0.42988262  0.73788984  1
  Te  Te78  1  0.08708519  0.79420008  0.08532742  1
  Te  Te79  1  0.01502982  0.72316449  0.38734014  1
  Te  Te80  1  0.08608451  0.76849871  0.75265399  1
  Te  Te81  1  0.42200339  0.06346283  0.08366374  1
  Te  Te82  1  0.41502341  0.04583696  0.47276446  1
  Te  Te83  1  0.41433628  0.05786763  0.73252678  1
  Te  Te84  1  0.39962612  0.40951342  0.07801576  1
  Te  Te85  1  0.39426061  0.43747961  0.43215685  1
  Te  Te86  1  0.39148056  0.40708080  0.70339829  1
  Te  Te87  1  0.38630229  0.77094624  0.10558312  1
  Te  Te88  1  0.42094963  0.78645390  0.40363044  1
  Te  Te89  1  0.39774301  0.77805512  0.74584598  1
  Te  Te90  1  0.76446800  0.07050042  0.10012867  1
  Te  Te91  1  0.74246699  0.08346116  0.41859882  1
  Te  Te92  1  0.79267716  0.03196173  0.75614454  1
  Te  Te93  1  0.75674292  0.42083461  0.08261869  1
  Te  Te94  1  0.70841044  0.40934521  0.40323991  1
  Te  Te95  1  0.74845480  0.41678199  0.73376398  1
  Te  Te96  1  0.75087773  0.74319875  0.08838224  1
  Te  Te97  1  0.73712596  0.75570069  0.41401152  1
  Te  Te98  1  0.75579501  0.73963595  0.73937520  1
  Te  Te99  1  0.08551570  0.25061517  0.26157244  1
  Te  Te100  1  0.09365677  0.25636693  0.57480175  1
  Te  Te101  1  0.09614232  0.24000221  0.93780875  1
  Te  Te102  1  0.08953148  0.60430352  0.27693293  1
  Te  Te103  1  0.07756983  0.61165948  0.61576226  1
  Te  Te104  1  0.07328915  0.58907365  0.90771404  1
  Te  Te105  1  0.12849049  0.91481327  0.24512621  1
  Te  Te106  1  0.09360449  0.91668068  0.57728867  1
  Te  Te107  1  0.09974211  0.89303304  0.91391593  1
  Te  Te108  1  0.41750231  0.22770259  0.26052308  1
  Te  Te109  1  0.40372836  0.24529797  0.58443472  1
  Te  Te110  1  0.42021068  0.25614451  0.90970399  1
  Te  Te111  1  0.43090207  0.57784735  0.29229552  1
  Te  Te112  1  0.41229975  0.59651229  0.54950877  1
  Te  Te113  1  0.41580536  0.59108456  0.91872319  1
  Te  Te114  1  0.39810048  0.87439258  0.27499406  1
  Te  Te115  1  0.37733420  0.92649889  0.55643590  1
  Te  Te116  1  0.40034351  0.90106121  0.92245874  1
  Te  Te117  1  0.72593811  0.25553649  0.27216352  1
  Te  Te118  1  0.74960685  0.26254954  0.58635999  1
  Te  Te119  1  0.74774430  0.23569775  0.92264874  1
  Te  Te120  1  0.73230888  0.59981764  0.25590099  1
  Te  Te121  1  0.75364384  0.57148747  0.55275525  1
  Te  Te122  1  0.74148933  0.58118209  0.90884884  1
  Te  Te123  1  0.75647420  0.91289834  0.24924495  1
  Te  Te124  1  0.74519844  0.91070974  0.58540579  1
  Te  Te125  1  0.75115295  0.90818404  0.92852884  1
  Te  Te126  1  0.27142143  0.24784284  0.06205398  1
  Te  Te127  1  0.26743491  0.23620251  0.42675699  1
  Te  Te128  1  0.24916022  0.24194174  0.74052386  1
  Te  Te129  1  0.24534039  0.58198483  0.09713902  1
  Te  Te130  1  0.23234199  0.62106801  0.45675697  1
  Te  Te131  1  0.24377743  0.59128156  0.71574384  1
  Te  Te132  1  0.21420085  0.92256643  0.11320068  1
  Te  Te133  1  0.29343520  0.90536384  0.39113920  1
  Te  Te134  1  0.28891033  0.90591458  0.74579932  1
  Te  Te135  1  0.58810737  0.24695187  0.08997933  1
  Te  Te136  1  0.55846618  0.24283780  0.41152354  1
  Te  Te137  1  0.57718807  0.25034141  0.76437473  1
  Te  Te138  1  0.55587661  0.58477101  0.09518879  1
  Te  Te139  1  0.63860464  0.54741199  0.44936911  1
  Te  Te140  1  0.56264882  0.62139996  0.75935358  1
  Te  Te141  1  0.56140587  0.89057238  0.08080333  1
  Te  Te142  1  0.54597835  0.89464030  0.40028181  1
  Te  Te143  1  0.58492097  0.91265619  0.73824961  1
  Te  Te144  1  0.93664908  0.25566879  0.08214552  1
  Te  Te145  1  0.89433718  0.24219339  0.40768806  1
  Te  Te146  1  0.91056271  0.22875138  0.74891063  1
  Te  Te147  1  0.91309698  0.58652724  0.07889721  1
  Te  Te148  1  0.91818073  0.60415823  0.40754045  1
  Te  Te149  1  0.95810083  0.62650722  0.71567430  1
  Te  Te150  1  0.92647736  0.93277229  0.10709332  1
  Te  Te151  1  0.94891918  0.91413703  0.42241244  1
  Te  Te152  1  0.91476897  0.93205514  0.75977268  1
  Te  Te153  1  0.26536759  0.04449464  0.25316936  1
  Te  Te154  1  0.27684424  0.07233454  0.56485861  1
  Te  Te155  1  0.24450044  0.08386872  0.91788845  1
  Te  Te156  1  0.24163126  0.41797879  0.24617939  1
  Te  Te157  1  0.27069973  0.43702552  0.60534381  1
  Te  Te158  1  0.26487947  0.41347407  0.90498714  1
  Te  Te159  1  0.22117565  0.76637022  0.28548508  1
  Te  Te160  1  0.23869618  0.75765199  0.54162788  1
  Te  Te161  1  0.22735033  0.77285220  0.93409375  1
  Te  Te162  1  0.56101171  0.07097892  0.26746582  1
  Te  Te163  1  0.55913853  0.05044533  0.54704750  1
  Te  Te164  1  0.59928784  0.07943043  0.91041766  1
  Te  Te165  1  0.56597796  0.41862670  0.27211763  1
  Te  Te166  1  0.57914293  0.46183459  0.57057097  1
  Te  Te167  1  0.56691644  0.44088259  0.92496794  1
  Te  Te168  1  0.58334018  0.73235915  0.28221497  1
  Te  Te169  1  0.55097439  0.72626236  0.56316473  1
  Te  Te170  1  0.55574222  0.75727233  0.92215955  1
  Te  Te171  1  0.90736644  0.08399589  0.26609531  1
  Te  Te172  1  0.93979805  0.05659774  0.58807004  1
  Te  Te173  1  0.92845890  0.06112620  0.91729410  1
  Te  Te174  1  0.90590165  0.43002409  0.24303732  1
  Te  Te175  1  0.92514025  0.42165714  0.58505071  1
  Te  Te176  1  0.94730172  0.39259571  0.91358498  1
  Te  Te177  1  0.95821461  0.76949246  0.24823460  1
  Te  Te178  1  0.95951076  0.77432618  0.56379715  1
  Te  Te179  1  0.92903113  0.76332741  0.90695537  1
