# generated using pymatgen
data_In2Te3
_symmetry_space_group_name_H-M   'P 1'
_cell_length_a   18.95962301
_cell_length_b   18.94729730
_cell_length_c   18.92773688
_cell_angle_alpha   90.25553366
_cell_angle_beta   90.00888497
_cell_angle_gamma   89.97754063
_symmetry_Int_Tables_number   1
_chemical_formula_structural   In2Te3
_chemical_formula_sum   'In72 Te108'
_cell_volume   6799.41109427
_cell_formula_units_Z   36
loop_
 _symmetry_equiv_pos_site_id
 _symmetry_equiv_pos_as_xyz
  1  'x, y, z'
loop_
 _atom_site_type_symbol
 _atom_site_label
 _atom_site_symmetry_multiplicity
 _atom_site_fract_x
 _atom_site_fract_y
 _atom_site_fract_z
 _atom_site_occupancy
  In  In0  1  0.17457722  0.16612391  0.34728652  1
  In  In1  1  0.15611873  0.49090853  0.02780564  1
  In  In2  1  0.52092963  0.34322591  0.15831428  1
  In  In3  1  0.70451298  0.03169153  0.39940163  1
  In  In4  1  0.19306224  0.15256102  0.66717741  1
  In  In5  1  0.82484432  0.02810288  0.82695823  1
  In  In6  1  0.65305745  0.01042656  -0.02272059  1
  In  In7  1  0.51517440  0.02173211  0.53653725  1
  In  In8  1  0.68063986  0.30130216  -0.02933866  1
  In  In9  1  -0.01079537  0.48393477  0.83528724  1
  In  In10  1  0.48398763  0.50326822  0.01290543  1
  In  In11  1  0.46720818  0.82558783  0.64997411  1
  In  In12  1  0.01952341  0.49454491  0.16308249  1
  In  In13  1  0.49203006  0.67145766  0.79529654  1
  In  In14  1  0.81963786  0.84198862  0.64884217  1
  In  In15  1  0.00787576  0.15786597  0.50981273  1
  In  In16  1  0.50726000  0.32536047  0.81385495  1
  In  In17  1  0.51074317  0.16461580  0.34451554  1
  In  In18  1  -0.00524936  0.84213913  0.15346437  1
  In  In19  1  0.83904127  -0.01645394  0.15712791  1
  In  In20  1  0.31729700  0.66361469  -0.00998438  1
  In  In21  1  0.32052061  0.84495077  0.12270894  1
  In  In22  1  0.85432686  0.41451489  0.00368118  1
  In  In23  1  0.00322648  0.29657535  0.68654110  1
  In  In24  1  0.32555175  0.17886968  0.82846002  1
  In  In25  1  0.67233126  0.33563986  0.65048902  1
  In  In26  1  0.03069679  0.35060477  0.33390992  1
  In  In27  1  0.33364731  0.65065090  0.35818047  1
  In  In28  1  0.18990346  0.85497270  0.69107851  1
  In  In29  1  0.15540147  0.33326753  0.85139310  1
  In  In30  1  0.01667375  0.83788145  0.50240441  1
  In  In31  1  -0.00096588  0.65986816  0.00376906  1
  In  In32  1  0.67798465  0.83999324  0.81843830  1
  In  In33  1  0.68241018  0.19167425  0.17375674  1
  In  In34  1  0.84330191  0.66250909  0.49667997  1
  In  In35  1  0.66469756  0.31985609  0.34488733  1
  In  In36  1  0.49827162  0.85383708  -0.04934033  1
  In  In37  1  0.32019581  0.33394767  0.34823716  1
  In  In38  1  0.15702209  0.86823915  -0.01692987  1
  In  In39  1  0.46342145  0.00787252  0.79410206  1
  In  In40  1  0.18248321  0.65592141  0.80890587  1
  In  In41  1  0.16279775  0.31850572  0.16808568  1
  In  In42  1  0.47557763  0.67711117  0.18462059  1
  In  In43  1  0.85819345  0.83077317  0.32203572  1
  In  In44  1  0.82144620  0.66087226  0.16219590  1
  In  In45  1  0.35805800  -0.00477192  0.35567719  1
  In  In46  1  0.48815320  0.81748053  0.34669362  1
  In  In47  1  0.84567709  0.17442291  -0.00631272  1
  In  In48  1  0.65202880  0.51457364  0.83132043  1
  In  In49  1  0.82343391  0.67249249  0.83556908  1
  In  In50  1  0.33285609  0.36720356  0.63180811  1
  In  In51  1  0.02337508  0.49657690  0.50539520  1
  In  In52  1  0.65864207  0.83797202  0.48435992  1
  In  In53  1  0.67672800  0.67067257  0.01755350  1
  In  In54  1  0.83957887  0.32754379  0.49313847  1
  In  In55  1  0.83941914  0.48038612  0.35380214  1
  In  In56  1  0.47923740  0.14968821  -0.03229586  1
  In  In57  1  0.49653753  0.32440873  0.50478468  1
  In  In58  1  -0.01785635  0.01335005  0.33554299  1
  In  In59  1  -0.00085952  0.02172956  0.68582827  1
  In  In60  1  0.47792586  0.65070712  0.51041704  1
  In  In61  1  0.67261830  0.48759266  0.19198112  1
  In  In62  1  0.15855001  0.14582704  -0.00249078  1
  In  In63  1  0.16683502  0.67834577  0.52079210  1
  In  In64  1  0.82390390  0.50280511  0.65575034  1
  In  In65  1  0.18075875  0.84081568  0.33489264  1
  In  In66  1  0.65161558  0.82835797  0.18295826  1
  In  In67  1  0.00955610  0.82712921  0.84056062  1
  In  In68  1  0.15793478  0.66551601  0.19269580  1
  In  In69  1  0.32730039  0.16783623  0.16439272  1
  In  In70  1  0.31794718  0.48877615  0.80486162  1
  In  In71  1  0.49229272  0.01994289  0.16290029  1
  Te  Te72  1  0.09856932  0.05296133  0.09213690  1
  Te  Te73  1  0.09381595  0.06405696  0.42707622  1
  Te  Te74  1  0.07399081  0.13059719  0.75624503  1
  Te  Te75  1  0.06198997  0.38039225  0.06421756  1
  Te  Te76  1  0.12015209  0.39823315  0.44423323  1
  Te  Te77  1  0.08917091  0.41738696  0.74377245  1
  Te  Te78  1  0.10094420  0.74844191  0.07531172  1
  Te  Te79  1  0.08598352  0.74572134  0.40399831  1
  Te  Te80  1  0.08585035  0.74697267  0.73746995  1
  Te  Te81  1  0.39142184  0.07067257  0.06293865  1
  Te  Te82  1  0.41664238  0.10312392  0.44466133  1
  Te  Te83  1  0.41992393  0.13148167  0.72234694  1
  Te  Te84  1  0.40815255  0.41673288  0.10168172  1
  Te  Te85  1  0.41088080  0.41679250  0.42863727  1
  Te  Te86  1  0.43670808  0.42977404  0.73092480  1
  Te  Te87  1  0.42965023  0.75010815  0.05759899  1
  Te  Te88  1  0.38751047  0.76460938  0.44217450  1
  Te  Te89  1  0.38979216  0.76914799  0.76200674  1
  Te  Te90  1  0.74019318  0.08285854  0.07909825  1
  Te  Te91  1  0.78877612  0.12518914  0.47365480  1
  Te  Te92  1  0.72935896  0.03655528  0.71499009  1
  Te  Te93  1  0.72905303  0.39293006  0.08772643  1
  Te  Te94  1  0.73151307  0.42054697  0.43998979  1
  Te  Te95  1  0.74660828  0.42170794  0.75802497  1
  Te  Te96  1  0.75998011  0.77758923  0.08690327  1
  Te  Te97  1  0.75904501  0.75300849  0.40761735  1
  Te  Te98  1  0.74004861  0.73632062  0.72653061  1
  Te  Te99  1  0.07578736  0.22725811  0.24987777  1
  Te  Te100  1  0.10517555  0.24590032  0.58458462  1
  Te  Te101  1  0.07366734  0.21901255  0.89811302  1
  Te  Te102  1  0.10863742  0.54979227  0.26800810  1
  Te  Te103  1  0.07193393  0.59755598  0.59942749  1
  Te  Te104  1  0.09207433  0.57933677  0.91232461  1
  Te  Te105  1  0.07389535  0.91826700  0.25721809  1
  Te  Te106  1  0.08527434  0.92827090  0.60303265  1
  Te  Te107  1  0.09695976  0.94287370  0.87111265  1
  Te  Te108  1  0.43041962  0.24642590  0.24575916  1
  Te  Te109  1  0.41611514  0.24645177  0.60447425  1
  Te  Te110  1  0.40964107  0.27404326  0.91746031  1
  Te  Te111  1  0.40348076  0.57227925  0.25515186  1
  Te  Te112  1  0.39956834  0.58405031  0.61279651  1
  Te  Te113  1  0.41142968  0.57998240  0.90140346  1
  Te  Te114  1  0.41932003  0.90602937  0.23363379  1
  Te  Te115  1  0.39852911  0.94612419  0.59275372  1
  Te  Te116  1  0.38812351  0.93201873  0.89825537  1
  Te  Te117  1  0.77278415  0.26091687  0.26460816  1
  Te  Te118  1  0.77295110  0.23799469  0.59111367  1
  Te  Te119  1  0.75787258  0.21366023  0.87902915  1
  Te  Te120  1  0.75602758  0.58266675  0.27399104  1
  Te  Te121  1  0.74199088  0.58445161  0.56688160  1
  Te  Te122  1  0.75550507  0.57433802  0.92989281  1
  Te  Te123  1  0.74485095  0.91732189  0.26478083  1
  Te  Te124  1  0.72324979  0.93406863  0.58197744  1
  Te  Te125  1  0.75731446  0.91830382  0.91896615  1
  Te  Te126  1  0.24998761  0.25010587  0.06474280  1
  Te  Te127  1  0.26372578  0.23560595  0.44020487  1
  Te  Te128  1  0.25167814  0.28211548  0.74041983  1
  Te  Te129  1  0.25247447  0.58341800  0.09903034  1
  Te  Te130  1  0.25390806  0.57038426  0.45523821  1
  Te  Te131  1  0.27558541  0.59415081  0.70700240  1
  Te  Te132  1  0.21258829  0.94881882  0.09797100  1
  Te  Te133  1  0.24977353  0.93004117  0.42891588  1
  Te  Te134  1  0.24280460  0.97601438  0.76386191  1
  Te  Te135  1  0.57402703  0.22771319  0.06376385  1
  Te  Te136  1  0.60384307  0.22574020  0.44501102  1
  Te  Te137  1  0.60188174  0.24075062  0.74089279  1
  Te  Te138  1  0.58609460  0.58353053  0.10310629  1
  Te  Te139  1  0.54967842  0.61794584  0.38828941  1
  Te  Te140  1  0.58098909  0.58162420  0.72280537  1
  Te  Te141  1  0.57509829  0.91491187  0.07566826  1
  Te  Te142  1  0.56514604  0.93373955  0.41086285  1
  Te  Te143  1  0.56474341  0.90157182  0.74420566  1
  Te  Te144  1  0.90991906  0.28932458  0.06204532  1
  Te  Te145  1  0.94237930  0.25307511  0.41071389  1
  Te  Te146  1  0.89711263  0.24280386  0.77308831  1
  Te  Te147  1  0.90772141  0.56226581  0.07542174  1
  Te  Te148  1  0.93760970  0.57999696  0.41032665  1
  Te  Te149  1  0.91486341  0.58542190  0.75125377  1
  Te  Te150  1  0.94232313  0.94188687  0.05792340  1
  Te  Te151  1  0.90988013  0.92107458  0.43305559  1
  Te  Te152  1  0.90855005  0.90838078  0.75339440  1
  Te  Te153  1  0.26418121  0.07401882  0.26292605  1
  Te  Te154  1  0.26622202  0.03196911  0.62015264  1
  Te  Te155  1  0.24425489  0.07303278  0.89465641  1
  Te  Te156  1  0.23429893  0.41234681  0.25577026  1
  Te  Te157  1  0.23950116  0.44052962  0.54369923  1
  Te  Te158  1  0.25133798  0.42622366  0.92608372  1
  Te  Te159  1  0.26990308  0.75709931  0.24039671  1
  Te  Te160  1  0.25418616  0.78196717  0.58066549  1
  Te  Te161  1  0.23848262  0.75954350  0.90609566  1
  Te  Te162  1  0.59949854  0.08519121  0.24872631  1
  Te  Te163  1  0.60895846  0.08600992  0.62971852  1
  Te  Te164  1  0.57654886  0.08402078  0.87312622  1
  Te  Te165  1  0.57019637  0.42030448  0.28010377  1
  Te  Te166  1  0.58559921  0.42247012  0.57030268  1
  Te  Te167  1  0.58190133  0.41664456  0.93026481  1
  Te  Te168  1  0.59302834  0.72213515  0.27958099  1
  Te  Te169  1  0.57759137  0.75162794  0.57625982  1
  Te  Te170  1  0.59309342  0.73742993  0.90990809  1
  Te  Te171  1  0.89393148  0.08701002  0.24493812  1
  Te  Te172  1  0.90565526  0.08002716  0.58524971  1
  Te  Te173  1  0.92320248  0.06503847  0.93086398  1
  Te  Te174  1  0.92100048  0.41181077  0.24681242  1
  Te  Te175  1  0.92888135  0.40293457  0.59409095  1
  Te  Te176  1  0.90431644  0.36479127  0.86921317  1
  Te  Te177  1  0.93478199  0.72922706  0.23716715  1
  Te  Te178  1  0.92534750  0.75120913  0.58824132  1
  Te  Te179  1  0.90856580  0.75604327  0.93070541  1
