# generated using pymatgen
data_In2Te3
_symmetry_space_group_name_H-M   'P 1'
_cell_length_a   18.90044296
_cell_length_b   18.90635943
_cell_length_c   18.91192084
_cell_angle_alpha   90.00513432
_cell_angle_beta   89.99822415
_cell_angle_gamma   89.93709637
_symmetry_Int_Tables_number   1
_chemical_formula_structural   In2Te3
_chemical_formula_sum   'In72 Te108'
_cell_volume   6757.95460469
_cell_formula_units_Z   36
loop_
 _symmetry_equiv_pos_site_id
 _symmetry_equiv_pos_as_xyz
  1  'x, y, z'
loop_
 _atom_site_type_symbol
 _atom_site_label
 _atom_site_symmetry_multiplicity
 _atom_site_fract_x
 _atom_site_fract_y
 _atom_site_fract_z
 _atom_site_occupancy
  In  In0  1  0.13081281  -0.02413762  0.17900077  1
  In  In1  1  0.32564506  0.40682444  0.28503859  1
  In  In2  1  0.15480042  0.14595734  0.63631551  1
  In  In3  1  0.81136593  0.50328970  0.66102526  1
  In  In4  1  0.32895734  0.66584868  0.01799727  1
  In  In5  1  -0.02413528  0.34620208  0.68554187  1
  In  In6  1  0.32747713  -0.01944853  0.31274133  1
  In  In7  1  0.50136460  0.34583305  0.16871822  1
  In  In8  1  0.47623922  -0.10729803  0.49375227  1
  In  In9  1  0.34791214  0.65970273  0.65676089  1
  In  In10  1  0.33604846  0.33405435  0.66766345  1
  In  In11  1  0.85050920  -0.02916234  0.46068770  1
  In  In12  1  -0.02756600  0.15191616  0.19457971  1
  In  In13  1  0.65650477  -0.00964432  0.64367732  1
  In  In14  1  0.15674675  -0.00767625  0.85100643  1
  In  In15  1  0.35770344  0.33917589  0.01218781  1
  In  In16  1  0.81685251  0.53630303  0.30823921  1
  In  In17  1  -0.01024168  0.81748450  0.18477480  1
  In  In18  1  0.16256655  0.81869433  0.66247651  1
  In  In19  1  0.13347329  0.17520212  0.34651962  1
  In  In20  1  0.69414821  0.31285826  0.31021817  1
  In  In21  1  0.83274675  0.67473703  0.49207662  1
  In  In22  1  0.50293931  -0.00902824  0.16529066  1
  In  In23  1  0.51227967  0.33007937  0.83126175  1
  In  In24  1  0.51928691  0.69158577  0.84136703  1
  In  In25  1  0.36060740  0.51690924  0.84204967  1
  In  In26  1  0.00190899  0.53451129  0.17723732  1
  In  In27  1  -0.00388929  -0.00380502  0.00428502  1
  In  In28  1  0.01182095  0.51506747  0.49209274  1
  In  In29  1  0.83197127  0.15289125  0.01642871  1
  In  In30  1  0.69759995  -0.01027849  0.02489784  1
  In  In31  1  0.51110742  -0.02050816  0.80757434  1
  In  In32  1  0.68048068  0.34411624  0.02567828  1
  In  In33  1  0.17193473  0.32710304  0.82530735  1
  In  In34  1  0.80915594  0.32189429  0.49058566  1
  In  In35  1  0.17911369  -0.00586494  0.47620405  1
  In  In36  1  0.15877188  0.67104217  0.83890670  1
  In  In37  1  0.83921314  0.31890619  0.82224497  1
  In  In38  1  0.33956972  -0.01257653  -0.01798596  1
  In  In39  1  0.52300380  0.67352544  0.17265612  1
  In  In40  1  0.15817435  0.20029828  0.00211495  1
  In  In41  1  0.51062701  0.18760852  -0.01358812  1
  In  In42  1  0.67255694  0.67029113  0.67524530  1
  In  In43  1  0.16123631  0.68042909  0.46436692  1
  In  In44  1  0.82317842  0.66696379  0.85343305  1
  In  In45  1  0.67980880  0.50468964  0.85371234  1
  In  In46  1  -0.02105544  0.15985088  0.49601503  1
  In  In47  1  0.50441929  0.16538785  0.32910085  1
  In  In48  1  0.82230613  -0.01928202  0.84388822  1
  In  In49  1  0.17683845  0.35081298  0.49667401  1
  In  In50  1  0.68969644  0.84268936  0.21862928  1
  In  In51  1  0.31263312  0.16925110  0.15818938  1
  In  In52  1  0.55478360  0.38610812  0.49234664  1
  In  In53  1  -0.01237208  0.65338828  0.64689728  1
  In  In54  1  -0.00736016  -0.01755394  0.67149294  1
  In  In55  1  0.67882952  0.84166489  0.46308051  1
  In  In56  1  -0.00194801  0.34652141  0.34781224  1
  In  In57  1  0.68830645  0.14296279  0.49566187  1
  In  In58  1  0.82136086  0.82232153  0.02598642  1
  In  In59  1  0.49686004  0.68442726  0.48986288  1
  In  In60  1  -0.01552317  0.33021157  -0.00002709  1
  In  In61  1  0.01741091  0.48444009  0.84348441  1
  In  In62  1  0.65203395  0.15174777  0.82861832  1
  In  In63  1  0.32734643  0.79396633  0.18225510  1
  In  In64  1  0.16685812  0.51561748  0.00300678  1
  In  In65  1  0.49397989  0.52454053  0.31905262  1
  In  In66  1  0.15160834  0.85086497  0.03994345  1
  In  In67  1  0.34482041  0.81880944  0.82647366  1
  In  In68  1  0.48565543  0.14595110  0.66973945  1
  In  In69  1  0.34240831  0.52862341  0.48202059  1
  In  In70  1  0.82505669  0.53225839  0.02347254  1
  In  In71  1  0.31803662  0.16893581  0.49874549  1
  Te  Te72  1  0.07844868  0.09969285  0.08566076  1
  Te  Te73  1  0.05790952  0.06081453  0.40904225  1
  Te  Te74  1  0.08038642  0.07934178  0.75134812  1
  Te  Te75  1  0.06578379  0.42899540  0.07864307  1
  Te  Te76  1  0.10627302  0.44250692  0.39779373  1
  Te  Te77  1  0.09958964  0.42229765  0.73069178  1
  Te  Te78  1  0.09346940  0.73131942  0.10760261  1
  Te  Te79  1  0.05018280  0.77164560  0.43166251  1
  Te  Te80  1  0.06223764  0.74499449  0.74929756  1
  Te  Te81  1  0.41805892  0.09427525  0.07700579  1
  Te  Te82  1  0.39945800  0.08183062  0.40238067  1
  Te  Te83  1  0.40652676  0.07311786  0.76902910  1
  Te  Te84  1  0.42438415  0.44304076  0.08984954  1
  Te  Te85  1  0.41907136  0.41192472  0.41106543  1
  Te  Te86  1  0.43271370  0.42560931  0.74352431  1
  Te  Te87  1  0.43199066  0.75921934  0.07730225  1
  Te  Te88  1  0.40464329  0.78225300  0.42791866  1
  Te  Te89  1  0.44045057  0.76592720  0.71760786  1
  Te  Te90  1  0.74334319  0.09555711  0.12332526  1
  Te  Te91  1  0.76442464  0.07041414  0.38922449  1
  Te  Te92  1  0.74433816  0.06851037  0.74515262  1
  Te  Te93  1  0.75502854  0.43624506  0.11492512  1
  Te  Te94  1  0.75374448  0.42692585  0.39569404  1
  Te  Te95  1  0.73624130  0.40501664  0.74963598  1
  Te  Te96  1  0.76152747  0.73729872  0.13432171  1
  Te  Te97  1  0.74908165  0.73659208  0.38058980  1
  Te  Te98  1  0.78499488  0.74381983  0.73440773  1
  Te  Te99  1  0.07159147  0.26372054  0.24161402  1
  Te  Te100  1  0.07574141  0.25877241  0.56703292  1
  Te  Te101  1  0.06066035  0.24964904  0.89594871  1
  Te  Te102  1  0.09284705  0.62899867  0.24845381  1
  Te  Te103  1  0.10719964  0.58825787  0.58158144  1
  Te  Te104  1  0.06142257  0.59984540  0.93206166  1
  Te  Te105  1  0.09650561  0.87140013  0.28049414  1
  Te  Te106  1  0.08703779  0.91551864  0.57229488  1
  Te  Te107  1  0.06605891  0.89190792  0.91980997  1
  Te  Te108  1  0.40620607  0.25345458  0.24682617  1
  Te  Te109  1  0.42146453  0.25115041  0.57347013  1
  Te  Te110  1  0.40220720  0.24838679  0.89827568  1
  Te  Te111  1  0.40648777  0.62343276  0.25223002  1
  Te  Te112  1  0.44818611  0.57284590  0.58287493  1
  Te  Te113  1  0.44369652  0.59890420  0.93658888  1
  Te  Te114  1  0.42889332  0.88716893  0.24970380  1
  Te  Te115  1  0.41720712  0.89045801  0.62658560  1
  Te  Te116  1  0.43986908  0.89548591  0.91877500  1
  Te  Te117  1  0.75878419  0.21633716  0.22311510  1
  Te  Te118  1  0.75396225  0.23240810  0.59157440  1
  Te  Te119  1  0.74163378  0.24242543  0.92089254  1
  Te  Te120  1  0.71542848  0.58559698  0.20274413  1
  Te  Te121  1  0.73171626  0.57778793  0.55742762  1
  Te  Te122  1  0.71267253  0.61782110  0.95144541  1
  Te  Te123  1  0.78526002  0.94608068  0.27695303  1
  Te  Te124  1  0.76297336  0.90846177  0.56983102  1
  Te  Te125  1  0.72298399  0.88379049  0.91407382  1
  Te  Te126  1  0.24046408  0.28808598  0.09516884  1
  Te  Te127  1  0.24928132  0.26051874  0.39787521  1
  Te  Te128  1  0.24434233  0.23184590  0.73194944  1
  Te  Te129  1  0.25824824  0.56898050  0.10935546  1
  Te  Te130  1  0.26869169  0.61261900  0.38706218  1
  Te  Te131  1  0.25631869  0.58803523  0.75647931  1
  Te  Te132  1  0.26802255  0.92650632  0.10253002  1
  Te  Te133  1  0.26027548  0.89020037  0.40772411  1
  Te  Te134  1  0.24324524  0.90917761  0.75699501  1
  Te  Te135  1  0.59194890  0.24400361  0.10101787  1
  Te  Te136  1  0.59347341  0.25196978  0.42030314  1
  Te  Te137  1  0.58606884  0.24519617  0.72901626  1
  Te  Te138  1  0.60220151  0.56465940  0.10936565  1
  Te  Te139  1  0.58619755  0.60641128  0.39883507  1
  Te  Te140  1  0.58523860  0.57983449  0.76036467  1
  Te  Te141  1  0.60374969  0.89761741  0.10077253  1
  Te  Te142  1  0.58379899  0.93922630  0.40333534  1
  Te  Te143  1  0.60412674  0.89135013  0.73886640  1
  Te  Te144  1  0.90142579  0.25775121  0.10299076  1
  Te  Te145  1  0.89889885  0.24162467  0.39607485  1
  Te  Te146  1  0.90821147  0.22620413  0.73243177  1
  Te  Te147  1  0.90743084  0.62330574  0.10427386  1
  Te  Te148  1  0.92614191  0.59553761  0.39891502  1
  Te  Te149  1  0.91780293  0.56302057  0.75508975  1
  Te  Te150  1  0.90746960  0.92573140  0.10240571  1
  Te  Te151  1  0.92161983  0.85333093  0.39628454  1
  Te  Te152  1  0.91149133  0.89811188  0.76124222  1
  Te  Te153  1  0.22512952  0.08785767  0.25267373  1
  Te  Te154  1  0.26696624  0.05576258  0.58591462  1
  Te  Te155  1  0.24102461  0.09145467  0.93023055  1
  Te  Te156  1  0.21252748  0.48053970  0.23155695  1
  Te  Te157  1  0.26505956  0.43794249  0.58325864  1
  Te  Te158  1  0.25422375  0.42360868  0.91052352  1
  Te  Te159  1  0.19793702  0.74436009  0.23918813  1
  Te  Te160  1  0.25744885  0.74462331  0.57101726  1
  Te  Te161  1  0.24456131  0.76000657  0.93103703  1
  Te  Te162  1  0.58657651  0.05920571  0.26709809  1
  Te  Te163  1  0.56415006  0.07616051  0.55969462  1
  Te  Te164  1  0.58960634  0.06624690  0.93867409  1
  Te  Te165  1  0.59348247  0.41663777  0.26352012  1
  Te  Te166  1  0.64359186  0.43737186  0.59334207  1
  Te  Te167  1  0.58267444  0.41765304  0.93376088  1
  Te  Te168  1  0.59699656  0.74260813  0.28436968  1
  Te  Te169  1  0.60414898  0.75803959  0.57169940  1
  Te  Te170  1  0.62472331  0.75971058  0.91478274  1
  Te  Te171  1  0.91576755  0.02748289  0.24707645  1
  Te  Te172  1  0.90135701  0.06312242  0.57922778  1
  Te  Te173  1  0.91516356  0.08321769  0.91020470  1
  Te  Te174  1  0.91551389  0.43167245  0.25282285  1
  Te  Te175  1  0.91458325  0.42091621  0.56610571  1
  Te  Te176  1  0.89133077  0.42710719  0.92288120  1
  Te  Te177  1  0.87960741  0.76594892  0.27500192  1
  Te  Te178  1  0.92220954  0.76198030  0.57160765  1
  Te  Te179  1  0.91240537  0.74823330  0.93716750  1
