# generated using pymatgen
data_In2Te3
_symmetry_space_group_name_H-M   'P 1'
_cell_length_a   18.90071202
_cell_length_b   18.89252596
_cell_length_c   18.89842735
_cell_angle_alpha   89.96398856
_cell_angle_beta   89.98078695
_cell_angle_gamma   89.96765970
_symmetry_Int_Tables_number   1
_chemical_formula_structural   In2Te3
_chemical_formula_sum   'In72 Te108'
_cell_volume   6748.28908576
_cell_formula_units_Z   36
loop_
 _symmetry_equiv_pos_site_id
 _symmetry_equiv_pos_as_xyz
  1  'x, y, z'
loop_
 _atom_site_type_symbol
 _atom_site_label
 _atom_site_symmetry_multiplicity
 _atom_site_fract_x
 _atom_site_fract_y
 _atom_site_fract_z
 _atom_site_occupancy
  In  In0  1  0.63483335  0.48401073  0.54874815  1
  In  In1  1  0.18526184  0.19887817  0.68323928  1
  In  In2  1  0.34674403  0.49605696  0.82881452  1
  In  In3  1  0.03310419  0.31008798  0.29783785  1
  In  In4  1  0.69005609  0.80961453  0.14174389  1
  In  In5  1  0.00172431  0.35003631  0.00581657  1
  In  In6  1  0.50474928  0.49851257  -0.01502428  1
  In  In7  1  0.66880237  0.50417756  0.14533351  1
  In  In8  1  0.83333631  0.33447220  0.83895350  1
  In  In9  1  0.01180825  0.33096814  0.68831812  1
  In  In10  1  0.84434641  0.81434826  0.29916918  1
  In  In11  1  0.50175248  0.82323042  0.67363576  1
  In  In12  1  0.82793012  0.67023865  0.85434318  1
  In  In13  1  0.50610517  0.15718205  0.01883637  1
  In  In14  1  -0.01382178  0.16559567  0.83773379  1
  In  In15  1  0.00447379  0.67538516  0.65700204  1
  In  In16  1  0.18479171  0.67030398  0.49764022  1
  In  In17  1  0.51647980  0.32494826  0.83091665  1
  In  In18  1  0.51913248  0.68308903  0.85515522  1
  In  In19  1  0.14866589  0.51091487  0.31765552  1
  In  In20  1  0.31364103  -0.00416147  0.31152116  1
  In  In21  1  -0.01888638  0.16180874  0.48341726  1
  In  In22  1  0.66641266  -0.02491051  -0.01745302  1
  In  In23  1  -0.01073388  0.81169935  0.82666677  1
  In  In24  1  0.83102768  0.33914414  0.17613650  1
  In  In25  1  0.83764395  0.30828415  0.50757677  1
  In  In26  1  0.51082889  0.32024506  0.16835303  1
  In  In27  1  -0.00269896  0.01198012  0.32777047  1
  In  In28  1  0.83679003  0.16785942  0.00266675  1
  In  In29  1  0.65836583  0.17612882  0.48733907  1
  In  In30  1  0.50351810  0.16693181  0.33647747  1
  In  In31  1  0.16224058  -0.00364493  0.51181774  1
  In  In32  1  0.36588149  0.82904296  0.50466435  1
  In  In33  1  0.80978948  -0.02135025  0.84053194  1
  In  In34  1  0.17485787  0.02176884  0.83864164  1
  In  In35  1  0.15917680  0.81063017  0.02485831  1
  In  In36  1  0.16863457  0.84295594  0.30252632  1
  In  In37  1  0.19353405  0.36039411  0.52890117  1
  In  In38  1  0.29773691  0.52414819  0.14529458  1
  In  In39  1  0.47712392  -0.00681856  0.83550763  1
  In  In40  1  0.32634996  0.83118043  0.84748356  1
  In  In41  1  0.00145973  0.53685439  0.12206351  1
  In  In42  1  0.49328649  0.16768947  0.68425167  1
  In  In43  1  0.49301199  -0.00014444  0.16424959  1
  In  In44  1  0.64651299  0.00236375  0.68136371  1
  In  In45  1  0.00358839  -0.04828167  0.01096937  1
  In  In46  1  0.83479359  0.48589075  0.32594275  1
  In  In47  1  0.33326599  0.33812084  0.00512269  1
  In  In48  1  0.68958515  0.33909417  0.33972958  1
  In  In49  1  0.66373345  0.66519987  0.32262465  1
  In  In50  1  -0.01448998  0.50744275  0.47944863  1
  In  In51  1  0.15694836  0.83892854  0.67218165  1
  In  In52  1  0.81525753  0.82807256  0.68317116  1
  In  In53  1  0.65392428  -0.00021257  0.34970172  1
  In  In54  1  0.81633432  0.00265222  0.51354207  1
  In  In55  1  0.15683843  0.00897962  0.16350903  1
  In  In56  1  0.49103663  -0.02722699  0.48688444  1
  In  In57  1  0.02607758  0.52486038  0.87517034  1
  In  In58  1  0.65667081  0.50454775  0.83039699  1
  In  In59  1  0.48806117  0.50267769  0.34917704  1
  In  In60  1  0.81913761  0.63699426  0.48908623  1
  In  In61  1  0.82769288  0.50504177  0.67878082  1
  In  In62  1  0.47561345  0.63570354  0.54046241  1
  In  In63  1  0.34792025  0.84861275  0.14231144  1
  In  In64  1  0.85062235  -0.00448411  0.15653037  1
  In  In65  1  0.31591479  0.67331659  0.34942033  1
  In  In66  1  0.34348543  0.33642956  0.33504679  1
  In  In67  1  0.19147315  0.34629215  0.82524603  1
  In  In68  1  0.48369432  0.67428485  0.15013922  1
  In  In69  1  0.33712053  0.18533472  0.51809153  1
  In  In70  1  0.16742416  0.16261397  0.00315884  1
  In  In71  1  0.01044015  0.82396448  0.48187529  1
  Te  Te72  1  0.05907973  0.08079505  0.07181879  1
  Te  Te73  1  0.09599865  0.09041653  0.41268991  1
  Te  Te74  1  0.08356369  0.09726060  0.74327275  1
  Te  Te75  1  0.09537153  0.43043473  0.08396358  1
  Te  Te76  1  0.08263604  0.40818273  0.41741740  1
  Te  Te77  1  0.08773351  0.43839680  0.76061266  1
  Te  Te78  1  0.06948571  0.74961893  0.12600892  1
  Te  Te79  1  0.09621308  0.73975374  0.39216407  1
  Te  Te80  1  0.10187518  0.72738713  0.75962638  1
  Te  Te81  1  0.40003335  0.08833325  0.09491073  1
  Te  Te82  1  0.40119435  0.08083365  0.41300941  1
  Te  Te83  1  0.39499121  0.08792652  0.75842402  1
  Te  Te84  1  0.42076557  0.43046340  0.09826800  1
  Te  Te85  1  0.41192475  0.41572799  0.43820224  1
  Te  Te86  1  0.46949518  0.44733570  0.75137322  1
  Te  Te87  1  0.41982812  0.76034271  0.04740591  1
  Te  Te88  1  0.43786846  0.72760708  0.41835227  1
  Te  Te89  1  0.40949879  0.73908624  0.75898745  1
  Te  Te90  1  0.74480952  0.06876645  0.07416175  1
  Te  Te91  1  0.75846146  0.09455662  0.40665855  1
  Te  Te92  1  0.74781804  0.07908185  0.75377646  1
  Te  Te93  1  0.76336683  0.41915504  0.07370240  1
  Te  Te94  1  0.75592590  0.42927551  0.44547720  1
  Te  Te95  1  0.73624797  0.40517815  0.74257782  1
  Te  Te96  1  0.77914569  0.70577526  0.09066679  1
  Te  Te97  1  0.75640752  0.75093621  0.40788161  1
  Te  Te98  1  0.73600274  0.72650142  0.75174934  1
  Te  Te99  1  0.12848925  0.23446851  0.21916489  1
  Te  Te100  1  0.08130257  0.25281624  0.57777327  1
  Te  Te101  1  0.08381866  0.26167089  0.90357080  1
  Te  Te102  1  0.08918601  0.60895034  0.22178874  1
  Te  Te103  1  0.08471210  0.57928118  0.57140922  1
  Te  Te104  1  0.10597911  0.61037217  0.96465442  1
  Te  Te105  1  0.05714918  0.91312190  0.22870321  1
  Te  Te106  1  0.05684179  0.92008300  0.59054925  1
  Te  Te107  1  0.09259868  0.90414890  0.89674439  1
  Te  Te108  1  0.40714381  0.23523544  0.23978771  1
  Te  Te109  1  0.43351132  0.27092924  0.59124919  1
  Te  Te110  1  0.42269728  0.24852234  0.92464903  1
  Te  Te111  1  0.40642955  0.58329887  0.24885378  1
  Te  Te112  1  0.36256244  0.56299788  0.60149001  1
  Te  Te113  1  0.40968312  0.59767529  0.92340822  1
  Te  Te114  1  0.42314698  0.90501180  0.26412518  1
  Te  Te115  1  0.41203416  0.92972460  0.60849963  1
  Te  Te116  1  0.41360172  0.90809282  0.93913504  1
  Te  Te117  1  0.73945708  0.24348541  0.24201801  1
  Te  Te118  1  0.73038232  0.25304920  0.58929707  1
  Te  Te119  1  0.74827802  0.23975905  0.91130952  1
  Te  Te120  1  0.76128307  0.58619744  0.23687578  1
  Te  Te121  1  0.72938103  0.59253256  0.60319749  1
  Te  Te122  1  0.73776445  0.57953095  0.92766170  1
  Te  Te123  1  0.74256877  0.91718288  0.24968949  1
  Te  Te124  1  0.72567715  0.90755379  0.58929555  1
  Te  Te125  1  0.75327989  0.86495674  0.92121072  1
  Te  Te126  1  0.23301528  0.26498228  0.09026268  1
  Te  Te127  1  0.24402532  0.26028152  0.42471854  1
  Te  Te128  1  0.29279859  0.28565326  0.73651304  1
  Te  Te129  1  0.23445182  0.61991706  0.05332616  1
  Te  Te130  1  0.25253468  0.55680239  0.42111008  1
  Te  Te131  1  0.26489776  0.56694820  0.72688788  1
  Te  Te132  1  0.24327618  0.93003874  0.06666083  1
  Te  Te133  1  0.24920501  0.90246854  0.42601217  1
  Te  Te134  1  0.25379262  0.92494384  0.75016598  1
  Te  Te135  1  0.60425903  0.24539383  0.08626259  1
  Te  Te136  1  0.57075015  0.27773783  0.41489503  1
  Te  Te137  1  0.60329200  0.23048851  0.75782535  1
  Te  Te138  1  0.58621810  0.60238284  0.06352683  1
  Te  Te139  1  0.59501283  0.57714611  0.42751889  1
  Te  Te140  1  0.56690260  0.59070289  0.74844855  1
  Te  Te141  1  0.58189014  0.90184744  0.08490166  1
  Te  Te142  1  0.59107003  0.88878554  0.42136931  1
  Te  Te143  1  0.58910376  0.89641449  0.77517467  1
  Te  Te144  1  0.92667538  0.25094776  0.09203881  1
  Te  Te145  1  0.91478892  0.25947924  0.38756044  1
  Te  Te146  1  0.90070139  0.24065999  0.73702129  1
  Te  Te147  1  0.89722249  0.61272382  0.04516481  1
  Te  Te148  1  0.92189957  0.60319041  0.38232283  1
  Te  Te149  1  0.92828345  0.58609466  0.75879920  1
  Te  Te150  1  0.88523501  0.88404069  0.06535273  1
  Te  Te151  1  0.91113731  0.91872024  0.41438915  1
  Te  Te152  1  0.91731086  0.91959812  0.74675284  1
  Te  Te153  1  0.23178018  0.10382163  0.25111234  1
  Te  Te154  1  0.24987490  0.08736478  0.59517753  1
  Te  Te155  1  0.26756843  0.11141534  0.90815548  1
  Te  Te156  1  0.24907769  0.42171917  0.24600071  1
  Te  Te157  1  0.27327311  0.43443788  0.63048324  1
  Te  Te158  1  0.24585391  0.43825511  0.93199709  1
  Te  Te159  1  0.26523711  0.75152140  0.23055300  1
  Te  Te160  1  0.26127972  0.75974198  0.59226104  1
  Te  Te161  1  0.23477436  0.73463545  0.92043013  1
  Te  Te162  1  0.59102874  0.08743819  0.24229709  1
  Te  Te163  1  0.57096446  0.07797184  0.56631240  1
  Te  Te164  1  0.57983658  0.07686772  0.91104608  1
  Te  Te165  1  0.59050329  0.42791178  0.25511009  1
  Te  Te166  1  0.53847091  0.39888852  0.61900278  1
  Te  Te167  1  0.60229178  0.39756014  0.93414688  1
  Te  Te168  1  0.57790194  0.75554494  0.23803643  1
  Te  Te169  1  0.57145456  0.74228252  0.57210684  1
  Te  Te170  1  0.62259969  0.78027901  0.89701665  1
  Te  Te171  1  0.91754256  0.09656644  0.23931031  1
  Te  Te172  1  0.90864310  0.08917219  0.58710691  1
  Te  Te173  1  0.91869969  0.05926702  0.92299703  1
  Te  Te174  1  0.94468087  0.42722877  0.23809590  1
  Te  Te175  1  0.92179556  0.42042010  0.58959450  1
  Te  Te176  1  0.90977578  0.43721088  0.92178285  1
  Te  Te177  1  0.93753897  0.74772440  0.20985477  1
  Te  Te178  1  0.90387863  0.74703280  0.56836331  1
  Te  Te179  1  0.94460786  0.72256940  0.93784359  1
