# generated using pymatgen
data_In2Te3
_symmetry_space_group_name_H-M   'P 1'
_cell_length_a   19.01502117
_cell_length_b   18.98076658
_cell_length_c   18.99710159
_cell_angle_alpha   90.03283494
_cell_angle_beta   90.09726979
_cell_angle_gamma   90.13647633
_symmetry_Int_Tables_number   1
_chemical_formula_structural   In2Te3
_chemical_formula_sum   'In72 Te108'
_cell_volume   6856.39732380
_cell_formula_units_Z   36
loop_
 _symmetry_equiv_pos_site_id
 _symmetry_equiv_pos_as_xyz
  1  'x, y, z'
loop_
 _atom_site_type_symbol
 _atom_site_label
 _atom_site_symmetry_multiplicity
 _atom_site_fract_x
 _atom_site_fract_y
 _atom_site_fract_z
 _atom_site_occupancy
  In  In0  1  0.33343569  0.54434431  0.50613178  1
  In  In1  1  0.49781654  0.15179715  -0.01582156  1
  In  In2  1  0.85356125  0.16906581  0.01934771  1
  In  In3  1  0.00597349  0.64425984  0.30894082  1
  In  In4  1  0.83752975  0.67762235  0.14312488  1
  In  In5  1  0.46612017  0.49833631  0.32925000  1
  In  In6  1  0.66838859  0.33118880  0.69457083  1
  In  In7  1  0.34239972  0.17227194  0.50477147  1
  In  In8  1  0.00675369  -0.00931191  0.66674333  1
  In  In9  1  0.68674711  0.34303664  0.02327237  1
  In  In10  1  0.16106632  0.16632083  0.64372184  1
  In  In11  1  0.88434176  0.34378159  0.86509832  1
  In  In12  1  0.64719120  0.83022914  0.53820398  1
  In  In13  1  0.32666866  0.68489718  0.30332935  1
  In  In14  1  0.00116577  0.37365732  0.72260535  1
  In  In15  1  0.29525316  0.47977254  0.86295733  1
  In  In16  1  0.34741902  0.70035060  -0.03379150  1
  In  In17  1  0.00646443  0.01263233  0.00368316  1
  In  In18  1  0.15513822  0.81721203  -0.00973333  1
  In  In19  1  0.31537151  0.15225890  0.12561069  1
  In  In20  1  0.49360276  0.34907386  0.83242680  1
  In  In21  1  0.82709808  0.68269386  0.54072582  1
  In  In22  1  0.33832965  0.67995787  0.70369184  1
  In  In23  1  0.33617895  0.17090154  0.82785413  1
  In  In24  1  0.68043451  0.51698552  0.84640093  1
  In  In25  1  0.48861818  0.83950257  0.31645849  1
  In  In26  1  0.16958549  0.81553653  0.32158364  1
  In  In27  1  0.85195074  0.81604551  -0.02525361  1
  In  In28  1  0.66887322  -0.01313155  0.69641703  1
  In  In29  1  0.48078799  0.32932026  0.15438025  1
  In  In30  1  0.83907089  0.53865570  0.70473850  1
  In  In31  1  -0.01066941  0.18625087  0.49448193  1
  In  In32  1  0.53136828  0.13733657  0.34117570  1
  In  In33  1  0.48845646  -0.02200937  0.51796698  1
  In  In34  1  0.34515541  0.31756495  0.29169913  1
  In  In35  1  0.80180408  0.01408942  0.51820763  1
  In  In36  1  0.67228422  0.14486832  0.85538938  1
  In  In37  1  0.67921020  0.16391288  0.19036414  1
  In  In38  1  0.16819551  0.20558685  0.27787244  1
  In  In39  1  -0.01587832  0.51550161  0.51929297  1
  In  In40  1  0.01585354  0.82357831  0.83042822  1
  In  In41  1  0.64365585  0.17354337  0.51172597  1
  In  In42  1  0.36286384  -0.06610734  0.74574721  1
  In  In43  1  0.83083701  -0.01520545  0.13208099  1
  In  In44  1  0.34891985  -0.03405304  -0.04010504  1
  In  In45  1  0.32096133  0.81379766  0.49100913  1
  In  In46  1  0.02069999  0.36750212  0.30056513  1
  In  In47  1  0.66466421  0.81729798  0.83653018  1
  In  In48  1  0.05284970  0.50012908  0.88469574  1
  In  In49  1  0.62423300  -0.06930417  -0.00584207  1
  In  In50  1  0.84312966  0.49854726  0.32353370  1
  In  In51  1  -0.03060886  0.83391916  0.51875311  1
  In  In52  1  0.47204446  0.37728176  0.54152821  1
  In  In53  1  0.31508210  0.34322571  0.63915095  1
  In  In54  1  0.32976030  0.83529102  0.15567169  1
  In  In55  1  0.00863813  -0.02501153  0.31745062  1
  In  In56  1  0.01742865  0.17120183  0.84982014  1
  In  In57  1  0.83501084  0.81741962  0.33330155  1
  In  In58  1  0.85653329  0.52357158  -0.02370141  1
  In  In59  1  0.66873016  0.51846466  0.16335071  1
  In  In60  1  0.86065348  0.17287432  0.30893293  1
  In  In61  1  0.16272729  0.35125894  0.47938884  1
  In  In62  1  0.14779056  0.00167111  0.48839389  1
  In  In63  1  0.69706354  -0.00511645  0.33131754  1
  In  In64  1  0.14110195  0.66333927  0.49950893  1
  In  In65  1  0.81626916  0.33908035  0.50648236  1
  In  In66  1  0.17376714  0.17274542  -0.00561543  1
  In  In67  1  0.63012587  0.66710564  0.34307933  1
  In  In68  1  0.28555075  0.50303240  0.14623473  1
  In  In69  1  0.64769330  0.66189814  0.68920636  1
  In  In70  1  0.49285634  0.52664897  0.00974486  1
  In  In71  1  0.67284998  0.32057376  0.32398002  1
  Te  Te72  1  0.09800809  0.08919090  0.08785964  1
  Te  Te73  1  0.06490930  0.09424723  0.40118742  1
  Te  Te74  1  0.09409696  0.08286971  0.74998660  1
  Te  Te75  1  0.13657743  0.46759442  0.14512018  1
  Te  Te76  1  0.07514279  0.45515802  0.41261647  1
  Te  Te77  1  0.11798298  0.45470385  0.75758127  1
  Te  Te78  1  0.04828174  0.72098980  0.02953379  1
  Te  Te79  1  0.05638986  0.76160532  0.41461851  1
  Te  Te80  1  0.13152192  0.74678501  0.77540811  1
  Te  Te81  1  0.41764937  0.05652365  0.06782461  1
  Te  Te82  1  0.41984087  0.07172041  0.42029241  1
  Te  Te83  1  0.41255091  0.07081914  0.75249271  1
  Te  Te84  1  0.40031587  0.42522445  0.07420009  1
  Te  Te85  1  0.38867556  0.40106194  0.41672119  1
  Te  Te86  1  0.38717297  0.41731371  0.75238211  1
  Te  Te87  1  0.43044601  0.75347585  0.08198481  1
  Te  Te88  1  0.42331810  0.73897805  0.40846911  1
  Te  Te89  1  0.45136461  0.76290323  0.77497326  1
  Te  Te90  1  0.73684286  0.08676926  0.07293312  1
  Te  Te91  1  0.75326152  0.11991492  0.41035685  1
  Te  Te92  1  0.75896598  0.08528501  0.75527916  1
  Te  Te93  1  0.77570933  0.44513540  0.08600798  1
  Te  Te94  1  0.73950408  0.42679950  0.41038935  1
  Te  Te95  1  0.77183300  0.41452161  0.77724350  1
  Te  Te96  1  0.74465791  0.74474381  0.05029475  1
  Te  Te97  1  0.73957907  0.75502146  0.43287455  1
  Te  Te98  1  0.75522432  0.73006070  0.76078870  1
  Te  Te99  1  0.04897673  0.25400494  0.20320345  1
  Te  Te100  1  0.07568601  0.27708006  0.58203830  1
  Te  Te101  1  0.11122624  0.27605829  0.90289981  1
  Te  Te102  1  0.11658959  0.59991009  0.22528595  1
  Te  Te103  1  0.05516047  0.60959578  0.60781017  1
  Te  Te104  1  0.12609198  0.61419720  0.94982452  1
  Te  Te105  1  0.09787493  0.90334038  0.22866083  1
  Te  Te106  1  0.09273382  0.89752093  0.58284912  1
  Te  Te107  1  0.09119229  0.93043937  0.91083508  1
  Te  Te108  1  0.43658128  0.20870036  0.23969076  1
  Te  Te109  1  0.43110569  0.24571904  0.60278089  1
  Te  Te110  1  0.41162907  0.26049222  0.92544310  1
  Te  Te111  1  0.40039530  0.57952315  0.22446899  1
  Te  Te112  1  0.42149207  0.60002190  0.60764876  1
  Te  Te113  1  0.40920550  0.57904848  0.89694080  1
  Te  Te114  1  0.38952802  0.92505316  0.25511982  1
  Te  Te115  1  0.39502313  0.89287186  0.59749453  1
  Te  Te116  1  0.44023396  0.86530023  0.89194845  1
  Te  Te117  1  0.77932283  0.27221622  0.22748538  1
  Te  Te118  1  0.74742538  0.24153100  0.59901194  1
  Te  Te119  1  0.76221861  0.26075089  0.92121684  1
  Te  Te120  1  0.75189912  0.60817089  0.25946699  1
  Te  Te121  1  0.74560051  0.56996615  0.59355646  1
  Te  Te122  1  0.73821179  0.60805310  0.94632959  1
  Te  Te123  1  0.75507830  0.89750648  0.23102393  1
  Te  Te124  1  0.76270170  0.90014191  0.60644851  1
  Te  Te125  1  0.75141499  0.91713391  0.91613843  1
  Te  Te126  1  0.25173117  0.27524428  0.07341196  1
  Te  Te127  1  0.23492028  0.23399595  0.41596901  1
  Te  Te128  1  0.24314953  0.25295379  0.73690477  1
  Te  Te129  1  0.25338257  0.60760187  0.03822583  1
  Te  Te130  1  0.24317901  0.60310833  0.40209075  1
  Te  Te131  1  0.24430005  0.57849247  0.76285657  1
  Te  Te132  1  0.24587595  0.91789774  0.06112739  1
  Te  Te133  1  0.24516690  0.91558458  0.40843993  1
  Te  Te134  1  0.22804754  0.87767186  0.75742165  1
  Te  Te135  1  0.58853088  0.23834511  0.08212394  1
  Te  Te136  1  0.56621872  0.26485043  0.41842628  1
  Te  Te137  1  0.57932542  0.23867340  0.77427640  1
  Te  Te138  1  0.57386034  0.60842503  0.09966420  1
  Te  Te139  1  0.56558258  0.55948212  0.41668027  1
  Te  Te140  1  0.57551094  0.54819254  0.75067906  1
  Te  Te141  1  0.54562650  0.85890861  0.09280639  1
  Te  Te142  1  0.59996780  0.92438480  0.42368337  1
  Te  Te143  1  0.57201001  0.88368629  0.73822150  1
  Te  Te144  1  0.94637052  0.25681011  0.08476793  1
  Te  Te145  1  0.92012173  0.28665521  0.40205765  1
  Te  Te146  1  0.92652843  0.24717489  0.75280887  1
  Te  Te147  1  0.94327723  0.60317912  0.06982402  1
  Te  Te148  1  0.90369767  0.60450352  0.42298351  1
  Te  Te149  1  0.93622122  0.57139167  0.81104717  1
  Te  Te150  1  0.93614463  0.89624455  0.07324395  1
  Te  Te151  1  0.89625202  0.93424859  0.42011905  1
  Te  Te152  1  0.92331383  0.90616433  0.75007996  1
  Te  Te153  1  0.24574346  0.09013887  0.23870829  1
  Te  Te154  1  0.25387879  0.06912442  0.57578977  1
  Te  Te155  1  0.25431177  0.07329952  0.90802016  1
  Te  Te156  1  0.23546690  0.40936501  0.25803617  1
  Te  Te157  1  0.23310532  0.45142502  0.57150275  1
  Te  Te158  1  0.22359968  0.37759578  0.94431454  1
  Te  Te159  1  0.22043741  0.73137437  0.20285926  1
  Te  Te160  1  0.24330819  0.73052975  0.58897781  1
  Te  Te161  1  0.24901613  0.77643666  0.87170450  1
  Te  Te162  1  0.59106960  0.04702506  0.23496337  1
  Te  Te163  1  0.57994222  0.06905165  0.59805951  1
  Te  Te164  1  0.57024002  0.04476717  0.90613288  1
  Te  Te165  1  0.58130705  0.40955703  0.23679843  1
  Te  Te166  1  0.59311912  0.42372321  0.60812982  1
  Te  Te167  1  0.58672876  0.41837304  0.93822774  1
  Te  Te168  1  0.59180705  0.76646372  0.24143988  1
  Te  Te169  1  0.56349734  0.71960579  0.58160921  1
  Te  Te170  1  0.54629455  0.74738019  0.89749481  1
  Te  Te171  1  0.92165394  0.06452385  0.22666206  1
  Te  Te172  1  0.91694426  0.08801366  0.58329601  1
  Te  Te173  1  0.90994495  0.08175818  0.90966137  1
  Te  Te174  1  0.93363090  0.45240251  0.21999733  1
  Te  Te175  1  0.90639241  0.41540752  0.60369700  1
  Te  Te176  1  0.96571723  0.40928830  0.97204247  1
  Te  Te177  1  0.93273817  0.75479223  0.23682480  1
  Te  Te178  1  0.93589816  0.73599388  0.62482811  1
  Te  Te179  1  0.91513771  0.72237918  0.87766543  1
