# generated using pymatgen
data_In2Te3
_symmetry_space_group_name_H-M   'P 1'
_cell_length_a   18.94336828
_cell_length_b   18.95149952
_cell_length_c   18.95806467
_cell_angle_alpha   90.16662523
_cell_angle_beta   89.84769156
_cell_angle_gamma   90.05883163
_symmetry_Int_Tables_number   1
_chemical_formula_structural   In2Te3
_chemical_formula_sum   'In72 Te108'
_cell_volume   6805.98810103
_cell_formula_units_Z   36
loop_
 _symmetry_equiv_pos_site_id
 _symmetry_equiv_pos_as_xyz
  1  'x, y, z'
loop_
 _atom_site_type_symbol
 _atom_site_label
 _atom_site_symmetry_multiplicity
 _atom_site_fract_x
 _atom_site_fract_y
 _atom_site_fract_z
 _atom_site_occupancy
  In  In0  1  0.48986228  0.16029655  -0.01958497  1
  In  In1  1  0.84391518  0.32529990  0.48797561  1
  In  In2  1  0.31609180  -0.00119456  0.32287860  1
  In  In3  1  0.84915154  0.15838486  0.67133977  1
  In  In4  1  0.01979921  0.33645060  0.68838139  1
  In  In5  1  0.66210540  0.87505067  0.14653109  1
  In  In6  1  0.32294874  0.66282304  0.35649439  1
  In  In7  1  -0.00178121  0.48572603  0.16064670  1
  In  In8  1  0.65762898  0.64900774  -0.02544403  1
  In  In9  1  0.64925950  0.02072530  -0.01373662  1
  In  In10  1  0.34009873  0.00839278  0.66596104  1
  In  In11  1  0.34439117  0.87477660  0.86396749  1
  In  In12  1  0.03655753  0.14654075  0.15872147  1
  In  In13  1  0.01960645  0.86347242  0.17442684  1
  In  In14  1  0.64864010  0.17469835  0.15681752  1
  In  In15  1  0.03040727  0.31694559  0.01331487  1
  In  In16  1  0.49983913  -0.00532897  0.52045523  1
  In  In17  1  0.14844601  0.00545798  0.82498548  1
  In  In18  1  0.64653267  0.32522092  0.69635848  1
  In  In19  1  0.83179887  0.66521990  0.51443911  1
  In  In20  1  0.66686907  0.67189760  0.64952204  1
  In  In21  1  -0.00879267  0.15284197  0.49919719  1
  In  In22  1  0.67702406  -0.00651557  0.67497120  1
  In  In23  1  0.85742376  0.32288691  0.16830740  1
  In  In24  1  0.15621957  0.84445444  0.33032756  1
  In  In25  1  0.35515420  0.39813810  0.15035029  1
  In  In26  1  0.34540148  0.32553279  0.32941618  1
  In  In27  1  0.48972902  0.48240549  0.33563454  1
  In  In28  1  0.82238820  0.48971908  0.00182647  1
  In  In29  1  0.84866988  0.84737592  -0.00270901  1
  In  In30  1  0.32138993  0.50367202  0.49964562  1
  In  In31  1  0.80078004  0.18476607  -0.02913971  1
  In  In32  1  0.49255254  0.02664833  0.14724252  1
  In  In33  1  0.18025229  0.88026798  -0.01496577  1
  In  In34  1  -0.03271688  0.66288242  0.31711044  1
  In  In35  1  0.00435703  0.84075170  0.50955543  1
  In  In36  1  0.31307935  0.65247386  -0.02513475  1
  In  In37  1  0.79783189  0.66105023  0.16170732  1
  In  In38  1  0.65828098  0.83842685  0.82367428  1
  In  In39  1  0.64626688  0.80954866  0.49313161  1
  In  In40  1  0.48413178  0.69915551  0.15978437  1
  In  In41  1  0.66103069  0.48457598  0.15695407  1
  In  In42  1  0.84381400  0.82191369  0.34851125  1
  In  In43  1  0.29966336  0.69177506  0.67883756  1
  In  In44  1  0.68245454  0.16146286  0.48742556  1
  In  In45  1  0.49248382  0.84379159  0.34533643  1
  In  In46  1  0.64368477  0.63481857  0.30598932  1
  In  In47  1  0.13434138  0.68178109  0.80566917  1
  In  In48  1  0.02968650  0.51998882  0.52698118  1
  In  In49  1  0.83663586  0.50408082  0.68000370  1
  In  In50  1  0.85501768  0.85433749  0.68152620  1
  In  In51  1  0.50328040  0.66763578  0.50032934  1
  In  In52  1  0.16322087  0.66174859  0.16232840  1
  In  In53  1  0.83147617  -0.00407029  0.48557696  1
  In  In54  1  -0.01135470  0.49288892  0.83050994  1
  In  In55  1  0.35145369  0.15936840  0.52077112  1
  In  In56  1  0.85242163  0.00187615  0.17540916  1
  In  In57  1  0.35163508  0.33335460  0.66718444  1
  In  In58  1  0.67265392  0.32389260  0.33534387  1
  In  In59  1  0.18730469  0.15496214  0.66746633  1
  In  In60  1  0.50356921  0.49266691  0.66066556  1
  In  In61  1  0.33388497  0.48295621  0.84820242  1
  In  In62  1  0.65882435  0.46745071  0.86329267  1
  In  In63  1  0.15561421  0.16472112  0.34478017  1
  In  In64  1  0.00363196  0.16555505  0.85400032  1
  In  In65  1  -0.00657331  0.69639510  -0.00953104  1
  In  In66  1  0.49182668  0.65876402  0.81422694  1
  In  In67  1  0.48748341  0.17414260  0.30064380  1
  In  In68  1  0.18014368  0.49261021  -0.00192970  1
  In  In69  1  0.16891550  0.35443134  0.50450521  1
  In  In70  1  0.31594444  0.84717237  0.13177570  1
  In  In71  1  0.33291084  0.15715443  0.83768515  1
  Te  Te72  1  0.11049679  0.09968915  0.03289813  1
  Te  Te73  1  0.09601263  0.06841599  0.43801705  1
  Te  Te74  1  0.06690869  0.09001113  0.73194562  1
  Te  Te75  1  0.11374223  0.40583144  0.10404435  1
  Te  Te76  1  0.07291860  0.42585119  0.42213809  1
  Te  Te77  1  0.10270852  0.42434398  0.77012973  1
  Te  Te78  1  0.09858258  0.76712187  0.07572191  1
  Te  Te79  1  0.06343850  0.74756173  0.40113868  1
  Te  Te80  1  0.07049276  0.80076665  0.73972348  1
  Te  Te81  1  0.38612409  0.08577563  0.06416302  1
  Te  Te82  1  0.42370775  0.07781809  0.40799827  1
  Te  Te83  1  0.42843373  0.09252741  0.74717438  1
  Te  Te84  1  0.45446938  0.44627851  0.05555858  1
  Te  Te85  1  0.41880977  0.40291460  0.44217865  1
  Te  Te86  1  0.43925501  0.40773818  0.76863442  1
  Te  Te87  1  0.40260717  0.75628429  0.04663062  1
  Te  Te88  1  0.40264139  0.76309882  0.43822253  1
  Te  Te89  1  0.39951297  0.76642221  0.76602911  1
  Te  Te90  1  0.75017445  0.07827133  0.08605271  1
  Te  Te91  1  0.77066828  0.09147323  0.39414608  1
  Te  Te92  1  0.77473147  0.06454554  0.75805960  1
  Te  Te93  1  0.74826594  0.38619028  0.08119068  1
  Te  Te94  1  0.74937594  0.41392498  0.42121018  1
  Te  Te95  1  0.75821606  0.40525968  0.76546139  1
  Te  Te96  1  0.73094224  0.76037796  0.06756725  1
  Te  Te97  1  0.73886348  0.72095022  0.40033332  1
  Te  Te98  1  0.75406774  0.75292558  0.74145329  1
  Te  Te99  1  0.08404269  0.25611108  0.25185557  1
  Te  Te100  1  0.09039974  0.24639233  0.58227077  1
  Te  Te101  1  0.11020849  0.25230519  0.90847034  1
  Te  Te102  1  0.07842184  0.57940839  0.25444771  1
  Te  Te103  1  0.12961747  0.60687605  0.59145022  1
  Te  Te104  1  0.08324744  0.58874860  0.92918863  1
  Te  Te105  1  0.11467303  0.95563766  0.23938217  1
  Te  Te106  1  0.10510075  0.88090852  0.60946274  1
  Te  Te107  1  0.05880200  0.91586992  0.90617979  1
  Te  Te108  1  0.41407866  0.26471693  0.20725520  1
  Te  Te109  1  0.44343924  0.24144455  0.59878984  1
  Te  Te110  1  0.38471490  0.25698622  0.93568922  1
  Te  Te111  1  0.42784891  0.60203229  0.26490104  1
  Te  Te112  1  0.40495171  0.59681829  0.59782331  1
  Te  Te113  1  0.43343070  0.57236630  0.92461833  1
  Te  Te114  1  0.41866623  0.91286967  0.23266292  1
  Te  Te115  1  0.40432313  0.90419256  0.58232233  1
  Te  Te116  1  0.39919297  0.97991755  0.94974830  1
  Te  Te117  1  0.75675992  0.23583649  0.24487108  1
  Te  Te118  1  0.75364031  0.24721436  0.59401834  1
  Te  Te119  1  0.71251912  0.25148330  0.87526995  1
  Te  Te120  1  0.76042976  0.55085044  0.25639830  1
  Te  Te121  1  0.74074797  0.56172951  0.57662234  1
  Te  Te122  1  0.76577620  0.58079855  0.89657159  1
  Te  Te123  1  0.75841969  0.91181138  0.25726864  1
  Te  Te124  1  0.75417119  0.88974210  0.56576517  1
  Te  Te125  1  0.74489197  0.92342359  0.91598848  1
  Te  Te126  1  0.18059932  0.19516256  0.12692585  1
  Te  Te127  1  0.26136452  0.25130145  0.43544107  1
  Te  Te128  1  0.25095353  0.25904564  0.75296350  1
  Te  Te129  1  0.26861978  0.57532891  0.09736032  1
  Te  Te130  1  0.22180867  0.58047556  0.42315545  1
  Te  Te131  1  0.24684804  0.58359145  0.77140852  1
  Te  Te132  1  0.21985520  0.95668090  0.10668256  1
  Te  Te133  1  0.25574117  0.90541867  0.41838466  1
  Te  Te134  1  0.25128756  0.91893510  0.75334834  1
  Te  Te135  1  0.58562948  0.25420762  0.05010203  1
  Te  Te136  1  0.57243336  0.23752380  0.40972045  1
  Te  Te137  1  0.57751586  0.24704541  0.79993145  1
  Te  Te138  1  0.58145377  0.59825295  0.09526886  1
  Te  Te139  1  0.58435538  0.56408900  0.42549465  1
  Te  Te140  1  0.60384782  0.57366864  0.75397366  1
  Te  Te141  1  0.55402983  0.91997666  0.05391551  1
  Te  Te142  1  0.59617718  0.92918542  0.41733956  1
  Te  Te143  1  0.56933222  0.92951538  0.75205354  1
  Te  Te144  1  0.91875477  0.22598358  0.06818845  1
  Te  Te145  1  0.91877287  0.23388404  0.40228704  1
  Te  Te146  1  0.91685846  0.25741006  0.76489904  1
  Te  Te147  1  0.91232606  0.59039970  0.08061809  1
  Te  Te148  1  0.91918228  0.57563466  0.43008523  1
  Te  Te149  1  0.93979494  0.59236707  0.73474321  1
  Te  Te150  1  0.94433151  0.94135225  0.06858428  1
  Te  Te151  1  0.93937364  0.92503873  0.39934855  1
  Te  Te152  1  0.95412266  0.89826865  0.78202117  1
  Te  Te153  1  0.26294013  0.11716367  0.25000780  1
  Te  Te154  1  0.24166091  0.06234339  0.56089357  1
  Te  Te155  1  0.22543214  0.09095776  0.92124415  1
  Te  Te156  1  0.26653480  0.42950045  0.26348704  1
  Te  Te157  1  0.24773547  0.42907376  0.60971985  1
  Te  Te158  1  0.27136349  0.38826797  0.94399683  1
  Te  Te159  1  0.25742746  0.75269975  0.24380925  1
  Te  Te160  1  0.19897921  0.74535407  0.58547411  1
  Te  Te161  1  0.23137867  0.75834476  0.90335228  1
  Te  Te162  1  0.59034207  0.07199909  0.25232907  1
  Te  Te163  1  0.59562911  0.08917513  0.59056082  1
  Te  Te164  1  0.58068693  0.09634138  0.87863037  1
  Te  Te165  1  0.57362839  0.39622867  0.24347168  1
  Te  Te166  1  0.58916494  0.40143297  0.58606389  1
  Te  Te167  1  0.57670777  0.40388900  0.96741888  1
  Te  Te168  1  0.59344463  0.77041217  0.24808518  1
  Te  Te169  1  0.55657155  0.76512793  0.60653627  1
  Te  Te170  1  0.56747427  0.75124566  0.90979238  1
  Te  Te171  1  0.94539423  0.08089370  0.25436542  1
  Te  Te172  1  0.92338519  0.05115787  0.59155264  1
  Te  Te173  1  0.89350742  0.08685227  0.91232971  1
  Te  Te174  1  0.91769714  0.41813845  0.26156942  1
  Te  Te175  1  0.92743699  0.41260317  0.59275301  1
  Te  Te176  1  0.92612993  0.40324747  0.93527476  1
  Te  Te177  1  0.90784437  0.76321910  0.21193322  1
  Te  Te178  1  0.92562513  0.74447200  0.59886122  1
  Te  Te179  1  0.89648485  0.75070329  0.89693955  1
