# generated using pymatgen
data_In2Te3
_symmetry_space_group_name_H-M   'P 1'
_cell_length_a   18.92489425
_cell_length_b   18.91826211
_cell_length_c   18.90559935
_cell_angle_alpha   89.91946232
_cell_angle_beta   90.01900407
_cell_angle_gamma   89.87242190
_symmetry_Int_Tables_number   1
_chemical_formula_structural   In2Te3
_chemical_formula_sum   'In72 Te108'
_cell_volume   6768.67434354
_cell_formula_units_Z   36
loop_
 _symmetry_equiv_pos_site_id
 _symmetry_equiv_pos_as_xyz
  1  'x, y, z'
loop_
 _atom_site_type_symbol
 _atom_site_label
 _atom_site_symmetry_multiplicity
 _atom_site_fract_x
 _atom_site_fract_y
 _atom_site_fract_z
 _atom_site_occupancy
  In  In0  1  0.16029991  0.49196198  0.31872556  1
  In  In1  1  0.84746069  0.64108266  0.49423754  1
  In  In2  1  0.49153347  0.19229691  0.66707139  1
  In  In3  1  -0.00864239  0.46436834  0.18758824  1
  In  In4  1  0.49632925  0.47980987  0.65648189  1
  In  In5  1  0.01009670  0.18335064  0.82716622  1
  In  In6  1  0.32657523  0.32447709  0.67742685  1
  In  In7  1  0.31006046  0.01679541  0.64503893  1
  In  In8  1  0.69935151  0.32785104  0.35890066  1
  In  In9  1  0.33125234  0.01485651  0.31320455  1
  In  In10  1  0.47844092  0.17621482  0.00129391  1
  In  In11  1  0.82493565  0.00841451  0.83420612  1
  In  In12  1  0.49060259  0.49541324  0.02822389  1
  In  In13  1  0.34167019  0.67055494  0.00888361  1
  In  In14  1  0.01830997  0.01411194  0.02390053  1
  In  In15  1  0.48811040  0.84910828  0.01945772  1
  In  In16  1  -0.01834784  0.35435455  0.64281206  1
  In  In17  1  0.32292688  0.18789771  0.49239487  1
  In  In18  1  0.81855828  0.64723068  0.81391302  1
  In  In19  1  0.18652235  0.45514413  -0.02992763  1
  In  In20  1  0.52951664  0.18701213  0.32995565  1
  In  In21  1  0.02076678  0.33712221  -0.01483746  1
  In  In22  1  0.30612583  0.63877618  0.64193697  1
  In  In23  1  0.15886901  0.82740098  0.67720446  1
  In  In24  1  0.16047702  0.01764890  0.85193629  1
  In  In25  1  -0.02150335  0.31058638  0.35800710  1
  In  In26  1  0.66088596  0.85333218  0.14323934  1
  In  In27  1  0.00991966  0.18429276  0.18708458  1
  In  In28  1  0.49381285  0.80298939  0.32179910  1
  In  In29  1  0.67772140  0.83880721  0.51937926  1
  In  In30  1  0.65272582  0.35340709  0.65492966  1
  In  In31  1  0.37248692  0.84555193  0.81894669  1
  In  In32  1  -0.00949208  0.48630489  0.82990210  1
  In  In33  1  0.32274031  0.84868560  0.16574455  1
  In  In34  1  0.49154195  -0.00984732  0.50528283  1
  In  In35  1  0.14409162  0.49998223  0.66318521  1
  In  In36  1  0.67523919  0.33509914  0.00240631  1
  In  In37  1  0.85416609  0.15534129  0.66020752  1
  In  In38  1  0.68104670  0.17325075  0.17566997  1
  In  In39  1  0.80365711  0.83975943  0.65733533  1
  In  In40  1  0.00763570  0.81234872  0.82563253  1
  In  In41  1  -0.01654202  0.82026200  0.49289594  1
  In  In42  1  0.82147334  0.63656364  0.18095261  1
  In  In43  1  0.51637602  0.64070755  0.23070374  1
  In  In44  1  0.67554269  -0.01255821  0.67371032  1
  In  In45  1  0.16834894  0.85741874  0.34544716  1
  In  In46  1  0.70066473  0.14161834  0.50330847  1
  In  In47  1  0.50771580  0.01627465  0.84979916  1
  In  In48  1  0.69880249  0.65451351  0.66022185  1
  In  In49  1  0.20096382  0.85113546  0.01762770  1
  In  In50  1  0.49546431  0.64879441  0.85708761  1
  In  In51  1  -0.01755078  -0.00188864  0.64121784  1
  In  In52  1  0.33544607  0.46184934  0.46162313  1
  In  In53  1  0.82978392  0.83734137  0.32767810  1
  In  In54  1  0.67826288  0.01335611  0.34394472  1
  In  In55  1  0.67469244  0.68303048  -0.00237630  1
  In  In56  1  0.13858096  0.66101257  0.50460195  1
  In  In57  1  0.84691412  0.85286036  -0.02138129  1
  In  In58  1  0.49350460  0.36193557  0.18701886  1
  In  In59  1  -0.01140215  0.84256842  0.19283495  1
  In  In60  1  0.83196210  0.18296024  0.00636601  1
  In  In61  1  0.32322509  0.17554632  0.83169930  1
  In  In62  1  0.17454256  0.68418826  0.18690075  1
  In  In63  1  0.66487133  0.49531667  0.18944495  1
  In  In64  1  0.31672982  0.49522582  0.16852344  1
  In  In65  1  0.00311520  0.65246874  0.02785576  1
  In  In66  1  0.18070063  0.65658695  0.82947970  1
  In  In67  1  0.30866357  0.17819013  0.15714309  1
  In  In68  1  0.50347566  0.81365009  0.66043888  1
  In  In69  1  0.02593828  0.03214124  0.34223113  1
  In  In70  1  0.14762164  0.31272388  0.50171749  1
  In  In71  1  0.67304863  0.48566284  0.82298541  1
  Te  Te72  1  0.10247492  0.12191287  0.08186498  1
  Te  Te73  1  0.11677151  0.10265389  0.43104144  1
  Te  Te74  1  0.07268850  0.07219630  0.74065076  1
  Te  Te75  1  0.10113782  0.41575629  0.08923658  1
  Te  Te76  1  0.07179530  0.42290085  0.42232239  1
  Te  Te77  1  0.08523550  0.39479465  0.75401075  1
  Te  Te78  1  0.08249086  0.76852144  0.08870977  1
  Te  Te79  1  0.07475112  0.74718381  0.39643633  1
  Te  Te80  1  0.07560514  0.71288445  0.73437665  1
  Te  Te81  1  0.41755280  0.09317764  0.10495592  1
  Te  Te82  1  0.43022046  0.09641622  0.41654795  1
  Te  Te83  1  0.41725561  0.07535872  0.73558599  1
  Te  Te84  1  0.38917258  0.39611534  0.07907760  1
  Te  Te85  1  0.43463311  0.42160268  0.35849059  1
  Te  Te86  1  0.42499266  0.40043638  0.75647801  1
  Te  Te87  1  0.42717882  0.74138594  0.10905516  1
  Te  Te88  1  0.43855661  0.74214739  0.44199492  1
  Te  Te89  1  0.40312094  0.71843701  0.73755700  1
  Te  Te90  1  0.75513113  0.08613928  0.08304643  1
  Te  Te91  1  0.78324290  0.11494438  0.37888424  1
  Te  Te92  1  0.73943620  0.10052465  0.75184437  1
  Te  Te93  1  0.75091235  0.41687703  0.10009267  1
  Te  Te94  1  0.77666892  0.42404995  0.44280010  1
  Te  Te95  1  0.76265567  0.43226733  0.71964398  1
  Te  Te96  1  0.77749913  0.75423807  0.08471485  1
  Te  Te97  1  0.75696610  0.74877459  0.42658089  1
  Te  Te98  1  0.73121782  0.76175790  0.76560272  1
  Te  Te99  1  0.09503114  0.25574983  0.28417031  1
  Te  Te100  1  0.05670728  0.23829891  0.59071264  1
  Te  Te101  1  0.11549045  0.23996937  0.91849583  1
  Te  Te102  1  0.07094170  0.58757964  0.23988609  1
  Te  Te103  1  0.04455822  0.57672247  0.58341516  1
  Te  Te104  1  0.08535852  0.57789714  0.92113550  1
  Te  Te105  1  0.09755791  0.93566694  0.23735127  1
  Te  Te106  1  0.08286183  0.90774150  0.57199699  1
  Te  Te107  1  0.07673384  0.90585863  0.92193165  1
  Te  Te108  1  0.41740255  0.24646690  0.24927248  1
  Te  Te109  1  0.42309711  0.27753166  0.56269257  1
  Te  Te110  1  0.40520766  0.27341740  0.91010185  1
  Te  Te111  1  0.38940794  0.57002286  0.27523469  1
  Te  Te112  1  0.40411344  0.55789227  0.56080603  1
  Te  Te113  1  0.39410315  0.55823209  0.92236015  1
  Te  Te114  1  0.43323353  0.91740860  0.24429670  1
  Te  Te115  1  0.40112304  0.90446268  0.59138180  1
  Te  Te116  1  0.40116426  0.94025940  0.93277386  1
  Te  Te117  1  0.76298764  0.28594643  0.23108182  1
  Te  Te118  1  0.75340541  0.24764704  0.59471756  1
  Te  Te119  1  0.77102446  0.27363261  0.90747404  1
  Te  Te120  1  0.74509005  0.57118952  0.28708654  1
  Te  Te121  1  0.73898608  0.55688856  0.55476729  1
  Te  Te122  1  0.74981782  0.57251393  0.92728993  1
  Te  Te123  1  0.75259165  0.93236940  0.23861781  1
  Te  Te124  1  0.77197717  0.95312170  0.56034082  1
  Te  Te125  1  0.73687208  0.91660929  0.90683062  1
  Te  Te126  1  0.21284937  0.22849086  0.05249515  1
  Te  Te127  1  0.25029565  0.27773231  0.39956669  1
  Te  Te128  1  0.24034881  0.21268884  0.71615505  1
  Te  Te129  1  0.23326639  0.59163726  0.07957596  1
  Te  Te130  1  0.23355352  0.57324067  0.42527327  1
  Te  Te131  1  0.25696338  0.54947271  0.75601400  1
  Te  Te132  1  0.24646434  0.95889135  0.10325310  1
  Te  Te133  1  0.27865829  0.92298534  0.41522332  1
  Te  Te134  1  0.24957401  0.92031758  0.75793823  1
  Te  Te135  1  0.57949428  0.26464298  0.10084658  1
  Te  Te136  1  0.60398577  0.24677576  0.44572530  1
  Te  Te137  1  0.57957835  0.26951072  0.75372698  1
  Te  Te138  1  0.58759936  0.59689190  0.09056048  1
  Te  Te139  1  0.51854239  0.63141200  0.38158824  1
  Te  Te140  1  0.58380915  0.59012436  0.74854245  1
  Te  Te141  1  0.59155706  0.94655719  0.05477632  1
  Te  Te142  1  0.58798676  0.91284209  0.41539666  1
  Te  Te143  1  0.57272930  0.91071383  0.75389659  1
  Te  Te144  1  0.92947428  0.26588103  0.08532087  1
  Te  Te145  1  0.89868544  0.20869593  0.43117500  1
  Te  Te146  1  0.90968336  0.26452253  0.74992490  1
  Te  Te147  1  0.90899032  0.55249307  0.08778043  1
  Te  Te148  1  0.95233883  0.54838925  0.44417143  1
  Te  Te149  1  0.89763775  0.55243222  0.73374203  1
  Te  Te150  1  0.91255409  0.92946126  0.09181035  1
  Te  Te151  1  0.92465135  0.92692483  0.40396076  1
  Te  Te152  1  0.91596279  0.90668929  0.74945546  1
  Te  Te153  1  0.23400367  0.11826172  0.27241196  1
  Te  Te154  1  0.22219089  0.08604028  0.54555753  1
  Te  Te155  1  0.26972396  0.07670883  0.92759851  1
  Te  Te156  1  0.24388895  0.39351099  0.24786576  1
  Te  Te157  1  0.24102236  0.41635628  0.57978812  1
  Te  Te158  1  0.26864493  0.35366775  0.90648716  1
  Te  Te159  1  0.26820449  0.75770334  0.27590373  1
  Te  Te160  1  0.24030179  0.75546387  0.57044236  1
  Te  Te161  1  0.26296582  0.75779965  0.90807187  1
  Te  Te162  1  0.58334985  0.07535637  0.24346864  1
  Te  Te163  1  0.58097868  0.08120928  0.58974017  1
  Te  Te164  1  0.58227641  0.12695136  0.90806851  1
  Te  Te165  1  0.57986174  0.42340874  0.29817179  1
  Te  Te166  1  0.58983371  0.43969981  0.55093715  1
  Te  Te167  1  0.57615640  0.42403405  0.92553001  1
  Te  Te168  1  0.62007588  0.75578179  0.25046586  1
  Te  Te169  1  0.59040524  0.72619725  0.57421043  1
  Te  Te170  1  0.57059020  0.76231961  0.92015162  1
  Te  Te171  1  0.92518768  0.07938787  0.24671465  1
  Te  Te172  1  0.94019867  0.10613167  0.54376620  1
  Te  Te173  1  0.93200358  0.08110818  0.91412584  1
  Te  Te174  1  0.89077946  0.39676524  0.27133865  1
  Te  Te175  1  0.90795366  0.40816611  0.52023488  1
  Te  Te176  1  0.90760801  0.40861308  0.92223435  1
  Te  Te177  1  0.91553926  0.72941090  0.26172229  1
  Te  Te178  1  0.90387348  0.74428143  0.59697943  1
  Te  Te179  1  0.91952216  0.72609133  0.91464157  1
