# generated using pymatgen
data_In2Te3
_symmetry_space_group_name_H-M   'P 1'
_cell_length_a   18.76969341
_cell_length_b   18.76368827
_cell_length_c   18.76495627
_cell_angle_alpha   90.02400904
_cell_angle_beta   89.93493410
_cell_angle_gamma   90.01634674
_symmetry_Int_Tables_number   1
_chemical_formula_structural   In2Te3
_chemical_formula_sum   'In72 Te108'
_cell_volume   6608.79999795
_cell_formula_units_Z   36
loop_
 _symmetry_equiv_pos_site_id
 _symmetry_equiv_pos_as_xyz
  1  'x, y, z'
loop_
 _atom_site_type_symbol
 _atom_site_label
 _atom_site_symmetry_multiplicity
 _atom_site_fract_x
 _atom_site_fract_y
 _atom_site_fract_z
 _atom_site_occupancy
  In  In0  1  0.34939831  0.82452542  0.49720676  1
  In  In1  1  0.00426995  0.34666257  0.02600950  1
  In  In2  1  0.16876141  0.84174304  0.69867816  1
  In  In3  1  0.31086338  0.81327292  0.86991563  1
  In  In4  1  0.14471330  -0.02364133  0.81945732  1
  In  In5  1  0.51513589  0.82351961  0.65568978  1
  In  In6  1  0.16066901  0.01592516  0.48583398  1
  In  In7  1  -0.01578255  -0.00643950  -0.00446129  1
  In  In8  1  0.33452381  0.50454417  0.17426065  1
  In  In9  1  0.48328415  0.78676384  0.01515549  1
  In  In10  1  0.01204574  0.50108782  0.84972580  1
  In  In11  1  0.35328069  0.34568739  0.31588453  1
  In  In12  1  0.34218161  0.65701691  0.67580620  1
  In  In13  1  0.83702245  -0.01060618  0.18073350  1
  In  In14  1  0.48783236  0.35619403  0.49179984  1
  In  In15  1  0.34780081  0.35013215  0.67949684  1
  In  In16  1  -0.03309207  0.36470091  0.66073710  1
  In  In17  1  0.34605345  0.16053663  0.83039365  1
  In  In18  1  0.17865934  0.79002928  0.29017937  1
  In  In19  1  0.18007658  0.51121049  0.67126136  1
  In  In20  1  0.83602515  0.15013766  0.67084340  1
  In  In21  1  0.18246121  0.65278120  0.48394706  1
  In  In22  1  0.50405533  0.82044908  0.30837727  1
  In  In23  1  0.16346507  0.17520236  -0.00186414  1
  In  In24  1  -0.00133577  -0.00140105  0.67348267  1
  In  In25  1  0.66369701  -0.01994380  0.32594063  1
  In  In26  1  0.32600334  0.36895754  0.00231939  1
  In  In27  1  0.66110381  0.16661189  0.48350214  1
  In  In28  1  0.50589051  0.67046894  0.49894233  1
  In  In29  1  0.00919377  0.15114225  0.49694369  1
  In  In30  1  0.66877012  0.49704352  0.49172125  1
  In  In31  1  0.16965979  0.53527823  0.30637665  1
  In  In32  1  0.65060173  0.34099479  0.68402163  1
  In  In33  1  0.52640157  0.18657976  0.02848078  1
  In  In34  1  0.68467608  0.19124003  0.83773794  1
  In  In35  1  0.31010286  -0.02582702  0.00938032  1
  In  In36  1  0.49997410  -0.00089379  0.82206819  1
  In  In37  1  -0.01471100  0.35053621  0.30600245  1
  In  In38  1  0.66865057  0.16889714  0.16421254  1
  In  In39  1  0.67598716  -0.01770973  -0.00474669  1
  In  In40  1  0.85533058  0.33273058  0.86918824  1
  In  In41  1  0.82442170  0.36076196  0.14252993  1
  In  In42  1  0.82322816  0.82601390  0.01348279  1
  In  In43  1  0.51218773  0.00530093  0.48960316  1
  In  In44  1  0.19374710  0.18547221  0.65879776  1
  In  In45  1  0.81252197  0.50718247  0.65276596  1
  In  In46  1  0.14651676  0.18005088  0.32613973  1
  In  In47  1  0.50007709  -0.00239493  0.16813071  1
  In  In48  1  0.33320428  0.18073071  0.17397055  1
  In  In49  1  0.16023239  0.49680316  0.00777826  1
  In  In50  1  0.00548983  0.68696084  0.66794149  1
  In  In51  1  0.00031259  0.81089964  0.84175572  1
  In  In52  1  0.65213549  0.38059469  0.30988988  1
  In  In53  1  0.82826235  0.82216844  0.67478675  1
  In  In54  1  0.48741453  0.35257383  0.83536114  1
  In  In55  1  0.81298198  0.34754742  0.48773274  1
  In  In56  1  0.83302291  0.81175950  0.32283255  1
  In  In57  1  0.33357177  0.16212975  0.51040643  1
  In  In58  1  0.82908898  0.66733642  0.84529859  1
  In  In59  1  0.83234164  0.15570279  0.32746483  1
  In  In60  1  0.66849231  0.51775438  0.84836764  1
  In  In61  1  0.66670446  -0.02177000  0.65943475  1
  In  In62  1  0.15847317  -0.02360804  0.15361601  1
  In  In63  1  0.66946701  0.66303396  0.31434473  1
  In  In64  1  -0.02024399  0.83195570  0.48205283  1
  In  In65  1  0.50893059  0.66054483  0.84979732  1
  In  In66  1  0.33934943  -0.01000356  0.34248987  1
  In  In67  1  0.82940707  0.66050901  0.14757688  1
  In  In68  1  0.15748564  0.35468834  0.49253074  1
  In  In69  1  -0.02017816  0.63227937  0.33003224  1
  In  In70  1  0.51436164  0.52209771  0.01695430  1
  In  In71  1  0.00305245  0.16478222  0.87377374  1
  Te  Te72  1  0.07493418  0.08412451  0.08243446  1
  Te  Te73  1  0.06040118  0.06408984  0.38212001  1
  Te  Te74  1  0.08666105  0.10257078  0.74494493  1
  Te  Te75  1  0.07621243  0.43769864  0.11802723  1
  Te  Te76  1  0.08069950  0.43619642  0.39319450  1
  Te  Te77  1  0.08407388  0.41371415  0.74497097  1
  Te  Te78  1  0.12620456  0.78447022  0.05200971  1
  Te  Te79  1  0.08157182  0.73926034  0.40718079  1
  Te  Te80  1  0.10850283  0.72440807  0.77604662  1
  Te  Te81  1  0.40977237  0.08263856  0.07466914  1
  Te  Te82  1  0.42581181  0.09973742  0.40491285  1
  Te  Te83  1  0.42111345  0.08323859  0.73027536  1
  Te  Te84  1  0.43426831  0.41277956  0.09938190  1
  Te  Te85  1  0.41374365  0.44983189  0.40241663  1
  Te  Te86  1  0.41763558  0.45519310  0.75666368  1
  Te  Te87  1  0.40576996  0.70774547  0.11960981  1
  Te  Te88  1  0.40710558  0.73446992  0.39238997  1
  Te  Te89  1  0.41595535  0.76315226  0.75950936  1
  Te  Te90  1  0.75881782  0.07748157  0.08169893  1
  Te  Te91  1  0.75245554  0.06327188  0.41968667  1
  Te  Te92  1  0.74249551  0.07234213  0.76102427  1
  Te  Te93  1  0.70696045  0.43064395  0.08786333  1
  Te  Te94  1  0.77247029  0.45301846  0.38334528  1
  Te  Te95  1  0.76421072  0.40860257  0.76239586  1
  Te  Te96  1  0.71991052  0.74258921  0.08366296  1
  Te  Te97  1  0.74949399  0.73417815  0.41686495  1
  Te  Te98  1  0.73700724  0.73404291  0.75112709  1
  Te  Te99  1  0.06908582  0.25609691  0.22777807  1
  Te  Te100  1  0.07728088  0.25859253  0.58525116  1
  Te  Te101  1  0.09019360  0.28182955  0.91540507  1
  Te  Te102  1  0.07281441  0.60369727  0.21672338  1
  Te  Te103  1  0.08350639  0.58644696  0.58014489  1
  Te  Te104  1  0.07245753  0.59997516  0.94185770  1
  Te  Te105  1  0.08219432  0.89540388  0.25131228  1
  Te  Te106  1  0.08282994  0.90755290  0.58345825  1
  Te  Te107  1  0.09626594  0.89412466  0.93988988  1
  Te  Te108  1  0.44095552  0.24988802  0.24626450  1
  Te  Te109  1  0.42690142  0.25399331  0.58863602  1
  Te  Te110  1  0.41346962  0.25118788  0.93632872  1
  Te  Te111  1  0.42413812  0.60955196  0.23369847  1
  Te  Te112  1  0.41743713  0.57970739  0.57600896  1
  Te  Te113  1  0.41146642  0.58297526  0.92986510  1
  Te  Te114  1  0.39804290  0.90251744  0.23220732  1
  Te  Te115  1  0.42268146  0.92481239  0.58503833  1
  Te  Te116  1  0.42765005  0.91022303  0.92774946  1
  Te  Te117  1  0.75050034  0.26560915  0.26224161  1
  Te  Te118  1  0.74600802  0.25051323  0.59405579  1
  Te  Te119  1  0.76023427  0.25203039  0.94928411  1
  Te  Te120  1  0.76394065  0.56628077  0.24483243  1
  Te  Te121  1  0.72749973  0.60319721  0.58030895  1
  Te  Te122  1  0.75258703  0.58929620  0.94941538  1
  Te  Te123  1  0.73394568  0.88865990  0.22961138  1
  Te  Te124  1  0.76279268  0.90853107  0.57334256  1
  Te  Te125  1  0.75867985  0.90157764  0.90388012  1
  Te  Te126  1  0.24310302  0.26886858  0.08776246  1
  Te  Te127  1  0.24877705  0.25135449  0.41788872  1
  Te  Te128  1  0.25395254  0.26872291  0.77083278  1
  Te  Te129  1  0.25397801  0.59492503  0.08118753  1
  Te  Te130  1  0.27265030  0.56049613  0.41233211  1
  Te  Te131  1  0.25228831  0.59041601  0.77438641  1
  Te  Te132  1  0.25108085  0.86597921  0.09790853  1
  Te  Te133  1  0.23727694  0.90011808  0.41401231  1
  Te  Te134  1  0.27804810  0.92387042  0.76511527  1
  Te  Te135  1  0.60663051  0.29038272  0.10021337  1
  Te  Te136  1  0.58842722  0.27551291  0.40755227  1
  Te  Te137  1  0.56327042  0.24131989  0.75913328  1
  Te  Te138  1  0.61691001  0.55455340  0.12613230  1
  Te  Te139  1  0.57474080  0.57496517  0.40012057  1
  Te  Te140  1  0.58558804  0.58528074  0.74741839  1
  Te  Te141  1  0.57388305  0.90339347  0.07642590  1
  Te  Te142  1  0.58440260  0.89022393  0.42106731  1
  Te  Te143  1  0.59551685  0.89382098  0.76699750  1
  Te  Te144  1  0.89980325  0.25235958  0.07391244  1
  Te  Te145  1  0.92122461  0.25252605  0.42281755  1
  Te  Te146  1  0.92088359  0.24752010  0.75284278  1
  Te  Te147  1  0.90359219  0.58020909  0.04584559  1
  Te  Te148  1  0.90092987  0.56520891  0.43362916  1
  Te  Te149  1  0.91980663  0.57881998  0.74634426  1
  Te  Te150  1  0.92903318  0.89727792  0.09922773  1
  Te  Te151  1  0.90796056  0.92156929  0.39144340  1
  Te  Te152  1  0.91501295  0.91342219  0.76790500  1
  Te  Te153  1  0.24600031  0.07700032  0.24918527  1
  Te  Te154  1  0.25654467  0.06038951  0.59590799  1
  Te  Te155  1  0.24067001  0.07684154  0.91009913  1
  Te  Te156  1  0.23661763  0.40844848  0.24337989  1
  Te  Te157  1  0.26396099  0.42590614  0.57467582  1
  Te  Te158  1  0.25312183  0.44590807  0.90069763  1
  Te  Te159  1  0.27533637  0.69358165  0.22465549  1
  Te  Te160  1  0.24608114  0.75588878  0.58909207  1
  Te  Te161  1  0.23912998  0.72579672  0.96718292  1
  Te  Te162  1  0.57898601  0.08962095  0.26127086  1
  Te  Te163  1  0.58488691  0.09244594  0.59191825  1
  Te  Te164  1  0.58188616  0.09003401  0.92204651  1
  Te  Te165  1  0.55437569  0.45797418  0.22978628  1
  Te  Te166  1  0.57174556  0.43401766  0.59555954  1
  Te  Te167  1  0.58993059  0.41317772  0.92739178  1
  Te  Te168  1  0.59105233  0.74489748  0.21497095  1
  Te  Te169  1  0.61096655  0.74386649  0.57608821  1
  Te  Te170  1  0.60177460  0.73048238  0.94442467  1
  Te  Te171  1  0.92751779  0.09414722  0.23379889  1
  Te  Te172  1  0.90712048  0.06146726  0.56840814  1
  Te  Te173  1  0.89463915  0.07301169  0.90873267  1
  Te  Te174  1  0.91352714  0.45066939  0.22192687  1
  Te  Te175  1  0.92024437  0.45364347  0.54452156  1
  Te  Te176  1  0.90231607  0.45419655  0.95198125  1
  Te  Te177  1  0.93150840  0.74135922  0.22980116  1
  Te  Te178  1  0.90213612  0.73199801  0.56671056  1
  Te  Te179  1  0.92957091  0.72834964  0.94736492  1
