# generated using pymatgen
data_In2Te3
_symmetry_space_group_name_H-M   'P 1'
_cell_length_a   18.78274980
_cell_length_b   18.78942202
_cell_length_c   18.79391795
_cell_angle_alpha   89.88762456
_cell_angle_beta   90.00994681
_cell_angle_gamma   89.95880336
_symmetry_Int_Tables_number   1
_chemical_formula_structural   In2Te3
_chemical_formula_sum   'In72 Te108'
_cell_volume   6632.67880809
_cell_formula_units_Z   36
loop_
 _symmetry_equiv_pos_site_id
 _symmetry_equiv_pos_as_xyz
  1  'x, y, z'
loop_
 _atom_site_type_symbol
 _atom_site_label
 _atom_site_symmetry_multiplicity
 _atom_site_fract_x
 _atom_site_fract_y
 _atom_site_fract_z
 _atom_site_occupancy
  In  In0  1  0.02096820  -0.00785652  0.67398159  1
  In  In1  1  0.00141248  0.66553004  0.32637244  1
  In  In2  1  0.34389786  0.01165588  0.35151106  1
  In  In3  1  0.50479921  0.48119298  -0.00642014  1
  In  In4  1  0.51692493  0.18605239  0.70126116  1
  In  In5  1  0.15638411  0.02499673  0.13068106  1
  In  In6  1  -0.01423068  -0.01788734  0.32341352  1
  In  In7  1  0.66687507  0.83569868  0.48753462  1
  In  In8  1  0.83464254  0.17738532  -0.02335497  1
  In  In9  1  0.85017673  0.51392881  0.34940442  1
  In  In10  1  0.81966031  0.66974542  0.82293061  1
  In  In11  1  0.65809137  0.35890234  0.30986235  1
  In  In12  1  0.83119755  0.00734068  0.84875224  1
  In  In13  1  0.34462140  0.82401041  0.16716110  1
  In  In14  1  0.66503640  0.49579041  0.14615982  1
  In  In15  1  0.48955511  0.32652362  0.15762095  1
  In  In16  1  0.32120959  0.17157403  0.14022010  1
  In  In17  1  0.00183240  0.50319137  0.15513445  1
  In  In18  1  0.32746495  0.48616431  0.50834923  1
  In  In19  1  0.83332377  0.34832318  0.84550469  1
  In  In20  1  0.16334569  -0.00560284  0.52877564  1
  In  In21  1  0.84348078  0.51338824  0.64459251  1
  In  In22  1  0.84258564  0.17907045  0.68944174  1
  In  In23  1  0.83829567  0.84194739  -0.00475026  1
  In  In24  1  0.33225857  0.84757186  0.84378662  1
  In  In25  1  0.66086878  0.51431683  0.51454001  1
  In  In26  1  0.66323104  -0.02784303  0.32372396  1
  In  In27  1  0.32716642  0.48193710  0.82447313  1
  In  In28  1  0.17253536  0.50194239  0.01235997  1
  In  In29  1  0.84566677  0.79064624  0.64715073  1
  In  In30  1  0.66211211  0.16917148  0.14771472  1
  In  In31  1  0.33646500  0.00579608  -0.00412763  1
  In  In32  1  0.84309438  -0.01391484  0.16752953  1
  In  In33  1  0.31987114  0.65279944  0.67004568  1
  In  In34  1  0.17486872  0.84494846  0.32169171  1
  In  In35  1  0.64994475  -0.00437621  0.67850343  1
  In  In36  1  0.85925064  0.66519528  0.16191270  1
  In  In37  1  0.63734572  -0.02670601  0.02406444  1
  In  In38  1  0.50011180  0.84727894  0.66118488  1
  In  In39  1  0.65896834  0.49180446  0.84430098  1
  In  In40  1  0.32061970  0.32126267  -0.01493703  1
  In  In41  1  0.18722967  0.18563756  0.70779495  1
  In  In42  1  0.04290189  0.35414708  0.31811216  1
  In  In43  1  0.84412042  -0.01171075  0.48082310  1
  In  In44  1  0.48401234  0.33046420  0.50864443  1
  In  In45  1  0.83410879  0.31873015  0.51974963  1
  In  In46  1  0.50131688  0.16625833  -0.00487553  1
  In  In47  1  0.15493303  0.64971996  0.51213169  1
  In  In48  1  0.51324639  0.65782364  0.84321177  1
  In  In49  1  0.15214830  0.00996186  0.87157302  1
  In  In50  1  -0.00117044  0.84068152  0.83999427  1
  In  In51  1  0.66088906  0.16535699  0.52827249  1
  In  In52  1  0.50298655  0.68725725  0.49225880  1
  In  In53  1  0.50630465  0.15580773  0.33529155  1
  In  In54  1  0.82818961  0.34035297  0.13342719  1
  In  In55  1  0.18321162  0.65784440  0.83506136  1
  In  In56  1  0.50269164  0.82915304  0.33047650  1
  In  In57  1  0.67232443  0.67513692  -0.00920699  1
  In  In58  1  0.00761529  0.48385062  0.84786005  1
  In  In59  1  0.01386947  0.16347354  0.49410589  1
  In  In60  1  0.33499845  0.67324362  0.02812066  1
  In  In61  1  0.36048927  0.63050727  0.31530997  1
  In  In62  1  -0.02844919  0.34108910  0.68105932  1
  In  In63  1  0.49777532  0.49322786  0.70118593  1
  In  In64  1  0.12864429  0.68052948  0.14486777  1
  In  In65  1  0.29947014  0.36626842  0.31324252  1
  In  In66  1  0.16211678  0.33774669  0.49528290  1
  In  In67  1  0.84734484  0.14507733  0.32269232  1
  In  In68  1  0.66093898  0.68288468  0.33021616  1
  In  In69  1  0.15745869  0.83534881  0.65631392  1
  In  In70  1  0.34966438  0.01171359  0.67616914  1
  In  In71  1  0.17320095  0.18962188  0.33319133  1
  Te  Te72  1  0.07452934  0.09681885  0.02663208  1
  Te  Te73  1  0.09132619  0.06799618  0.40485957  1
  Te  Te74  1  0.07502848  0.09588921  0.76796605  1
  Te  Te75  1  0.08471613  0.40357887  0.08295526  1
  Te  Te76  1  0.08540082  0.44370262  0.42509980  1
  Te  Te77  1  0.08562838  0.39855490  0.75372264  1
  Te  Te78  1  0.06200820  0.78030025  0.05892254  1
  Te  Te79  1  0.09506596  0.75230211  0.41262584  1
  Te  Te80  1  0.08395690  0.74493260  0.75415153  1
  Te  Te81  1  0.43004932  0.07553464  0.09656973  1
  Te  Te82  1  0.41734953  0.10309396  0.43992789  1
  Te  Te83  1  0.42552477  0.09134332  0.77410508  1
  Te  Te84  1  0.39502096  0.41726953  0.07899872  1
  Te  Te85  1  0.41516684  0.41853108  0.40332998  1
  Te  Te86  1  0.39627891  0.38385456  0.73138337  1
  Te  Te87  1  0.44120144  0.77291851  0.06381855  1
  Te  Te88  1  0.39572068  0.75069352  0.40573851  1
  Te  Te89  1  0.40970419  0.74232388  0.75430490  1
  Te  Te90  1  0.75692820  0.07561644  0.07335416  1
  Te  Te91  1  0.73778520  0.08787724  0.41681426  1
  Te  Te92  1  0.73909926  0.09061939  0.75921966  1
  Te  Te93  1  0.73063175  0.40870233  0.04613659  1
  Te  Te94  1  0.74948593  0.41334554  0.42530470  1
  Te  Te95  1  0.75693528  0.43036135  0.74257710  1
  Te  Te96  1  0.75581840  0.75421333  0.09092497  1
  Te  Te97  1  0.76141361  0.74677661  0.41717648  1
  Te  Te98  1  0.74214629  0.77143325  0.74913733  1
  Te  Te99  1  0.08306896  0.24393383  0.23034986  1
  Te  Te100  1  0.08212727  0.24597617  0.59939899  1
  Te  Te101  1  0.14535874  0.20868127  0.94780839  1
  Te  Te102  1  0.09660687  0.56942743  0.25523475  1
  Te  Te103  1  0.06147993  0.60210279  0.61464524  1
  Te  Te104  1  0.08253277  0.59278812  0.92904163  1
  Te  Te105  1  0.08611636  0.92061209  0.22545842  1
  Te  Te106  1  0.05064222  0.89563556  0.56144811  1
  Te  Te107  1  0.09504640  0.88979634  0.94543681  1
  Te  Te108  1  0.40526055  0.24448266  0.25546755  1
  Te  Te109  1  0.41538329  0.24290859  0.60507540  1
  Te  Te110  1  0.40685650  0.23411492  0.89785303  1
  Te  Te111  1  0.45368148  0.57836719  0.21750735  1
  Te  Te112  1  0.43038807  0.58286635  0.58696228  1
  Te  Te113  1  0.39740458  0.58229760  0.91626796  1
  Te  Te114  1  0.41989936  0.92942158  0.24822031  1
  Te  Te115  1  0.39287837  0.90749710  0.58080466  1
  Te  Te116  1  0.43376059  0.93246183  0.90978830  1
  Te  Te117  1  0.74857916  0.24642591  0.24853152  1
  Te  Te118  1  0.73383813  0.26400527  0.61919174  1
  Te  Te119  1  0.73000733  0.24625969  0.89113147  1
  Te  Te120  1  0.74885168  0.57470688  0.24843696  1
  Te  Te121  1  0.75426316  0.61029849  0.57574076  1
  Te  Te122  1  0.76149522  0.56998514  0.92509865  1
  Te  Te123  1  0.76447104  0.89368295  0.25287714  1
  Te  Te124  1  0.75291971  0.92371287  0.58655401  1
  Te  Te125  1  0.73166181  0.91232960  0.91314356  1
  Te  Te126  1  0.21940049  0.26632242  0.08562030  1
  Te  Te127  1  0.27051757  0.25718431  0.42467338  1
  Te  Te128  1  0.29497062  0.26747674  0.76857578  1
  Te  Te129  1  0.25426452  0.57876287  0.11578059  1
  Te  Te130  1  0.25440927  0.57973750  0.41329625  1
  Te  Te131  1  0.22419181  0.55276650  0.73128859  1
  Te  Te132  1  0.25153715  0.91404706  0.08270104  1
  Te  Te133  1  0.25350946  0.91688175  0.43082152  1
  Te  Te134  1  0.23064024  0.92795112  0.75682238  1
  Te  Te135  1  0.59414536  0.27357326  0.06045314  1
  Te  Te136  1  0.59588371  0.26055146  0.41546525  1
  Te  Te137  1  0.60913445  0.26160553  0.79015579  1
  Te  Te138  1  0.57003159  0.59387748  0.07516286  1
  Te  Te139  1  0.57443080  0.58219842  0.40781493  1
  Te  Te140  1  0.60598411  0.59340028  0.74123725  1
  Te  Te141  1  0.57387878  0.87197349  0.10930846  1
  Te  Te142  1  0.56189183  0.92986666  0.43008626  1
  Te  Te143  1  0.56241631  0.92151117  0.77260352  1
  Te  Te144  1  0.92683556  0.25426759  0.06540864  1
  Te  Te145  1  0.92001172  0.25059363  0.41021360  1
  Te  Te146  1  0.93451567  0.24116355  0.79203572  1
  Te  Te147  1  0.91443700  0.57527899  0.06027687  1
  Te  Te148  1  0.91490538  0.61392760  0.43847870  1
  Te  Te149  1  0.92289581  0.57732205  0.75788582  1
  Te  Te150  1  0.93986682  0.90662810  0.08354763  1
  Te  Te151  1  0.91191072  0.88229192  0.40491721  1
  Te  Te152  1  0.90539948  0.91875423  0.74254059  1
  Te  Te153  1  0.24795709  0.07710980  0.24756669  1
  Te  Te154  1  0.24886264  0.09983124  0.59396234  1
  Te  Te155  1  0.25948269  0.11019786  0.91386782  1
  Te  Te156  1  0.21694636  0.45016952  0.22693489  1
  Te  Te157  1  0.23841098  0.41213522  0.59897170  1
  Te  Te158  1  0.22108763  0.40586439  0.90292880  1
  Te  Te159  1  0.24625108  0.73442001  0.24345344  1
  Te  Te160  1  0.25516834  0.75149422  0.57464644  1
  Te  Te161  1  0.24768822  0.75576972  0.93299013  1
  Te  Te162  1  0.58468233  0.07071369  0.23536660  1
  Te  Te163  1  0.55667254  0.07676080  0.58889890  1
  Te  Te164  1  0.58907663  0.07058634  0.92444844  1
  Te  Te165  1  0.54753460  0.44335997  0.24259315  1
  Te  Te166  1  0.57888461  0.41446669  0.59618796  1
  Te  Te167  1  0.55023627  0.39424875  0.87992226  1
  Te  Te168  1  0.58634387  0.76202415  0.22535614  1
  Te  Te169  1  0.59679945  0.74996458  0.59366355  1
  Te  Te170  1  0.58503251  0.76558455  0.91189678  1
  Te  Te171  1  0.94402881  0.09205130  0.22063232  1
  Te  Te172  1  0.91190007  0.08836874  0.58251569  1
  Te  Te173  1  0.93345347  0.06869365  0.93771971  1
  Te  Te174  1  0.90718267  0.40982898  0.25207444  1
  Te  Te175  1  0.93635998  0.42481821  0.55826590  1
  Te  Te176  1  0.93484869  0.39531212  0.94398899  1
  Te  Te177  1  0.92936622  0.76499435  0.24347618  1
  Te  Te178  1  0.94945898  0.70776470  0.58476226  1
  Te  Te179  1  0.91858707  0.73675235  0.91875489  1
