# generated using pymatgen
data_In2Te3
_symmetry_space_group_name_H-M   'P 1'
_cell_length_a   18.93809302
_cell_length_b   18.95710073
_cell_length_c   18.92897459
_cell_angle_alpha   90.06662434
_cell_angle_beta   89.90838259
_cell_angle_gamma   89.98621219
_symmetry_Int_Tables_number   1
_chemical_formula_structural   In2Te3
_chemical_formula_sum   'In72 Te108'
_cell_volume   6795.70299296
_cell_formula_units_Z   36
loop_
 _symmetry_equiv_pos_site_id
 _symmetry_equiv_pos_as_xyz
  1  'x, y, z'
loop_
 _atom_site_type_symbol
 _atom_site_label
 _atom_site_symmetry_multiplicity
 _atom_site_fract_x
 _atom_site_fract_y
 _atom_site_fract_z
 _atom_site_occupancy
  In  In0  1  0.80882948  0.15426927  -0.12049772  1
  In  In1  1  0.65655732  0.84685710  0.15472554  1
  In  In2  1  0.65844561  0.32366363  0.37244767  1
  In  In3  1  0.66383616  0.81416262  0.83217726  1
  In  In4  1  0.86809850  0.85494801  0.67975651  1
  In  In5  1  0.31638924  0.33801482  0.36044410  1
  In  In6  1  0.01295979  0.02117376  0.68162480  1
  In  In7  1  0.48926365  0.82205971  0.65797974  1
  In  In8  1  0.33692860  0.69927951  0.31199214  1
  In  In9  1  0.85684792  -0.01472383  0.50615494  1
  In  In10  1  0.17166141  0.67593360  0.49040657  1
  In  In11  1  0.82351063  0.64874689  0.81983192  1
  In  In12  1  0.32699864  0.66285812  -0.02380604  1
  In  In13  1  0.17996025  -0.01154195  0.83302511  1
  In  In14  1  0.64062884  0.64306587  0.68337464  1
  In  In15  1  0.33903646  0.15987379  0.53383988  1
  In  In16  1  0.16399794  0.49624374  0.68567954  1
  In  In17  1  0.89906582  0.53165181  0.27652736  1
  In  In18  1  0.18528217  0.00220807  0.50333226  1
  In  In19  1  0.68961049  0.66585607  0.32092100  1
  In  In20  1  0.83086709  0.32032056  0.48571063  1
  In  In21  1  0.85144753  0.81448113  -0.00430632  1
  In  In22  1  0.51802177  0.18326910  -0.01963833  1
  In  In23  1  0.17439505  0.85176185  0.31966664  1
  In  In24  1  0.33717878  0.51118583  0.13895419  1
  In  In25  1  0.01154850  0.83085305  0.49521909  1
  In  In26  1  0.67239536  0.67478657  -0.01408948  1
  In  In27  1  0.01441367  0.18000685  0.15402029  1
  In  In28  1  0.49490824  0.48427979  0.33363664  1
  In  In29  1  0.50626927  0.34571532  0.81890282  1
  In  In30  1  0.79272629  0.19353819  0.68983360  1
  In  In31  1  0.32788255  0.16450960  0.17603953  1
  In  In32  1  0.86234630  0.78205491  0.30680134  1
  In  In33  1  0.18487522  0.17479287  0.00582330  1
  In  In34  1  0.65342542  -0.00575164  0.33214552  1
  In  In35  1  0.20070718  -0.00771835  0.13793458  1
  In  In36  1  0.64885112  -0.00388504  0.67066636  1
  In  In37  1  0.83718499  0.33483096  0.17278322  1
  In  In38  1  0.14736058  0.53194727  0.29196787  1
  In  In39  1  0.49725555  0.31074978  0.15633120  1
  In  In40  1  0.66870875  0.49229161  0.14442697  1
  In  In41  1  0.15763138  0.34315330  0.51302665  1
  In  In42  1  0.66947107  0.14765215  0.18604289  1
  In  In43  1  0.49581812  0.69498624  0.14207191  1
  In  In44  1  0.63859158  0.13824344  0.51836516  1
  In  In45  1  0.31986559  0.52404521  0.51975422  1
  In  In46  1  0.00516371  0.16935107  0.51405624  1
  In  In47  1  0.48965507  0.86333971  0.34138124  1
  In  In48  1  0.33076285  0.84146697  0.84485949  1
  In  In49  1  0.48455820  -0.01460942  0.15338223  1
  In  In50  1  0.00837138  0.66563163  0.68864887  1
  In  In51  1  0.18018891  0.32707387  0.86167245  1
  In  In52  1  -0.00272960  0.51119283  0.86574913  1
  In  In53  1  -0.00763463  0.33667158  0.00940195  1
  In  In54  1  0.65847186  0.46971311  0.50848019  1
  In  In55  1  0.47879482  -0.00075759  0.52181354  1
  In  In56  1  0.84989773  -0.04426513  0.14743866  1
  In  In57  1  -0.00478560  0.48605920  0.49106886  1
  In  In58  1  0.50781558  0.31345833  0.54521646  1
  In  In59  1  0.02741629  -0.01084501  0.29992967  1
  In  In60  1  -0.02107018  0.31620087  0.68055237  1
  In  In61  1  0.16304067  0.32900753  0.16948121  1
  In  In62  1  0.81120362  0.64777851  0.50805995  1
  In  In63  1  0.31191713  0.68012423  0.67863068  1
  In  In64  1  0.36515712  0.42687656  -0.06671538  1
  In  In65  1  0.48867806  0.65234914  0.50445699  1
  In  In66  1  0.09360627  0.57837751  0.03189920  1
  In  In67  1  0.86305962  0.15597444  0.35192186  1
  In  In68  1  0.66084782  0.01166946  -0.02483528  1
  In  In69  1  0.02594513  0.84499415  0.82824284  1
  In  In70  1  0.33611541  0.15774072  0.81692533  1
  In  In71  1  0.67574693  0.47960444  0.83285382  1
  Te  Te72  1  0.08888754  0.07837781  0.07160668  1
  Te  Te73  1  0.07332774  0.06976678  0.42339047  1
  Te  Te74  1  0.09449148  0.09437503  0.77690626  1
  Te  Te75  1  0.08866957  0.42659120  0.08321202  1
  Te  Te76  1  0.10323321  0.43064881  0.40003884  1
  Te  Te77  1  0.06955090  0.40742513  0.76407546  1
  Te  Te78  1  0.03153729  0.71837732  0.05815656  1
  Te  Te79  1  0.08243650  0.74772971  0.39209764  1
  Te  Te80  1  0.09588281  0.77892587  0.71544001  1
  Te  Te81  1  0.42826813  0.10446625  0.07943115  1
  Te  Te82  1  0.40476876  0.08109866  0.42712881  1
  Te  Te83  1  0.45112849  0.08461408  0.76149909  1
  Te  Te84  1  0.44213169  0.42325463  0.07574390  1
  Te  Te85  1  0.41597527  0.41973194  0.44466744  1
  Te  Te86  1  0.39991932  0.44521687  0.78790418  1
  Te  Te87  1  0.39087351  0.76612513  0.06876293  1
  Te  Te88  1  0.41448882  0.75945499  0.42800624  1
  Te  Te89  1  0.41929738  0.74205371  0.76566721  1
  Te  Te90  1  0.74649415  0.05667493  0.09297286  1
  Te  Te91  1  0.75034677  0.07832523  0.42352616  1
  Te  Te92  1  0.73931664  0.07269047  0.76370728  1
  Te  Te93  1  0.76993079  0.41606745  0.07148956  1
  Te  Te94  1  0.76343385  0.42924242  0.40344640  1
  Te  Te95  1  0.73745340  0.36333108  0.75733673  1
  Te  Te96  1  0.75276120  0.74816990  0.09232135  1
  Te  Te97  1  0.75638799  0.75828437  0.42043814  1
  Te  Te98  1  0.75724613  0.75008036  0.72705425  1
  Te  Te99  1  0.10867141  0.22428886  0.25784934  1
  Te  Te100  1  0.09339928  0.24454553  0.61037252  1
  Te  Te101  1  0.07384716  0.23904446  0.92448508  1
  Te  Te102  1  0.02879397  0.60344479  0.23334254  1
  Te  Te103  1  0.08744648  0.57790364  0.57431960  1
  Te  Te104  1  0.10380260  0.61261081  0.88424553  1
  Te  Te105  1  0.08931833  0.90141526  0.19658113  1
  Te  Te106  1  0.08365773  0.91967258  0.59261132  1
  Te  Te107  1  0.12281558  0.89154807  0.93092815  1
  Te  Te108  1  0.40990889  0.25805463  0.26750263  1
  Te  Te109  1  0.39977666  0.25919198  0.62666701  1
  Te  Te110  1  0.40947772  0.26112831  0.91045823  1
  Te  Te111  1  0.43095453  0.58886749  0.24432015  1
  Te  Te112  1  0.41914284  0.58133533  0.61696999  1
  Te  Te113  1  0.41894145  0.56607962  0.90975137  1
  Te  Te114  1  0.39337612  0.91394701  0.24399317  1
  Te  Te115  1  0.38855815  0.91994394  0.60922846  1
  Te  Te116  1  0.37625079  0.94619486  0.94163120  1
  Te  Te117  1  0.75162936  0.23858987  0.27803683  1
  Te  Te118  1  0.72310999  0.25546051  0.56987391  1
  Te  Te119  1  0.70703442  0.26797371  0.88585319  1
  Te  Te120  1  0.76629664  0.58381238  0.22066221  1
  Te  Te121  1  0.74003456  0.55753482  0.60568928  1
  Te  Te122  1  0.76344838  0.56779479  0.93032688  1
  Te  Te123  1  0.75340183  0.90474917  0.26043463  1
  Te  Te124  1  0.75674779  0.91429856  0.59314237  1
  Te  Te125  1  0.75051955  0.90247137  0.91852617  1
  Te  Te126  1  0.27244412  0.27093460  0.08244261  1
  Te  Te127  1  0.23727515  0.23830623  0.43818082  1
  Te  Te128  1  0.25752540  0.26555229  0.75386923  1
  Te  Te129  1  0.23710820  0.60903419  0.08975104  1
  Te  Te130  1  0.26126966  0.58643330  0.39451993  1
  Te  Te131  1  0.22939248  0.59673997  0.77140798  1
  Te  Te132  1  0.29745438  0.90356432  0.06356573  1
  Te  Te133  1  0.26545523  0.92067246  0.41091208  1
  Te  Te134  1  0.27726989  0.92969461  0.73589771  1
  Te  Te135  1  0.61469584  0.24591878  0.08531479  1
  Te  Te136  1  0.55529428  0.22878346  0.42682149  1
  Te  Te137  1  0.61806036  0.26194679  0.75917806  1
  Te  Te138  1  0.57731629  0.58863171  0.07155740  1
  Te  Te139  1  0.59388815  0.57970114  0.41025348  1
  Te  Te140  1  0.57768585  0.58686958  0.80202949  1
  Te  Te141  1  0.56898792  0.91122942  0.05141301  1
  Te  Te142  1  0.58653124  0.91871752  0.44492010  1
  Te  Te143  1  0.56635693  0.90591424  0.76001050  1
  Te  Te144  1  0.89603040  0.23236818  0.07664111  1
  Te  Te145  1  0.95063983  0.26561963  0.40941004  1
  Te  Te146  1  0.90954389  0.22684570  0.77990204  1
  Te  Te147  1  0.94872548  0.59529393  0.07354809  1
  Te  Te148  1  0.92030991  0.59488161  0.41756972  1
  Te  Te149  1  0.91528854  0.55999821  0.73821402  1
  Te  Te150  1  0.93793288  0.93617455  0.02806267  1
  Te  Te151  1  0.92616026  0.91060066  0.39319176  1
  Te  Te152  1  0.91908529  0.95263557  0.78149804  1
  Te  Te153  1  0.22752829  0.08623105  0.24948393  1
  Te  Te154  1  0.24781514  0.07562918  0.61392393  1
  Te  Te155  1  0.27371259  0.07668253  0.93095743  1
  Te  Te156  1  0.26474560  0.42722197  0.24543918  1
  Te  Te157  1  0.25909123  0.41255189  0.60208969  1
  Te  Te158  1  0.21872914  0.43786546  0.94846364  1
  Te  Te159  1  0.22576135  0.74479037  0.22985470  1
  Te  Te160  1  0.25714154  0.76228004  0.57018462  1
  Te  Te161  1  0.22813554  0.75568339  0.91165253  1
  Te  Te162  1  0.55559257  0.07988582  0.25790644  1
  Te  Te163  1  0.54242451  0.10099360  0.63356073  1
  Te  Te164  1  0.56248859  0.07840069  0.88365972  1
  Te  Te165  1  0.59427648  0.40187633  0.25236877  1
  Te  Te166  1  0.56366662  0.43085196  0.61252335  1
  Te  Te167  1  0.60006755  0.39168644  0.92762319  1
  Te  Te168  1  0.58075539  0.75694147  0.26063627  1
  Te  Te169  1  0.59012254  0.73884602  0.57765046  1
  Te  Te170  1  0.56612072  0.75371009  0.92363482  1
  Te  Te171  1  0.91291431  0.07216772  0.23497773  1
  Te  Te172  1  0.89648589  0.10135458  0.59512649  1
  Te  Te173  1  0.90272497  0.05582822  0.93332711  1
  Te  Te174  1  0.94758921  0.39732063  0.24461184  1
  Te  Te175  1  0.90448029  0.40866042  0.58560453  1
  Te  Te176  1  0.90461770  0.41085717  0.91816655  1
  Te  Te177  1  0.94599190  0.73947225  0.19282122  1
  Te  Te178  1  0.91826640  0.74346645  0.57911289  1
  Te  Te179  1  0.92350783  0.74179923  0.88412457  1
