# generated using pymatgen
data_In2Te3
_symmetry_space_group_name_H-M   'P 1'
_cell_length_a   18.85290406
_cell_length_b   18.86093724
_cell_length_c   18.87345765
_cell_angle_alpha   90.00891598
_cell_angle_beta   89.98228201
_cell_angle_gamma   90.00157738
_symmetry_Int_Tables_number   1
_chemical_formula_structural   In2Te3
_chemical_formula_sum   'In72 Te108'
_cell_volume   6711.08859578
_cell_formula_units_Z   36
loop_
 _symmetry_equiv_pos_site_id
 _symmetry_equiv_pos_as_xyz
  1  'x, y, z'
loop_
 _atom_site_type_symbol
 _atom_site_label
 _atom_site_symmetry_multiplicity
 _atom_site_fract_x
 _atom_site_fract_y
 _atom_site_fract_z
 _atom_site_occupancy
  In  In0  1  0.66742518  -0.02870865  0.01939750  1
  In  In1  1  0.83503377  0.66287811  0.16201551  1
  In  In2  1  0.00190413  0.67136330  0.66715462  1
  In  In3  1  0.82144373  -0.01154856  0.87244769  1
  In  In4  1  0.52493171  0.79416147  0.31187563  1
  In  In5  1  -0.00116008  -0.01266588  -0.01805610  1
  In  In6  1  0.31622981  0.51925681  0.82536783  1
  In  In7  1  0.83361079  0.67503059  0.84005779  1
  In  In8  1  0.33887424  0.15460777  0.84733678  1
  In  In9  1  0.00081899  0.50448845  0.50214550  1
  In  In10  1  0.00840715  0.67478561  0.33659124  1
  In  In11  1  0.15405317  0.17074550  0.33512652  1
  In  In12  1  0.18807972  0.15960831  0.01008867  1
  In  In13  1  0.85205064  0.35651168  0.86722680  1
  In  In14  1  0.13492987  0.00389066  0.48362085  1
  In  In15  1  0.66113303  0.16097698  0.15244796  1
  In  In16  1  0.63997853  0.64203534  0.02987696  1
  In  In17  1  0.67094045  0.63664909  0.64546130  1
  In  In18  1  0.63885708  -0.01030642  0.67226735  1
  In  In19  1  0.81649297  0.49919409  0.31959056  1
  In  In20  1  0.34990144  -0.02657781  0.31993475  1
  In  In21  1  0.48559974  0.16866581  0.33606865  1
  In  In22  1  0.50544765  0.32513823  0.82552697  1
  In  In23  1  0.82889339  0.16920258  0.64714068  1
  In  In24  1  0.18167398  0.79836858  0.31325585  1
  In  In25  1  0.65364157  -0.01257437  0.32422484  1
  In  In26  1  0.50727062  0.17101828  -0.00397890  1
  In  In27  1  0.21253068  0.55903690  0.31298636  1
  In  In28  1  0.00608368  0.18260858  0.82751161  1
  In  In29  1  0.64997993  0.52343005  0.84473031  1
  In  In30  1  0.50077034  0.52511550  0.32157198  1
  In  In31  1  0.82994998  0.34271402  0.15431072  1
  In  In32  1  0.35027976  0.38705027  0.04539566  1
  In  In33  1  -0.02764609  0.00757856  0.64842339  1
  In  In34  1  0.66541345  0.38314699  0.65460283  1
  In  In35  1  0.32303666  0.64855987  0.02372110  1
  In  In36  1  0.65587531  0.16541236  0.80494084  1
  In  In37  1  0.66545101  0.35222232  0.01568995  1
  In  In38  1  0.80821304  -0.01179245  0.47057099  1
  In  In39  1  -0.02460672  0.16703776  0.16561248  1
  In  In40  1  0.64915790  0.34639336  0.32990437  1
  In  In41  1  0.48004975  -0.01733459  0.84650871  1
  In  In42  1  0.80975456  0.80596515  0.33750591  1
  In  In43  1  0.35057695  0.18115921  0.17684249  1
  In  In44  1  0.14548970  -0.04005735  0.80479924  1
  In  In45  1  0.16854724  -0.02896565  0.17321906  1
  In  In46  1  0.84636469  0.82062059  0.67721300  1
  In  In47  1  0.46815892  0.68289931  0.82120721  1
  In  In48  1  0.03592094  0.82035135  0.82912442  1
  In  In49  1  0.49073778  0.35791639  0.49246248  1
  In  In50  1  0.65968231  0.81549544  0.49194947  1
  In  In51  1  0.83399568  0.81822536  0.01343823  1
  In  In52  1  0.01912508  0.19107526  0.45465002  1
  In  In53  1  0.16780735  0.36028459  0.82267509  1
  In  In54  1  0.79703479  0.17848918  0.02451963  1
  In  In55  1  0.05452245  0.64950762  0.01664164  1
  In  In56  1  0.01483756  0.34477146  0.30226327  1
  In  In57  1  0.30970007  -0.02428373  0.01780310  1
  In  In58  1  0.34136606  0.37183494  0.63320608  1
  In  In59  1  0.18671935  0.80421394  0.66285656  1
  In  In60  1  0.47934576  0.65769338  0.49147832  1
  In  In61  1  0.01075760  0.81146336  0.49545287  1
  In  In62  1  0.68454706  0.13690931  0.49614130  1
  In  In63  1  0.17169901  0.20212496  0.65122506  1
  In  In64  1  0.32572252  -0.01840457  0.67374913  1
  In  In65  1  0.32881750  0.82197436  0.51304530  1
  In  In66  1  0.31439512  0.17335075  0.47675722  1
  In  In67  1  0.01200195  0.37623690  0.69047830  1
  In  In68  1  0.04152352  0.38222737  0.01922570  1
  In  In69  1  0.84858526  0.36289120  0.48896826  1
  In  In70  1  0.50386301  0.80772148  0.02293684  1
  In  In71  1  0.19775993  0.34983008  0.49672940  1
  Te  Te72  1  0.08404192  0.07604290  0.08467532  1
  Te  Te73  1  0.04697929  0.06188368  0.36480845  1
  Te  Te74  1  0.08357395  0.09330679  0.73105519  1
  Te  Te75  1  0.11352517  0.45273353  0.13142863  1
  Te  Te76  1  0.09040058  0.41969068  0.41109546  1
  Te  Te77  1  0.09545155  0.47810070  0.76366835  1
  Te  Te78  1  0.12919704  0.75632337  0.08602220  1
  Te  Te79  1  0.11979569  0.72670916  0.43415745  1
  Te  Te80  1  0.11901816  0.70906247  0.76990953  1
  Te  Te81  1  0.40576969  0.08523665  0.07059070  1
  Te  Te82  1  0.41082176  0.06823420  0.42350267  1
  Te  Te83  1  0.42315553  0.08273515  0.74584637  1
  Te  Te84  1  0.41825287  0.48925530  0.13329013  1
  Te  Te85  1  0.40289696  0.43344731  0.39748579  1
  Te  Te86  1  0.41727504  0.42726368  0.75200190  1
  Te  Te87  1  0.43163538  0.71074625  0.11197256  1
  Te  Te88  1  0.40304055  0.75225020  0.40012719  1
  Te  Te89  1  0.39325754  0.77391451  0.73202899  1
  Te  Te90  1  0.76434141  0.05430361  0.10454789  1
  Te  Te91  1  0.75796246  0.09360013  0.37217785  1
  Te  Te92  1  0.76768324  0.07303630  0.74901872  1
  Te  Te93  1  0.76880436  0.44336845  0.06589855  1
  Te  Te94  1  0.72824577  0.43501510  0.42562190  1
  Te  Te95  1  0.74503311  0.42384111  0.77835443  1
  Te  Te96  1  0.72148440  0.75565280  0.09801759  1
  Te  Te97  1  0.74461578  0.71270943  0.43189339  1
  Te  Te98  1  0.73662186  0.74057778  0.74262668  1
  Te  Te99  1  0.09470139  0.24824511  0.21703364  1
  Te  Te100  1  0.05810377  0.27411230  0.57895255  1
  Te  Te101  1  0.09905657  0.25708019  0.92248757  1
  Te  Te102  1  0.07618487  0.57739511  0.24790263  1
  Te  Te103  1  0.09060622  0.59798300  0.57231247  1
  Te  Te104  1  0.08751597  0.54387822  0.91515656  1
  Te  Te105  1  0.08078217  0.89096491  0.26011712  1
  Te  Te106  1  0.08244772  0.90261114  0.60129782  1
  Te  Te107  1  0.11050689  0.89350056  0.94303520  1
  Te  Te108  1  0.43275637  0.27747340  0.25186787  1
  Te  Te109  1  0.40624463  0.25011619  0.57081642  1
  Te  Te110  1  0.40459906  0.26446318  0.92838470  1
  Te  Te111  1  0.41204749  0.61442464  0.23766625  1
  Te  Te112  1  0.38275976  0.57202807  0.56814871  1
  Te  Te113  1  0.41736770  0.58145737  0.92270208  1
  Te  Te114  1  0.43999136  0.89279609  0.23286142  1
  Te  Te115  1  0.42181832  0.90556096  0.59295386  1
  Te  Te116  1  0.40326927  0.88711217  0.93619695  1
  Te  Te117  1  0.73985097  0.25842404  0.24224470  1
  Te  Te118  1  0.74715298  0.27051372  0.56903827  1
  Te  Te119  1  0.73291310  0.25510019  0.90529730  1
  Te  Te120  1  0.72777787  0.60075131  0.25043007  1
  Te  Te121  1  0.75838983  0.52971815  0.59671978  1
  Te  Te122  1  0.75302696  0.58903286  0.93669502  1
  Te  Te123  1  0.74012985  0.89808593  0.24613084  1
  Te  Te124  1  0.75487411  0.91351553  0.59217690  1
  Te  Te125  1  0.72907503  0.87833719  0.91467501  1
  Te  Te126  1  0.25935603  0.26689612  0.08860774  1
  Te  Te127  1  0.25904337  0.27413625  0.37846931  1
  Te  Te128  1  0.26494551  0.25695078  0.75691059  1
  Te  Te129  1  0.23157454  0.54876643  0.09562874  1
  Te  Te130  1  0.29811358  0.54407881  0.43970331  1
  Te  Te131  1  0.27068182  0.64598293  0.76333278  1
  Te  Te132  1  0.27889751  0.88186274  0.12787226  1
  Te  Te133  1  0.24185637  0.91658080  0.41665057  1
  Te  Te134  1  0.27545566  0.87414882  0.77478664  1
  Te  Te135  1  0.56621708  0.26877103  0.09591187  1
  Te  Te136  1  0.58519237  0.24429985  0.42704863  1
  Te  Te137  1  0.58179652  0.25836871  0.71266181  1
  Te  Te138  1  0.56503154  0.53297819  0.09937547  1
  Te  Te139  1  0.58942128  0.59043002  0.42014254  1
  Te  Te140  1  0.55930363  0.58741356  0.74167701  1
  Te  Te141  1  0.55698146  0.92186678  0.10351628  1
  Te  Te142  1  0.56601430  0.90602901  0.41697436  1
  Te  Te143  1  0.57430332  0.90159134  0.76841595  1
  Te  Te144  1  0.92425477  0.26884269  0.05858465  1
  Te  Te145  1  0.90759825  0.27028809  0.38444855  1
  Te  Te146  1  0.90482548  0.26302983  0.74468064  1
  Te  Te147  1  0.93327618  0.59112250  0.07913211  1
  Te  Te148  1  0.90937721  0.58271431  0.40919639  1
  Te  Te149  1  0.91401985  0.58906146  0.75231310  1
  Te  Te150  1  0.92017348  0.91576084  0.08283250  1
  Te  Te151  1  0.91446818  0.89697169  0.41612109  1
  Te  Te152  1  0.92435300  0.91729091  0.77399879  1
  Te  Te153  1  0.25486880  0.08092806  0.25204879  1
  Te  Te154  1  0.24007250  0.08081093  0.57908924  1
  Te  Te155  1  0.23296575  0.06026306  0.89954721  1
  Te  Te156  1  0.25562644  0.44994140  0.21551451  1
  Te  Te157  1  0.21759247  0.44646251  0.60704856  1
  Te  Te158  1  0.25509034  0.42518138  0.93064430  1
  Te  Te159  1  0.26113367  0.68893862  0.25117124  1
  Te  Te160  1  0.28106243  0.70397849  0.59756990  1
  Te  Te161  1  0.20999463  0.72831302  0.96374102  1
  Te  Te162  1  0.56559639  0.08080202  0.24031009  1
  Te  Te163  1  0.57676759  0.08077174  0.57701088  1
  Te  Te164  1  0.60057303  0.07809694  0.91983884  1
  Te  Te165  1  0.59744924  0.44578407  0.23117449  1
  Te  Te166  1  0.55930234  0.45352695  0.58058129  1
  Te  Te167  1  0.56554394  0.42344055  0.92488786  1
  Te  Te168  1  0.62446233  0.71866331  0.23241602  1
  Te  Te169  1  0.57220299  0.73950804  0.58832764  1
  Te  Te170  1  0.57970973  0.72789427  0.91860735  1
  Te  Te171  1  0.92422058  0.08180233  0.27043927  1
  Te  Te172  1  0.91267909  0.09872284  0.54033904  1
  Te  Te173  1  0.91122705  0.10669040  0.92008388  1
  Te  Te174  1  0.92201918  0.43969479  0.22777080  1
  Te  Te175  1  0.89700301  0.44688396  0.61009131  1
  Te  Te176  1  0.95500824  0.45348414  0.91555872  1
  Te  Te177  1  0.92320227  0.75779160  0.24117442  1
  Te  Te178  1  0.90180473  0.73212008  0.56756154  1
  Te  Te179  1  0.93909601  0.74865056  0.92407279  1
