# generated using pymatgen
data_In2Te3
_symmetry_space_group_name_H-M   'P 1'
_cell_length_a   18.77659639
_cell_length_b   18.77473403
_cell_length_c   18.77826350
_cell_angle_alpha   89.95569176
_cell_angle_beta   90.06586757
_cell_angle_gamma   90.06046725
_symmetry_Int_Tables_number   1
_chemical_formula_structural   In2Te3
_chemical_formula_sum   'In72 Te108'
_cell_volume   6619.80863317
_cell_formula_units_Z   36
loop_
 _symmetry_equiv_pos_site_id
 _symmetry_equiv_pos_as_xyz
  1  'x, y, z'
loop_
 _atom_site_type_symbol
 _atom_site_label
 _atom_site_symmetry_multiplicity
 _atom_site_fract_x
 _atom_site_fract_y
 _atom_site_fract_z
 _atom_site_occupancy
  In  In0  1  -0.01498172  0.48479226  0.84431513  1
  In  In1  1  0.66731911  0.64444347  0.34431412  1
  In  In2  1  -0.00255646  0.84307862  0.47963996  1
  In  In3  1  0.16199013  0.18394414  0.33362270  1
  In  In4  1  0.49102844  0.83452879  0.32681257  1
  In  In5  1  0.00979956  0.85026572  0.83421044  1
  In  In6  1  -0.00413254  0.35476388  0.30790502  1
  In  In7  1  0.01706415  0.65258093  0.34486416  1
  In  In8  1  0.82128057  0.82751264  0.66703367  1
  In  In9  1  0.16729688  0.83401010  -0.01683297  1
  In  In10  1  0.14094739  0.35854005  0.15090442  1
  In  In11  1  -0.01111224  0.31731154  0.69273654  1
  In  In12  1  0.00095506  0.50011445  0.49794703  1
  In  In13  1  0.64721348  -0.00206054  0.34172835  1
  In  In14  1  0.32833924  0.51478703  0.18052248  1
  In  In15  1  0.82506462  0.17654135  0.31062329  1
  In  In16  1  0.50960010  0.34342636  0.50333573  1
  In  In17  1  0.50739861  0.64341684  0.50296929  1
  In  In18  1  0.20703634  -0.01648216  0.47926127  1
  In  In19  1  0.13430445  0.18497856  0.00200259  1
  In  In20  1  -0.00932868  0.64182335  0.68373255  1
  In  In21  1  0.68039353  0.17076233  0.84446473  1
  In  In22  1  0.33111643  0.19647451  0.83260289  1
  In  In23  1  0.49510027  0.00911633  0.20111399  1
  In  In24  1  0.32894844  0.65785136  0.34151914  1
  In  In25  1  0.67640940  0.64124359  -0.01485323  1
  In  In26  1  0.49176125  0.81540552  0.00894016  1
  In  In27  1  0.18914942  0.37162201  0.53045593  1
  In  In28  1  0.33673688  0.33408200  -0.03349353  1
  In  In29  1  0.67251311  0.82662423  0.15098558  1
  In  In30  1  0.34834352  -0.01241562  0.62734047  1
  In  In31  1  0.83914208  0.64412284  0.84694114  1
  In  In32  1  0.63169662  0.83957159  0.47282053  1
  In  In33  1  0.34623987  0.13812246  0.49195449  1
  In  In34  1  0.83749746  0.63362981  0.51635515  1
  In  In35  1  0.49384975  0.64850962  0.14233377  1
  In  In36  1  0.66352886  0.33569529  0.32946527  1
  In  In37  1  0.15872598  0.82415624  0.66071636  1
  In  In38  1  0.81206947  0.33336777  0.50547449  1
  In  In39  1  0.32526052  0.49295238  0.82603307  1
  In  In40  1  0.69265331  0.33043998  0.01045712  1
  In  In41  1  0.32981832  0.16857792  0.17054355  1
  In  In42  1  0.49460202  0.65827168  0.81597465  1
  In  In43  1  0.00679858  0.03660917  0.66913284  1
  In  In44  1  0.67537915  0.18920489  0.51831036  1
  In  In45  1  0.01861634  0.17590623  0.49282334  1
  In  In46  1  0.15140387  0.00878072  0.82220986  1
  In  In47  1  0.52070355  -0.00602996  0.81677082  1
  In  In48  1  0.32161174  0.01278628  0.02308598  1
  In  In49  1  0.32706175  0.66791516  0.02683866  1
  In  In50  1  0.50280957  0.35620986  0.82525724  1
  In  In51  1  0.16069969  0.65894805  0.18967390  1
  In  In52  1  0.18125849  0.66336232  0.49506714  1
  In  In53  1  0.84920862  0.02087862  0.15198668  1
  In  In54  1  0.51880836  0.32331186  0.17035913  1
  In  In55  1  -0.00229413  0.86122370  0.16067543  1
  In  In56  1  0.48780373  0.18090702  0.67857852  1
  In  In57  1  0.85181971  -0.00174652  0.50832283  1
  In  In58  1  0.16121474  0.01635476  0.16924624  1
  In  In59  1  0.84569880  0.19240257  0.00919627  1
  In  In60  1  0.33173378  0.65956043  0.66218543  1
  In  In61  1  0.66691340  0.63542620  0.66227540  1
  In  In62  1  0.33650196  0.82141866  0.84241286  1
  In  In63  1  0.83818989  0.82545598  0.33328977  1
  In  In64  1  0.69480384  -0.00188151  -0.00190623  1
  In  In65  1  0.51077336  0.48791369  0.00921514  1
  In  In66  1  0.82426592  0.01520822  0.87016849  1
  In  In67  1  0.16152295  0.33158442  0.83184058  1
  In  In68  1  -0.00615249  0.65264689  -0.00749424  1
  In  In69  1  0.64880524  0.00459202  0.68205563  1
  In  In70  1  0.82977209  0.64205417  0.15851603  1
  In  In71  1  0.34547083  0.34185729  0.34078785  1
  Te  Te72  1  0.06089816  0.09012189  0.08851230  1
  Te  Te73  1  0.09366409  0.07188770  0.41312390  1
  Te  Te74  1  0.08422883  0.12402734  0.75877419  1
  Te  Te75  1  0.03861497  0.41831391  0.05956294  1
  Te  Te76  1  0.09062079  0.40961732  0.41454193  1
  Te  Te77  1  0.08379739  0.42613261  0.73989904  1
  Te  Te78  1  0.08299923  0.74933096  0.08185823  1
  Te  Te79  1  0.10268725  0.76351740  0.40538767  1
  Te  Te80  1  0.08308348  0.73784935  0.76081908  1
  Te  Te81  1  0.43242350  0.09518878  0.08532881  1
  Te  Te82  1  0.43164361  0.07301184  0.39247731  1
  Te  Te83  1  0.40457833  0.07420047  0.75533065  1
  Te  Te84  1  0.40179949  0.41343783  0.08808843  1
  Te  Te85  1  0.42200124  0.43537540  0.42598738  1
  Te  Te86  1  0.40287347  0.41105186  0.72647868  1
  Te  Te87  1  0.39901057  0.76614696  0.11941289  1
  Te  Te88  1  0.42003150  0.74575761  0.42859568  1
  Te  Te89  1  0.42286758  0.76338706  0.73196904  1
  Te  Te90  1  0.74306574  0.11067388  0.08985171  1
  Te  Te91  1  0.75218197  0.08711227  0.42191243  1
  Te  Te92  1  0.76105746  0.08288842  0.74653189  1
  Te  Te93  1  0.76190147  0.40736571  0.11723922  1
  Te  Te94  1  0.75071359  0.42714146  0.40908979  1
  Te  Te95  1  0.70235431  0.44581660  0.70891503  1
  Te  Te96  1  0.76234231  0.74384877  0.06383450  1
  Te  Te97  1  0.75794287  0.74353647  0.43394747  1
  Te  Te98  1  0.74760211  0.72901956  0.75488613  1
  Te  Te99  1  0.07075889  0.24628280  0.22916525  1
  Te  Te100  1  0.09298644  0.26561933  0.58954429  1
  Te  Te101  1  0.05014046  0.25573787  0.90037555  1
  Te  Te102  1  0.07190113  0.55598517  0.24770920  1
  Te  Te103  1  0.09401789  0.57924342  0.58980534  1
  Te  Te104  1  0.08234894  0.58295305  0.89754397  1
  Te  Te105  1  0.08891415  0.92061701  0.25823972  1
  Te  Te106  1  0.07765925  0.92717345  0.58078537  1
  Te  Te107  1  0.07284672  0.94459346  0.93700230  1
  Te  Te108  1  0.42735751  0.23974305  0.26366157  1
  Te  Te109  1  0.40460989  0.25391177  0.57575340  1
  Te  Te110  1  0.44773219  0.24364844  0.91892977  1
  Te  Te111  1  0.43872871  0.57782180  0.26464861  1
  Te  Te112  1  0.40685856  0.55812297  0.57939391  1
  Te  Te113  1  0.41778350  0.58321332  0.92872508  1
  Te  Te114  1  0.38537198  0.92673225  0.26822698  1
  Te  Te115  1  0.45031992  0.90389694  0.56859430  1
  Te  Te116  1  0.41273352  0.92303760  0.92797696  1
  Te  Te117  1  0.75916726  0.28041088  0.22143542  1
  Te  Te118  1  0.75787436  0.25765838  0.62387359  1
  Te  Te119  1  0.77896960  0.28131891  0.88353198  1
  Te  Te120  1  0.75170887  0.56120458  0.25484475  1
  Te  Te121  1  0.74625306  0.53289694  0.58033047  1
  Te  Te122  1  0.76586390  0.54141014  0.92361788  1
  Te  Te123  1  0.74907191  0.91743874  0.24792554  1
  Te  Te124  1  0.73874851  0.91552305  0.56993911  1
  Te  Te125  1  0.73479656  0.90063996  0.89515217  1
  Te  Te126  1  0.24894457  0.26148734  0.08024156  1
  Te  Te127  1  0.25047015  0.25681059  0.43485211  1
  Te  Te128  1  0.25474476  0.27081164  0.73258401  1
  Te  Te129  1  0.22532785  0.56901865  0.08122806  1
  Te  Te130  1  0.24504103  0.55922929  0.41333692  1
  Te  Te131  1  0.23995009  0.59041614  0.75489950  1
  Te  Te132  1  0.24493349  0.90454155  0.09385038  1
  Te  Te133  1  0.28606781  0.90183386  0.38907616  1
  Te  Te134  1  0.24874681  0.91263526  0.75249261  1
  Te  Te135  1  0.58146868  0.24668218  0.06202197  1
  Te  Te136  1  0.57819305  0.23911955  0.41264627  1
  Te  Te137  1  0.59523224  0.25986472  0.75017250  1
  Te  Te138  1  0.61035746  0.56227632  0.09918685  1
  Te  Te139  1  0.60081295  0.54901714  0.43649620  1
  Te  Te140  1  0.57712372  0.55194146  0.75221497  1
  Te  Te141  1  0.57255730  0.92211645  0.08625855  1
  Te  Te142  1  0.52418647  0.95662779  0.44000926  1
  Te  Te143  1  0.59127046  0.88500972  0.74795901  1
  Te  Te144  1  0.92901888  0.29834416  0.08038972  1
  Te  Te145  1  0.91840492  0.25830169  0.40950655  1
  Te  Te146  1  0.86961809  0.25661939  0.75473604  1
  Te  Te147  1  0.92935070  0.55690717  0.08687678  1
  Te  Te148  1  0.90341000  0.56416381  0.39797594  1
  Te  Te149  1  0.88886072  0.54562338  0.73976979  1
  Te  Te150  1  0.89538504  0.91031257  0.06685157  1
  Te  Te151  1  0.92479421  0.94012179  0.38674938  1
  Te  Te152  1  0.91906405  0.92488433  0.73520754  1
  Te  Te153  1  0.25697209  0.08197487  0.27081022  1
  Te  Te154  1  0.23767481  0.08462756  0.59194464  1
  Te  Te155  1  0.24465428  0.09763755  0.92143876  1
  Te  Te156  1  0.24007799  0.41422170  0.25456167  1
  Te  Te157  1  0.28684898  0.44957329  0.61059865  1
  Te  Te158  1  0.22738609  0.43117885  0.92896154  1
  Te  Te159  1  0.25083177  0.75343880  0.25836278  1
  Te  Te160  1  0.26543458  0.76659109  0.57103891  1
  Te  Te161  1  0.24295047  0.72313385  0.91047205  1
  Te  Te162  1  0.60193102  0.10083220  0.24700235  1
  Te  Te163  1  0.57358707  0.09499922  0.58551800  1
  Te  Te164  1  0.58677342  0.08009460  0.92305497  1
  Te  Te165  1  0.57203874  0.42891388  0.25624551  1
  Te  Te166  1  0.60649398  0.41921380  0.59856377  1
  Te  Te167  1  0.60883681  0.42192103  0.91521437  1
  Te  Te168  1  0.58985378  0.74355748  0.24937281  1
  Te  Te169  1  0.58825354  0.74371423  0.58548518  1
  Te  Te170  1  0.58218692  0.74012402  0.91376621  1
  Te  Te171  1  0.93187432  0.09661113  0.24743966  1
  Te  Te172  1  0.90884128  0.11732298  0.58432816  1
  Te  Te173  1  0.92926135  0.10137919  0.92597017  1
  Te  Te174  1  0.88129340  0.39496272  0.22083779  1
  Te  Te175  1  0.92038679  0.40792193  0.58733756  1
  Te  Te176  1  0.93707288  0.38125097  0.94267084  1
  Te  Te177  1  0.92537135  0.73769612  0.24573180  1
  Te  Te178  1  0.93073122  0.74640367  0.57932030  1
  Te  Te179  1  0.91525024  0.76002824  0.91326302  1
