# generated using pymatgen
data_In2Te3
_symmetry_space_group_name_H-M   'P 1'
_cell_length_a   18.94160269
_cell_length_b   18.93249199
_cell_length_c   18.95235210
_cell_angle_alpha   90.03018643
_cell_angle_beta   89.97219648
_cell_angle_gamma   90.00911714
_symmetry_Int_Tables_number   1
_chemical_formula_structural   In2Te3
_chemical_formula_sum   'In72 Te108'
_cell_volume   6796.53415784
_cell_formula_units_Z   36
loop_
 _symmetry_equiv_pos_site_id
 _symmetry_equiv_pos_as_xyz
  1  'x, y, z'
loop_
 _atom_site_type_symbol
 _atom_site_label
 _atom_site_symmetry_multiplicity
 _atom_site_fract_x
 _atom_site_fract_y
 _atom_site_fract_z
 _atom_site_occupancy
  In  In0  1  0.52722119  0.02958386  0.80534452  1
  In  In1  1  0.68215856  0.49836902  0.14102948  1
  In  In2  1  -0.00212334  0.50373828  0.84092342  1
  In  In3  1  -0.01751343  0.17788720  0.48660169  1
  In  In4  1  -0.01178316  0.84506728  0.49186851  1
  In  In5  1  0.80099794  0.04844713  0.49307430  1
  In  In6  1  0.17242645  0.00146743  0.84229484  1
  In  In7  1  0.32688481  0.82183194  0.15314326  1
  In  In8  1  -0.01309739  0.31795244  0.33972381  1
  In  In9  1  0.19203288  0.17430404  0.67382569  1
  In  In10  1  -0.01047973  -0.01122885  0.31083123  1
  In  In11  1  0.49791181  0.65610995  0.50634773  1
  In  In12  1  0.66036370  0.65669110  0.34507960  1
  In  In13  1  0.83924712  0.83680855  0.67019302  1
  In  In14  1  0.34837612  0.49141540  0.50317889  1
  In  In15  1  0.51302194  0.01387829  0.16626955  1
  In  In16  1  0.32326366  0.64257931  -0.01074512  1
  In  In17  1  -0.04287129  0.67708186  0.30330203  1
  In  In18  1  0.68744709  0.34389571  0.00734026  1
  In  In19  1  0.50347900  0.35606538  0.83062177  1
  In  In20  1  0.67940998  0.18112259  0.18008803  1
  In  In21  1  0.51245488  0.32542714  0.50554679  1
  In  In22  1  0.18678932  -0.02592017  0.16920437  1
  In  In23  1  0.16864155  0.17725203  0.35320336  1
  In  In24  1  0.82647362  0.48804071  0.64891514  1
  In  In25  1  0.33036847  0.01715098  0.66844622  1
  In  In26  1  0.35869516  0.00727282  0.35675296  1
  In  In27  1  -0.01686969  0.14278099  0.16477512  1
  In  In28  1  -0.00225862  0.34039789  -0.00988919  1
  In  In29  1  0.01281954  0.82725950  0.81907052  1
  In  In30  1  -0.00789258  0.35414982  0.67689979  1
  In  In31  1  0.17789695  0.65371608  0.14577624  1
  In  In32  1  0.15495534  0.64961072  0.52051613  1
  In  In33  1  0.35630959  0.17355229  0.18129831  1
  In  In34  1  0.64269120  0.33684793  0.65883430  1
  In  In35  1  0.69947570  0.80602786  0.17166542  1
  In  In36  1  0.82404746  0.18500449  -0.01159973  1
  In  In37  1  0.33260766  0.80700752  0.49657569  1
  In  In38  1  0.68177276  0.51203768  0.84674930  1
  In  In39  1  0.47457687  0.18431261  -0.00573689  1
  In  In40  1  0.48228228  0.35880911  0.14871053  1
  In  In41  1  0.68001034  0.33725180  0.33695533  1
  In  In42  1  0.49225246  0.82246863  -0.01792365  1
  In  In43  1  -0.00621989  0.66236144  0.67843998  1
  In  In44  1  0.83043237  0.49187348  0.34568649  1
  In  In45  1  0.00204355  0.50953672  0.16588950  1
  In  In46  1  0.47996865  0.59951890  0.20093459  1
  In  In47  1  0.18085239  0.13699802  0.00173589  1
  In  In48  1  0.68576701  0.66309862  0.65531875  1
  In  In49  1  0.33177520  0.48606614  0.83886753  1
  In  In50  1  0.65356775  0.82963179  0.83392088  1
  In  In51  1  -0.00910508  -0.01381837  0.63240801  1
  In  In52  1  0.17762730  0.48134973  0.33310839  1
  In  In53  1  0.15545738  -0.00989030  0.52668985  1
  In  In54  1  0.18286326  0.80339815  0.33250869  1
  In  In55  1  0.32911263  0.83484180  0.85656374  1
  In  In56  1  0.17238946  0.35296324  0.15889671  1
  In  In57  1  0.01757697  0.66429396  -0.00234286  1
  In  In58  1  0.33883620  0.33595231  0.67281729  1
  In  In59  1  0.00888407  0.17799128  0.80909789  1
  In  In60  1  0.64228066  0.00459714  -0.00681395  1
  In  In61  1  0.48035542  0.86009032  0.68049778  1
  In  In62  1  0.80310696  0.04457763  0.81018784  1
  In  In63  1  -0.03791891  -0.02460926  0.00095427  1
  In  In64  1  0.52459245  0.03981372  0.51668912  1
  In  In65  1  0.82609314  0.81927084  0.00164717  1
  In  In66  1  0.51608717  0.68106221  0.82001082  1
  In  In67  1  0.67485910  0.83031773  0.50295390  1
  In  In68  1  0.17207888  0.31831831  0.48784687  1
  In  In69  1  0.81985170  -0.01000938  0.18637570  1
  In  In70  1  0.51521718  0.82658313  0.33503791  1
  In  In71  1  0.15796891  0.50601008  0.69317960  1
  Te  Te72  1  0.07425189  0.05145574  0.08615605  1
  Te  Te73  1  0.07367993  0.06893691  0.41812395  1
  Te  Te74  1  0.08606753  0.06810509  0.72928707  1
  Te  Te75  1  0.08990934  0.43671220  0.06445778  1
  Te  Te76  1  0.07392661  0.41247703  0.42068428  1
  Te  Te77  1  0.09394242  0.40021871  0.78017885  1
  Te  Te78  1  0.09222814  0.75574594  0.08679986  1
  Te  Te79  1  0.07416437  0.74182261  0.41931764  1
  Te  Te80  1  0.09972529  0.72913051  0.75529653  1
  Te  Te81  1  0.40873710  0.07321103  0.07447218  1
  Te  Te82  1  0.44790131  0.10782386  0.41138944  1
  Te  Te83  1  0.42891597  0.10971786  0.72885138  1
  Te  Te84  1  0.37369114  0.42667708  0.07307644  1
  Te  Te85  1  0.43799175  0.41811245  0.40751709  1
  Te  Te86  1  0.42860239  0.44324711  0.72945536  1
  Te  Te87  1  0.42085520  0.72929514  0.07728805  1
  Te  Te88  1  0.41711448  0.73004144  0.39792851  1
  Te  Te89  1  0.40126905  0.75187546  0.75038453  1
  Te  Te90  1  0.75441936  0.07302996  0.07554200  1
  Te  Te91  1  0.70521352  0.11439071  0.40221351  1
  Te  Te92  1  0.72563126  0.13085515  0.71936310  1
  Te  Te93  1  0.78832733  0.44536573  0.04912055  1
  Te  Te94  1  0.72164556  0.44148738  0.43554203  1
  Te  Te95  1  0.74272048  0.41162342  0.75011777  1
  Te  Te96  1  0.75513747  0.70848442  0.07363140  1
  Te  Te97  1  0.75290732  0.75273004  0.40707341  1
  Te  Te98  1  0.75784915  0.74658317  0.76004036  1
  Te  Te99  1  0.08553198  0.24248284  0.24291747  1
  Te  Te100  1  0.08168459  0.24377841  0.58795991  1
  Te  Te101  1  0.08742508  0.23324752  0.92728320  1
  Te  Te102  1  0.09316516  0.58874454  0.25961602  1
  Te  Te103  1  0.05775542  0.55563802  0.59036180  1
  Te  Te104  1  0.10343795  0.57586115  0.91531363  1
  Te  Te105  1  0.08898567  0.89033958  0.24910244  1
  Te  Te106  1  0.09118331  0.87570365  0.60149423  1
  Te  Te107  1  0.07888584  0.91260451  0.92641958  1
  Te  Te108  1  0.45924198  0.25146083  0.24776142  1
  Te  Te109  1  0.41252574  0.24671863  0.58191713  1
  Te  Te110  1  0.39948114  0.28806533  0.91894945  1
  Te  Te111  1  0.40191482  0.51177397  0.28793646  1
  Te  Te112  1  0.39749003  0.59501474  0.59495541  1
  Te  Te113  1  0.43344874  0.58457731  0.90322430  1
  Te  Te114  1  0.41598476  0.91390321  0.24830571  1
  Te  Te115  1  0.40898956  0.92586210  0.56468338  1
  Te  Te116  1  0.44194531  0.93170755  0.89225179  1
  Te  Te117  1  0.76894009  0.28389477  0.23064578  1
  Te  Te118  1  0.72776422  0.23118079  0.59471803  1
  Te  Te119  1  0.73606039  0.25744725  0.89797346  1
  Te  Te120  1  0.75104245  0.57990858  0.25012760  1
  Te  Te121  1  0.76183753  0.58592788  0.55837219  1
  Te  Te122  1  0.72897419  0.62277221  0.93082745  1
  Te  Te123  1  0.72546700  0.91222945  0.26798652  1
  Te  Te124  1  0.75722727  0.92962015  0.58454111  1
  Te  Te125  1  0.74692511  0.92456881  0.91343786  1
  Te  Te126  1  0.24949437  0.23675944  0.09373354  1
  Te  Te127  1  0.27649349  0.26637805  0.39726502  1
  Te  Te128  1  0.25493998  0.26289363  0.77040161  1
  Te  Te129  1  0.27543784  0.54983962  0.09770611  1
  Te  Te130  1  0.24965182  0.57918434  0.42440062  1
  Te  Te131  1  0.23721390  0.58773829  0.78625193  1
  Te  Te132  1  0.26764347  0.91858815  0.05975683  1
  Te  Te133  1  0.24163495  0.91611896  0.41767203  1
  Te  Te134  1  0.25299664  0.91442129  0.74679631  1
  Te  Te135  1  0.58373974  0.24846943  0.08042910  1
  Te  Te136  1  0.61113893  0.23612437  0.42552541  1
  Te  Te137  1  0.54161352  0.25287311  0.73155826  1
  Te  Te138  1  0.56090679  0.56293567  0.08582393  1
  Te  Te139  1  0.57803133  0.56228953  0.42450225  1
  Te  Te140  1  0.59331349  0.57878767  0.73958127  1
  Te  Te141  1  0.58059230  0.89964799  0.08474498  1
  Te  Te142  1  0.57971068  0.92380823  0.42992266  1
  Te  Te143  1  0.60797042  0.92828335  0.72716384  1
  Te  Te144  1  0.91598515  0.25364876  0.08781581  1
  Te  Te145  1  0.88179746  0.27195949  0.43434339  1
  Te  Te146  1  0.90776907  0.27347015  0.76550455  1
  Te  Te147  1  0.91855728  0.59520752  0.08247215  1
  Te  Te148  1  0.92523564  0.58468161  0.41048057  1
  Te  Te149  1  0.89641192  0.57722612  0.75556860  1
  Te  Te150  1  0.91348669  0.88484498  0.11682609  1
  Te  Te151  1  0.89826684  0.94421759  0.42444570  1
  Te  Te152  1  0.91554027  0.93460058  0.75946998  1
  Te  Te153  1  0.25143390  0.07694853  0.26195265  1
  Te  Te154  1  0.25565378  0.09836827  0.55835445  1
  Te  Te155  1  0.27147081  0.09491968  0.89486525  1
  Te  Te156  1  0.27307964  0.39141637  0.26223143  1
  Te  Te157  1  0.23294240  0.41834314  0.58778767  1
  Te  Te158  1  0.28467313  0.39600622  0.94772606  1
  Te  Te159  1  0.27437123  0.71778129  0.24962573  1
  Te  Te160  1  0.24933852  0.73682057  0.59340472  1
  Te  Te161  1  0.24296148  0.76051865  0.94930134  1
  Te  Te162  1  0.60838078  0.07735852  0.25939881  1
  Te  Te163  1  0.62594812  0.11119141  0.59874333  1
  Te  Te164  1  0.58730709  0.11953638  0.91201863  1
  Te  Te165  1  0.59577937  0.41502253  0.23428472  1
  Te  Te166  1  0.59205257  0.43824457  0.56187195  1
  Te  Te167  1  0.58514213  0.43090194  0.93395491  1
  Te  Te168  1  0.57256678  0.73044315  0.23225043  1
  Te  Te169  1  0.57209732  0.76041062  0.59784890  1
  Te  Te170  1  0.60717224  0.72706073  0.93958333  1
  Te  Te171  1  0.88940328  0.09900219  0.27334991  1
  Te  Te172  1  0.90415392  0.10393692  0.59423059  1
  Te  Te173  1  0.92547495  0.09464112  0.91471258  1
  Te  Te174  1  0.91598300  0.41250391  0.24435320  1
  Te  Te175  1  0.90120024  0.38861788  0.56571486  1
  Te  Te176  1  0.89872372  0.42970330  0.92505512  1
  Te  Te177  1  0.88263235  0.78101437  0.23688277  1
  Te  Te178  1  0.91136377  0.74385140  0.57716671  1
  Te  Te179  1  0.91876944  0.74719945  0.90658405  1
