# generated using pymatgen
data_In2Te3
_symmetry_space_group_name_H-M   'P 1'
_cell_length_a   18.86632446
_cell_length_b   18.86156599
_cell_length_c   18.85965747
_cell_angle_alpha   90.09550982
_cell_angle_beta   89.91299061
_cell_angle_gamma   89.87138598
_symmetry_Int_Tables_number   1
_chemical_formula_structural   In2Te3
_chemical_formula_sum   'In72 Te108'
_cell_volume   6711.14537684
_cell_formula_units_Z   36
loop_
 _symmetry_equiv_pos_site_id
 _symmetry_equiv_pos_as_xyz
  1  'x, y, z'
loop_
 _atom_site_type_symbol
 _atom_site_label
 _atom_site_symmetry_multiplicity
 _atom_site_fract_x
 _atom_site_fract_y
 _atom_site_fract_z
 _atom_site_occupancy
  In  In0  1  0.85853264  0.83138063  0.32993149  1
  In  In1  1  0.34145812  0.49436920  0.51399205  1
  In  In2  1  0.01175076  0.49102702  0.15851954  1
  In  In3  1  0.67560507  0.34925537  0.32376428  1
  In  In4  1  0.84162039  0.50722333  0.67315968  1
  In  In5  1  0.15837802  0.32582079  0.84632122  1
  In  In6  1  0.48376116  -0.02141504  0.51364257  1
  In  In7  1  0.68461759  0.02409323  0.34170653  1
  In  In8  1  0.67784875  0.19292923  0.17747864  1
  In  In9  1  0.00894592  0.81425388  0.84680270  1
  In  In10  1  0.50183742  0.35150808  0.49226508  1
  In  In11  1  0.83668594  -0.00780502  0.84964143  1
  In  In12  1  0.15141305  0.01321439  0.53281023  1
  In  In13  1  0.51130258  0.48678536  0.67571771  1
  In  In14  1  0.16177607  0.33591568  0.50087981  1
  In  In15  1  0.67536975  0.66730975  -0.00298556  1
  In  In16  1  0.49461924  0.81750287  0.34005620  1
  In  In17  1  0.14227230  0.63489553  0.10539103  1
  In  In18  1  0.49211990  0.82956405  0.00117609  1
  In  In19  1  0.00525106  0.18915554  0.15891343  1
  In  In20  1  0.84683199  0.17490356  0.01038731  1
  In  In21  1  0.31902614  0.04633861  -0.02270798  1
  In  In22  1  0.81635993  0.84716603  0.65412294  1
  In  In23  1  0.48637209  0.16781331  0.69593014  1
  In  In24  1  0.65170302  0.84765897  0.83903806  1
  In  In25  1  0.45951610  0.02074147  0.12815963  1
  In  In26  1  0.00449498  0.34143043  0.67291234  1
  In  In27  1  0.01271492  -0.01918876  -0.01404533  1
  In  In28  1  0.17414204  0.00271438  0.16237265  1
  In  In29  1  0.67862544  0.47669992  0.15144243  1
  In  In30  1  0.48739100  0.32529589  0.86191523  1
  In  In31  1  0.67032744  0.81508867  0.51978014  1
  In  In32  1  0.17419704  0.48049408  0.30475338  1
  In  In33  1  0.29921936  0.21461511  0.13115605  1
  In  In34  1  0.82312845  0.64124581  0.83898635  1
  In  In35  1  0.32492336  -0.00438660  0.34526520  1
  In  In36  1  0.32547012  0.66025061  0.70443702  1
  In  In37  1  0.50396045  0.17396818  0.29677007  1
  In  In38  1  0.17058687  0.80827046  0.35204442  1
  In  In39  1  0.83325103  0.48659655  0.32340014  1
  In  In40  1  0.30895564  0.51269169  0.85456135  1
  In  In41  1  -0.01307224  0.00908210  0.33777169  1
  In  In42  1  0.66894251  0.03504476  -0.00464808  1
  In  In43  1  0.33998153  0.83069770  0.13333295  1
  In  In44  1  -0.01522491  0.67401770  0.68760020  1
  In  In45  1  0.01659673  0.82488856  0.16661348  1
  In  In46  1  -0.03599493  0.19291049  0.46627268  1
  In  In47  1  0.31684442  0.65676511  0.32869440  1
  In  In48  1  0.47727258  0.49528703  -0.01271612  1
  In  In49  1  0.31424419  0.32695285  0.67155454  1
  In  In50  1  0.82166465  0.66435539  0.48174176  1
  In  In51  1  0.50017762  0.33459609  0.14514669  1
  In  In52  1  -0.00780446  0.49508350  0.49049164  1
  In  In53  1  0.36312057  0.81944792  0.49646729  1
  In  In54  1  0.66826799  0.59618822  0.35918552  1
  In  In55  1  0.85342980  0.18735795  0.65788882  1
  In  In56  1  0.86073026  0.34737884  0.83793626  1
  In  In57  1  0.02023393  0.01556939  0.67521174  1
  In  In58  1  0.66327125  -0.01182919  0.66518170  1
  In  In59  1  0.13960229  0.67064181  0.50395708  1
  In  In60  1  0.67262903  0.18873482  0.81565826  1
  In  In61  1  0.17023056  0.19177864  0.32065367  1
  In  In62  1  0.68752923  0.16755147  0.50345693  1
  In  In63  1  0.48228407  0.64665004  0.18538439  1
  In  In64  1  0.68454743  0.83834657  0.15714809  1
  In  In65  1  0.48306248  -0.02295202  0.86150035  1
  In  In66  1  0.64091865  0.66432076  0.67262375  1
  In  In67  1  0.87607024  0.82531116  0.00872449  1
  In  In68  1  0.18086454  0.83215385  0.67358909  1
  In  In69  1  0.16807704  0.19254736  0.70225769  1
  In  In70  1  0.85467699  0.48298878  0.01080208  1
  In  In71  1  0.30630668  0.16319962  0.49469159  1
  Te  Te72  1  0.08346606  0.08429386  0.07594998  1
  Te  Te73  1  0.09632922  0.09943407  0.41489364  1
  Te  Te74  1  0.11479650  0.07017485  0.77698908  1
  Te  Te75  1  0.12971954  0.40950420  0.10286964  1
  Te  Te76  1  0.07605564  0.40732997  0.39859161  1
  Te  Te77  1  0.09591643  0.42309930  0.75372769  1
  Te  Te78  1  0.10548313  0.77488550  0.05790353  1
  Te  Te79  1  0.05270445  0.75008995  0.41636217  1
  Te  Te80  1  0.10530683  0.73074608  0.76172338  1
  Te  Te81  1  0.41556931  0.14747609  0.04530043  1
  Te  Te82  1  0.42266559  0.09039702  0.41547310  1
  Te  Te83  1  0.40895591  0.07300292  0.77558563  1
  Te  Te84  1  0.39153120  0.40702817  0.07299282  1
  Te  Te85  1  0.41164314  0.42681540  0.40324640  1
  Te  Te86  1  0.40232641  0.41543415  0.75866473  1
  Te  Te87  1  0.41354111  0.71525206  0.06545586  1
  Te  Te88  1  0.43859091  0.69960091  0.42143299  1
  Te  Te89  1  0.37996063  0.77764249  0.77585937  1
  Te  Te90  1  0.76305359  0.08529709  0.10048822  1
  Te  Te91  1  0.78633788  0.10041997  0.41629835  1
  Te  Te92  1  0.75914433  0.07607832  0.74672713  1
  Te  Te93  1  0.78033293  0.38381864  0.09727953  1
  Te  Te94  1  0.72957287  0.44663224  0.42337979  1
  Te  Te95  1  0.76067234  0.41649638  0.75491302  1
  Te  Te96  1  0.77537564  0.73875186  0.08700021  1
  Te  Te97  1  0.72845247  0.74926663  0.39602725  1
  Te  Te98  1  0.75366421  0.75606488  0.76124991  1
  Te  Te99  1  0.10143243  0.28192651  0.22785867  1
  Te  Te100  1  0.08081901  0.23562866  0.58008990  1
  Te  Te101  1  0.09257880  0.22297513  0.93211056  1
  Te  Te102  1  0.09241341  0.59434225  0.24540619  1
  Te  Te103  1  0.06407368  0.57742371  0.59546105  1
  Te  Te104  1  0.12610381  0.58094646  0.96288263  1
  Te  Te105  1  0.10054417  0.92050888  0.26638448  1
  Te  Te106  1  0.07048947  0.89803955  0.59031464  1
  Te  Te107  1  0.10780296  0.90968988  0.89837438  1
  Te  Te108  1  0.39797651  0.26267655  0.24143252  1
  Te  Te109  1  0.40964061  0.25040732  0.57864482  1
  Te  Te110  1  0.37941639  0.25134374  0.92962009  1
  Te  Te111  1  0.38080973  0.55328829  0.24065251  1
  Te  Te112  1  0.41837060  0.58675103  0.60641514  1
  Te  Te113  1  0.43655073  0.58707790  0.87609666  1
  Te  Te114  1  0.41203308  0.91297335  0.24808568  1
  Te  Te115  1  0.38291757  0.92143008  0.60239415  1
  Te  Te116  1  0.38034473  0.87553606  0.91003720  1
  Te  Te117  1  0.77493048  0.24583423  0.27764032  1
  Te  Te118  1  0.75229223  0.26689310  0.58908523  1
  Te  Te119  1  0.75903670  0.25853862  0.91644502  1
  Te  Te120  1  0.75071638  0.58239959  0.23446016  1
  Te  Te121  1  0.74273053  0.58899757  0.58800078  1
  Te  Te122  1  0.74047359  0.54978486  0.92499101  1
  Te  Te123  1  0.76336255  0.92449385  0.25328372  1
  Te  Te124  1  0.75318484  0.93950985  0.55118864  1
  Te  Te125  1  0.75325506  0.90246675  0.94054869  1
  Te  Te126  1  0.18742022  0.26976776  0.04593983  1
  Te  Te127  1  0.26483893  0.27888921  0.40406855  1
  Te  Te128  1  0.28755273  0.23788057  0.79302507  1
  Te  Te129  1  0.27524983  0.59723399  0.03908784  1
  Te  Te130  1  0.22850396  0.57222765  0.42345627  1
  Te  Te131  1  0.21680048  0.57558231  0.75663128  1
  Te  Te132  1  0.25439124  0.93029449  0.05581148  1
  Te  Te133  1  0.24043215  0.91560699  0.44315242  1
  Te  Te134  1  0.27737481  0.89519462  0.76474604  1
  Te  Te135  1  0.59666541  0.25054776  0.06999681  1
  Te  Te136  1  0.58687392  0.24290447  0.40457392  1
  Te  Te137  1  0.57775245  0.27908409  0.73949471  1
  Te  Te138  1  0.58219745  0.58144052  0.08436756  1
  Te  Te139  1  0.54150726  0.58192757  0.42445728  1
  Te  Te140  1  0.58299340  0.57448869  0.77341593  1
  Te  Te141  1  0.58548548  0.92437220  0.07335958  1
  Te  Te142  1  0.58126867  0.92171119  0.41106915  1
  Te  Te143  1  0.55753563  0.90988073  0.73969826  1
  Te  Te144  1  0.91730747  0.28483491  0.08257364  1
  Te  Te145  1  0.90729261  0.28510286  0.36788876  1
  Te  Te146  1  0.94614187  0.23546557  0.76459790  1
  Te  Te147  1  0.92328229  0.58785373  0.08911251  1
  Te  Te148  1  0.92173687  0.58945906  0.39539310  1
  Te  Te149  1  0.93853107  0.56089034  0.77863195  1
  Te  Te150  1  0.92678751  0.93217932  0.10312719  1
  Te  Te151  1  0.92691126  0.91358204  0.43071772  1
  Te  Te152  1  0.92207515  0.91049177  0.75231679  1
  Te  Te153  1  0.27020988  0.09330741  0.23911797  1
  Te  Te154  1  0.25287377  0.09096842  0.61468061  1
  Te  Te155  1  0.20541841  0.10630363  0.90457598  1
  Te  Te156  1  0.25848652  0.44404653  0.18551431  1
  Te  Te157  1  0.23067024  0.43040972  0.59753983  1
  Te  Te158  1  0.23821568  0.41255203  0.94015431  1
  Te  Te159  1  0.25051157  0.75550589  0.23290584  1
  Te  Te160  1  0.25884620  0.73426565  0.57385209  1
  Te  Te161  1  0.21833326  0.70290124  0.94989895  1
  Te  Te162  1  0.58504560  0.06522779  0.23071891  1
  Te  Te163  1  0.57481813  0.08713983  0.58704189  1
  Te  Te164  1  0.57841937  0.09838114  0.89525100  1
  Te  Te165  1  0.57048366  0.42621985  0.24614397  1
  Te  Te166  1  0.59855752  0.42373360  0.57404682  1
  Te  Te167  1  0.58346619  0.39809436  0.94677470  1
  Te  Te168  1  0.58369156  0.75219709  0.23335510  1
  Te  Te169  1  0.55913307  0.76122559  0.59776605  1
  Te  Te170  1  0.57290492  0.73874651  0.90863518  1
  Te  Te171  1  0.92305468  0.09794583  0.24177560  1
  Te  Te172  1  0.92939299  0.08539659  0.57553758  1
  Te  Te173  1  0.93004743  0.09007321  0.91320952  1
  Te  Te174  1  0.93116043  0.40010450  0.25140720  1
  Te  Te175  1  0.90615736  0.40467696  0.57550444  1
  Te  Te176  1  0.95632820  0.41495163  0.92680528  1
  Te  Te177  1  0.92491235  0.73693267  0.23901743  1
  Te  Te178  1  0.90467580  0.74725164  0.58051373  1
  Te  Te179  1  0.93129622  0.70983670  0.92588019  1
