# generated using pymatgen
data_In2Te3
_symmetry_space_group_name_H-M   'P 1'
_cell_length_a   18.96862864
_cell_length_b   18.97937405
_cell_length_c   18.93817806
_cell_angle_alpha   90.12337959
_cell_angle_beta   90.06061233
_cell_angle_gamma   89.97270642
_symmetry_Int_Tables_number   1
_chemical_formula_structural   In2Te3
_chemical_formula_sum   'In72 Te108'
_cell_volume   6817.96419340
_cell_formula_units_Z   36
loop_
 _symmetry_equiv_pos_site_id
 _symmetry_equiv_pos_as_xyz
  1  'x, y, z'
loop_
 _atom_site_type_symbol
 _atom_site_label
 _atom_site_symmetry_multiplicity
 _atom_site_fract_x
 _atom_site_fract_y
 _atom_site_fract_z
 _atom_site_occupancy
  In  In0  1  0.01989277  0.18024386  0.82239481  1
  In  In1  1  0.82291676  0.84252907  0.66012352  1
  In  In2  1  0.48881971  0.82913269  -0.02782540  1
  In  In3  1  0.50236035  0.34214408  0.50373453  1
  In  In4  1  0.49360296  0.50262222  0.00716622  1
  In  In5  1  0.52303294  0.15812845  0.65532994  1
  In  In6  1  0.31169199  0.50138356  0.47107149  1
  In  In7  1  0.50618159  0.80477498  0.65815407  1
  In  In8  1  0.18712214  0.84901750  0.64201134  1
  In  In9  1  -0.00962542  0.80967925  0.84128858  1
  In  In10  1  0.68715458  0.33199891  0.03867811  1
  In  In11  1  0.34019461  0.83389592  0.46091761  1
  In  In12  1  0.69439301  0.64537416  0.30687942  1
  In  In13  1  0.16007166  0.49490497  -0.00068248  1
  In  In14  1  0.65850034  0.63355374  0.03263172  1
  In  In15  1  0.72999045  0.40431062  0.29470159  1
  In  In16  1  0.33102357  0.47497716  0.83740249  1
  In  In17  1  0.31388694  0.67302695  0.02503170  1
  In  In18  1  0.15749645  0.17272428  0.02245955  1
  In  In19  1  0.65064774  0.15015486  0.50003975  1
  In  In20  1  -0.02055608  0.32723652  0.00056379  1
  In  In21  1  0.66649494  0.81945348  0.17185254  1
  In  In22  1  0.35755342  0.16996661  0.50694575  1
  In  In23  1  0.82917036  0.15249782  0.67350055  1
  In  In24  1  -0.00041222  0.83689557  0.17458899  1
  In  In25  1  0.37558905  0.86116165  0.83415279  1
  In  In26  1  0.18364736  0.86734392  0.03007988  1
  In  In27  1  0.65454942  0.34277487  0.65554391  1
  In  In28  1  -0.02774395  -0.03519337  0.64340916  1
  In  In29  1  0.15571420  0.02962638  0.83458613  1
  In  In30  1  0.34535263  0.66063242  0.62938379  1
  In  In31  1  0.18547111  0.18402208  0.67534494  1
  In  In32  1  0.18060405  0.13914222  0.31244415  1
  In  In33  1  0.84403128  0.66327779  0.84704853  1
  In  In34  1  0.00507854  0.16255578  0.17426421  1
  In  In35  1  0.16892519  0.82082954  0.33429317  1
  In  In36  1  0.00255162  0.81056968  0.49797529  1
  In  In37  1  0.15919785  0.32765425  0.49782023  1
  In  In38  1  0.16701101  0.33727429  0.15360169  1
  In  In39  1  0.82517328  0.80452674  0.31627723  1
  In  In40  1  0.51097600  0.62472048  0.81631550  1
  In  In41  1  0.78383002  0.56901405  0.45997858  1
  In  In42  1  0.34114215  0.19024937  0.85198803  1
  In  In43  1  0.80588127  -0.01615187  0.48987868  1
  In  In44  1  -0.01063978  0.35699319  0.67407138  1
  In  In45  1  0.66104230  0.49856536  0.80413333  1
  In  In46  1  0.18862748  0.67926004  0.83205702  1
  In  In47  1  0.34487884  0.84412773  0.20349400  1
  In  In48  1  0.82459530  0.16545506  0.03437262  1
  In  In49  1  -0.01755118  0.64858137  0.07184314  1
  In  In50  1  0.34622813  0.01146667  0.65981835  1
  In  In51  1  0.15340845  0.48893285  0.65757638  1
  In  In52  1  0.51962578  -0.02238196  0.40918701  1
  In  In53  1  0.49463469  0.00801696  0.16606427  1
  In  In54  1  0.67299860  0.83660223  0.84586940  1
  In  In55  1  0.00388531  0.64359538  0.67446686  1
  In  In56  1  0.35446369  0.50525820  0.17945614  1
  In  In57  1  -0.02029789  0.49844002  0.86008596  1
  In  In58  1  0.00505895  0.00949581  0.34302452  1
  In  In59  1  -0.01880267  0.50322450  0.50622914  1
  In  In60  1  0.51379699  0.65807867  0.18929893  1
  In  In61  1  -0.01472073  -0.01928422  0.01698317  1
  In  In62  1  0.52875744  0.01071790  0.86042488  1
  In  In63  1  0.82004634  0.19845862  0.32428937  1
  In  In64  1  0.35100965  0.31134424  0.30432403  1
  In  In65  1  0.67520158  0.01266357  0.01634819  1
  In  In66  1  0.81740552  0.03807199  0.85704478  1
  In  In67  1  0.50084150  0.33612445  0.83989455  1
  In  In68  1  0.52233144  0.65340578  0.48786767  1
  In  In69  1  0.49785411  0.16244212  0.30877735  1
  In  In70  1  0.13188260  0.52704987  0.29921906  1
  In  In71  1  -0.03121030  0.34816654  0.32712055  1
  Te  Te72  1  0.08765684  0.06123819  0.09755487  1
  Te  Te73  1  0.08499492  0.10764951  0.41765432  1
  Te  Te74  1  0.06108247  0.07042874  0.72354419  1
  Te  Te75  1  0.05991128  0.42306865  0.08834748  1
  Te  Te76  1  0.08261819  0.42519152  0.41093308  1
  Te  Te77  1  0.08455276  0.42253529  0.77320385  1
  Te  Te78  1  0.09069160  0.76130516  0.07568705  1
  Te  Te79  1  0.07454883  0.72922228  0.40155797  1
  Te  Te80  1  0.09347011  0.76004418  0.73392818  1
  Te  Te81  1  0.40628581  0.11365440  0.11574560  1
  Te  Te82  1  0.40467959  0.07982532  0.39631828  1
  Te  Te83  1  0.42803846  0.08906678  0.76018274  1
  Te  Te84  1  0.38783481  0.41612187  0.06542015  1
  Te  Te85  1  0.41456088  0.41109321  0.40116117  1
  Te  Te86  1  0.43961447  0.43578189  0.74906574  1
  Te  Te87  1  0.43334516  0.74408910  0.08711906  1
  Te  Te88  1  0.41852373  0.72193474  0.40312350  1
  Te  Te89  1  0.40750175  0.73177527  0.75230666  1
  Te  Te90  1  0.73345758  0.09434685  0.12650259  1
  Te  Te91  1  0.74174871  0.08578830  0.39959376  1
  Te  Te92  1  0.73088696  0.06685552  0.74329384  1
  Te  Te93  1  0.76334199  0.44318808  0.10078810  1
  Te  Te94  1  0.75939896  0.42168534  0.44078966  1
  Te  Te95  1  0.75585589  0.40782769  0.74008414  1
  Te  Te96  1  0.74909874  0.73447463  0.08585760  1
  Te  Te97  1  0.76005618  0.72154280  0.42226558  1
  Te  Te98  1  0.75284796  0.74536798  0.75534294  1
  Te  Te99  1  0.08967758  0.25754123  0.26026651  1
  Te  Te100  1  0.07458503  0.25336346  0.59802148  1
  Te  Te101  1  0.09532323  0.26677656  0.92118835  1
  Te  Te102  1  0.04077604  0.59635831  0.20646652  1
  Te  Te103  1  0.09501957  0.59191629  0.56635181  1
  Te  Te104  1  0.08899027  0.59751817  0.91049533  1
  Te  Te105  1  0.09266700  0.92773333  0.25126948  1
  Te  Te106  1  0.08920472  0.92329045  0.55450703  1
  Te  Te107  1  0.08396424  0.91687470  0.90854485  1
  Te  Te108  1  0.46890305  0.28051451  0.21607317  1
  Te  Te109  1  0.42312097  0.26268864  0.60663940  1
  Te  Te110  1  0.44247883  0.24734231  0.94266453  1
  Te  Te111  1  0.40362432  0.60744687  0.27553755  1
  Te  Te112  1  0.42715756  0.55671105  0.56146079  1
  Te  Te113  1  0.39630451  0.59491673  0.92154756  1
  Te  Te114  1  0.45131112  0.91824358  0.28008031  1
  Te  Te115  1  0.40845144  0.89693105  0.58454207  1
  Te  Te116  1  0.41293554  0.95886775  0.94384518  1
  Te  Te117  1  0.71713796  0.26662799  0.24608899  1
  Te  Te118  1  0.74155771  0.23726428  0.58249621  1
  Te  Te119  1  0.74928273  0.24423475  0.93707796  1
  Te  Te120  1  0.78906993  0.57153170  0.21362987  1
  Te  Te121  1  0.70667735  0.55797870  0.58939397  1
  Te  Te122  1  0.73591954  0.57976764  0.91206581  1
  Te  Te123  1  0.73504976  0.91502707  0.26558443  1
  Te  Te124  1  0.72537740  0.93428600  0.60245544  1
  Te  Te125  1  0.76431415  0.91877905  0.93518220  1
  Te  Te126  1  0.26631505  0.23509256  0.10609219  1
  Te  Te127  1  0.26096059  0.24815988  0.41512174  1
  Te  Te128  1  0.25754638  0.27312202  0.76386154  1
  Te  Te129  1  0.23510218  0.57520847  0.10450304  1
  Te  Te130  1  0.23156768  0.59073469  0.38678958  1
  Te  Te131  1  0.25216271  0.58296267  0.73321565  1
  Te  Te132  1  0.28215290  0.93903749  0.10942860  1
  Te  Te133  1  0.25024115  0.92801332  0.39573684  1
  Te  Te134  1  0.24992347  0.93079681  0.75550331  1
  Te  Te135  1  0.55373347  0.29708580  0.08613990  1
  Te  Te136  1  0.57520692  0.24742606  0.41209730  1
  Te  Te137  1  0.59402644  0.24526795  0.75611817  1
  Te  Te138  1  0.58334378  0.53510426  0.12887191  1
  Te  Te139  1  0.58900685  0.56119016  0.38008046  1
  Te  Te140  1  0.59985616  0.59193932  0.70126274  1
  Te  Te141  1  0.57886620  0.90262638  0.07419672  1
  Te  Te142  1  0.63995404  0.89819503  0.38772876  1
  Te  Te143  1  0.57017706  0.90541898  0.75886690  1
  Te  Te144  1  0.90693577  0.26288193  0.11726302  1
  Te  Te145  1  0.91393111  0.25453618  0.42291773  1
  Te  Te146  1  0.90763652  0.25447657  0.75623643  1
  Te  Te147  1  0.86461574  0.55874410  0.07428748  1
  Te  Te148  1  0.92039041  0.60137088  0.41653647  1
  Te  Te149  1  0.89947034  0.56292960  0.74488136  1
  Te  Te150  1  0.89477879  0.91911200  0.11142026  1
  Te  Te151  1  0.90954367  0.90221242  0.41054241  1
  Te  Te152  1  0.90587679  0.91699651  0.77324734  1
  Te  Te153  1  0.28830363  0.11432730  0.21610503  1
  Te  Te154  1  0.24730512  0.08798666  0.57545584  1
  Te  Te155  1  0.25118515  0.09303835  0.93041671  1
  Te  Te156  1  0.24586528  0.41764953  0.25735967  1
  Te  Te157  1  0.25643516  0.40847696  0.58202018  1
  Te  Te158  1  0.26592865  0.40306059  0.94762280  1
  Te  Te159  1  0.24627484  0.74293003  0.23496268  1
  Te  Te160  1  0.24698565  0.74457837  0.55259072  1
  Te  Te161  1  0.26143292  0.77848296  0.92179536  1
  Te  Te162  1  0.60148635  0.08898308  0.23083780  1
  Te  Te163  1  0.55067166  0.05151383  0.55224399  1
  Te  Te164  1  0.59836250  0.11108502  0.93992209  1
  Te  Te165  1  0.58872070  0.45443164  0.27601597  1
  Te  Te166  1  0.61811685  0.43516241  0.53946230  1
  Te  Te167  1  0.59414593  0.42601694  0.92346130  1
  Te  Te168  1  0.58595084  0.75471497  0.28247752  1
  Te  Te169  1  0.60221672  0.75219387  0.56263510  1
  Te  Te170  1  0.58226078  0.72467866  0.90990587  1
  Te  Te171  1  0.90685402  0.08436779  0.25648821  1
  Te  Te172  1  0.90436691  0.07472862  0.56549955  1
  Te  Te173  1  0.93803668  0.10087764  0.92860389  1
  Te  Te174  1  0.87772826  0.44778117  0.26742327  1
  Te  Te175  1  0.89475425  0.40529474  0.57201461  1
  Te  Te176  1  0.88607634  0.40395312  0.91839286  1
  Te  Te177  1  0.92965064  0.72529498  0.24484048  1
  Te  Te178  1  0.91209898  0.73749559  0.59553241  1
  Te  Te179  1  0.91937040  0.74042056  0.95209550  1
