# generated using pymatgen
data_In2Te3
_symmetry_space_group_name_H-M   'P 1'
_cell_length_a   18.77946223
_cell_length_b   18.77821123
_cell_length_c   18.77158912
_cell_angle_alpha   90.04955255
_cell_angle_beta   90.03928983
_cell_angle_gamma   89.97554158
_symmetry_Int_Tables_number   1
_chemical_formula_structural   In2Te3
_chemical_formula_sum   'In72 Te108'
_cell_volume   6619.69693675
_cell_formula_units_Z   36
loop_
 _symmetry_equiv_pos_site_id
 _symmetry_equiv_pos_as_xyz
  1  'x, y, z'
loop_
 _atom_site_type_symbol
 _atom_site_label
 _atom_site_symmetry_multiplicity
 _atom_site_fract_x
 _atom_site_fract_y
 _atom_site_fract_z
 _atom_site_occupancy
  In  In0  1  0.18465021  0.49182080  0.31602495  1
  In  In1  1  0.51488400  0.00773200  0.83438265  1
  In  In2  1  0.17039191  0.67859352  0.52550273  1
  In  In3  1  -0.01848642  0.28081778  0.35348010  1
  In  In4  1  0.34980731  0.67420007  0.32153497  1
  In  In5  1  0.65047394  0.33413670  0.31011301  1
  In  In6  1  0.83553919  0.50648323  0.34573921  1
  In  In7  1  0.66032991  0.82577401  0.49460263  1
  In  In8  1  0.83178104  -0.00508963  0.85238327  1
  In  In9  1  0.34004260  0.16365414  0.50377296  1
  In  In10  1  0.65491403  0.14957438  0.49314291  1
  In  In11  1  0.17891917  0.00814673  0.48285499  1
  In  In12  1  0.67159686  0.51030932  0.86431447  1
  In  In13  1  0.34158537  0.31810853  0.66512461  1
  In  In14  1  0.18373412  0.83834226  0.34551765  1
  In  In15  1  0.16206185  0.32341298  0.49777724  1
  In  In16  1  0.82751143  0.67026962  0.17348900  1
  In  In17  1  0.00389993  0.32510439  0.64550425  1
  In  In18  1  -0.01332424  0.00646696  0.34277080  1
  In  In19  1  0.18046878  0.84858827  0.68201253  1
  In  In20  1  -0.00446165  0.82429611  0.14817303  1
  In  In21  1  0.47877589  0.50149833  0.66170429  1
  In  In22  1  0.16462610  0.82375557  0.00030994  1
  In  In23  1  0.62297801  0.48657346  0.16552373  1
  In  In24  1  0.67046114  0.85748216  0.18570744  1
  In  In25  1  0.34886889  0.48867887  0.15486328  1
  In  In26  1  0.36213113  0.48594553  0.46139975  1
  In  In27  1  0.83287666  0.32429788  0.18505167  1
  In  In28  1  0.66800986  0.69170957  0.66824860  1
  In  In29  1  -0.01897837  0.52195344  0.81861894  1
  In  In30  1  -0.00420425  0.50866375  0.49372745  1
  In  In31  1  0.50177461  0.81372987  -0.00284798  1
  In  In32  1  0.65127064  0.67411944  0.34287989  1
  In  In33  1  0.51052189  0.84161006  0.33696728  1
  In  In34  1  0.80249094  0.52299562  -0.00558182  1
  In  In35  1  0.36526122  0.17800062  0.84860142  1
  In  In36  1  0.65724726  0.30918302  0.66560193  1
  In  In37  1  0.82102929  0.01036219  0.50499222  1
  In  In38  1  0.50795765  0.48320730  0.00613154  1
  In  In39  1  0.18766861  0.49172591  -0.00347984  1
  In  In40  1  0.49719552  0.01212766  0.16543409  1
  In  In41  1  0.50033300  0.17009066  0.32152221  1
  In  In42  1  0.15261175  0.49982769  0.64242049  1
  In  In43  1  0.49805219  -0.01976201  0.51105651  1
  In  In44  1  0.00724639  0.00998052  0.66422564  1
  In  In45  1  0.00859388  0.48897996  0.14859583  1
  In  In46  1  -0.00126152  0.15676305  0.17543067  1
  In  In47  1  0.65077366  -0.01402298  0.66331847  1
  In  In48  1  0.19522228  0.18076865  0.32145387  1
  In  In49  1  0.35351907  0.82227066  0.15446003  1
  In  In50  1  0.01040401  0.01097576  0.01743390  1
  In  In51  1  0.01121876  0.34268747  -0.00945541  1
  In  In52  1  -0.00717512  0.65910086  0.31973591  1
  In  In53  1  0.33102541  0.67432715  0.66316584  1
  In  In54  1  0.84351465  0.16513370  0.66480344  1
  In  In55  1  0.83647834  0.52056767  0.65426867  1
  In  In56  1  -0.02193455  0.82874440  0.83051697  1
  In  In57  1  0.17246227  0.31954245  0.83561204  1
  In  In58  1  0.49577500  0.66838229  0.84148329  1
  In  In59  1  0.31129064  0.82646941  0.81918751  1
  In  In60  1  0.65090070  0.49273614  0.48419754  1
  In  In61  1  0.80837189  0.13319404  0.02121487  1
  In  In62  1  0.65434831  0.17126796  0.84365284  1
  In  In63  1  -0.02902161  0.81124208  0.52991669  1
  In  In64  1  0.63587138  0.31265768  0.03330057  1
  In  In65  1  0.15782782  0.68307062  0.85156086  1
  In  In66  1  0.82139728  0.83682829  -0.01099031  1
  In  In67  1  0.17012071  0.01910901  0.18109556  1
  In  In68  1  0.35698708  0.01812599  0.01143191  1
  In  In69  1  0.19009685  0.01230858  0.83387838  1
  In  In70  1  0.82068405  0.32604651  0.81221489  1
  In  In71  1  0.32039216  0.48336581  0.83708398  1
  Te  Te72  1  0.10914031  0.11246443  0.07721829  1
  Te  Te73  1  0.08939946  0.10233523  0.40325058  1
  Te  Te74  1  0.08582639  0.08834202  0.76109896  1
  Te  Te75  1  0.11340707  0.39449981  0.09196898  1
  Te  Te76  1  0.08109344  0.41693595  0.40690558  1
  Te  Te77  1  0.08303092  0.41924982  0.75426627  1
  Te  Te78  1  0.08491158  0.72925817  0.08059426  1
  Te  Te79  1  0.07853118  0.75012346  0.41715683  1
  Te  Te80  1  0.07794150  0.75174964  0.74147759  1
  Te  Te81  1  0.44493257  0.12574946  0.07456452  1
  Te  Te82  1  0.42414808  0.07390932  0.41282991  1
  Te  Te83  1  0.42473205  0.08722767  0.74791486  1
  Te  Te84  1  0.42099878  0.37343103  0.07065912  1
  Te  Te85  1  0.45876772  0.40694323  0.38424047  1
  Te  Te86  1  0.42545352  0.40129308  0.76401809  1
  Te  Te87  1  0.43209935  0.71825895  0.08676493  1
  Te  Te88  1  0.42091209  0.75811302  0.42083171  1
  Te  Te89  1  0.42709880  0.76209552  0.74137034  1
  Te  Te90  1  0.73292183  0.05563464  0.12100681  1
  Te  Te91  1  0.74819928  0.08366175  0.39902801  1
  Te  Te92  1  0.74434217  0.08487963  0.74880133  1
  Te  Te93  1  0.74819716  0.41248862  0.08996373  1
  Te  Te94  1  0.74879326  0.40083000  0.41065780  1
  Te  Te95  1  0.73778365  0.42986105  0.73740568  1
  Te  Te96  1  0.73593821  0.75579935  0.08897327  1
  Te  Te97  1  0.75489852  0.76064021  0.39946533  1
  Te  Te98  1  0.77719128  0.76123785  0.73975933  1
  Te  Te99  1  0.08694849  0.26034827  0.24687225  1
  Te  Te100  1  0.09973317  0.22787343  0.58998817  1
  Te  Te101  1  0.08310049  0.23570958  0.91927208  1
  Te  Te102  1  0.09428786  0.58415248  0.23356745  1
  Te  Te103  1  0.05422193  0.60613305  0.59693738  1
  Te  Te104  1  0.07811779  0.57515246  0.92417523  1
  Te  Te105  1  0.08012813  0.91635274  0.24887255  1
  Te  Te106  1  0.08307760  0.91033460  0.57114083  1
  Te  Te107  1  0.08487058  0.92038166  0.91026623  1
  Te  Te108  1  0.38375129  0.22565941  0.23641042  1
  Te  Te109  1  0.43624353  0.25466706  0.57240143  1
  Te  Te110  1  0.41747492  0.27671598  0.94604570  1
  Te  Te111  1  0.43065865  0.57161990  0.25128938  1
  Te  Te112  1  0.41239006  0.59417958  0.56079662  1
  Te  Te113  1  0.41094294  0.57133130  0.92317684  1
  Te  Te114  1  0.40982612  0.92274005  0.25334449  1
  Te  Te115  1  0.40240097  0.88474666  0.56771149  1
  Te  Te116  1  0.40495010  0.91007739  0.91606129  1
  Te  Te117  1  0.73874128  0.23154842  0.24881317  1
  Te  Te118  1  0.75848735  0.24845571  0.56854130  1
  Te  Te119  1  0.75516288  0.25287754  0.92979017  1
  Te  Te120  1  0.73787572  0.56706243  0.24516673  1
  Te  Te121  1  0.73362025  0.59136475  0.56650775  1
  Te  Te122  1  0.75090408  0.62909373  0.90412127  1
  Te  Te123  1  0.77100664  0.95508356  0.23316797  1
  Te  Te124  1  0.75397499  0.90313498  0.58966631  1
  Te  Te125  1  0.72271164  0.92081669  0.91604735  1
  Te  Te126  1  0.29006576  0.27945143  0.13383558  1
  Te  Te127  1  0.27687694  0.27256215  0.41323665  1
  Te  Te128  1  0.25215570  0.22717962  0.74574740  1
  Te  Te129  1  0.25858010  0.58383837  0.08647033  1
  Te  Te130  1  0.24212545  0.58735488  0.42338724  1
  Te  Te131  1  0.23875376  0.58695668  0.74950872  1
  Te  Te132  1  0.24885477  0.92402956  0.08260586  1
  Te  Te133  1  0.28020449  0.92853378  0.40969938  1
  Te  Te134  1  0.28455698  0.94981450  0.73110166  1
  Te  Te135  1  0.57241752  0.20835911  0.11689146  1
  Te  Te136  1  0.57344782  0.25823134  0.42310975  1
  Te  Te137  1  0.56087900  0.24576041  0.75617241  1
  Te  Te138  1  0.59763934  0.58775398  0.06257591  1
  Te  Te139  1  0.55905405  0.57117111  0.39624384  1
  Te  Te140  1  0.58099971  0.57676778  0.74865656  1
  Te  Te141  1  0.57975737  0.91934965  0.07685704  1
  Te  Te142  1  0.60369427  0.93888358  0.40753825  1
  Te  Te143  1  0.58435338  0.89804173  0.76095616  1
  Te  Te144  1  0.91537541  0.24838062  0.07994974  1
  Te  Te145  1  0.89162224  0.23595252  0.45623428  1
  Te  Te146  1  0.93634771  0.24358737  0.75854526  1
  Te  Te147  1  0.91468278  0.58723044  0.07855719  1
  Te  Te148  1  0.90042894  0.61249380  0.43347210  1
  Te  Te149  1  0.88901121  0.62055681  0.75428271  1
  Te  Te150  1  0.90377685  0.92894922  0.08597683  1
  Te  Te151  1  0.90817525  0.90650252  0.42782641  1
  Te  Te152  1  0.90404231  0.92401945  0.73733623  1
  Te  Te153  1  0.28599388  0.08955074  0.24310598  1
  Te  Te154  1  0.24638560  0.08575300  0.58875038  1
  Te  Te155  1  0.25787373  0.10503981  0.93479771  1
  Te  Te156  1  0.27239187  0.39255784  0.24779161  1
  Te  Te157  1  0.26590750  0.42513477  0.57654361  1
  Te  Te158  1  0.27138985  0.37635524  0.93780684  1
  Te  Te159  1  0.24522821  0.74908945  0.23820732  1
  Te  Te160  1  0.27286504  0.78849529  0.56865957  1
  Te  Te161  1  0.27294618  0.73509032  0.93620840  1
  Te  Te162  1  0.60210835  0.09101090  0.24171038  1
  Te  Te163  1  0.56218709  0.09111126  0.59884949  1
  Te  Te164  1  0.57696818  0.09083511  0.94064970  1
  Te  Te165  1  0.52893746  0.39662507  0.24300230  1
  Te  Te166  1  0.57075572  0.40804797  0.58304515  1
  Te  Te167  1  0.58850411  0.39263119  0.90945343  1
  Te  Te168  1  0.57331909  0.74744069  0.23463326  1
  Te  Te169  1  0.56642836  0.74590480  0.57612352  1
  Te  Te170  1  0.59984945  0.75618534  0.90063740  1
  Te  Te171  1  0.89579622  0.08793546  0.25729065  1
  Te  Te172  1  0.93552733  0.09967940  0.55984214  1
  Te  Te173  1  0.92136890  0.09497787  0.92344642  1
  Te  Te174  1  0.92907876  0.41819927  0.26071553  1
  Te  Te175  1  0.90452732  0.41177637  0.56878335  1
  Te  Te176  1  0.90198232  0.42503940  0.90977805  1
  Te  Te177  1  0.90510043  0.76980804  0.25955935  1
  Te  Te178  1  0.87503323  0.74372162  0.61914110  1
  Te  Te179  1  0.93029178  0.74652249  0.94248246  1
