# generated using pymatgen
data_In2Te3
_symmetry_space_group_name_H-M   'P 1'
_cell_length_a   18.78509286
_cell_length_b   18.78191267
_cell_length_c   18.78259348
_cell_angle_alpha   90.08859314
_cell_angle_beta   90.01439452
_cell_angle_gamma   90.00770224
_symmetry_Int_Tables_number   1
_chemical_formula_structural   In2Te3
_chemical_formula_sum   'In72 Te108'
_cell_volume   6626.86594297
_cell_formula_units_Z   36
loop_
 _symmetry_equiv_pos_site_id
 _symmetry_equiv_pos_as_xyz
  1  'x, y, z'
loop_
 _atom_site_type_symbol
 _atom_site_label
 _atom_site_symmetry_multiplicity
 _atom_site_fract_x
 _atom_site_fract_y
 _atom_site_fract_z
 _atom_site_occupancy
  In  In0  1  0.32793150  0.14759263  0.15089842  1
  In  In1  1  0.67595819  0.47157528  0.47027680  1
  In  In2  1  0.64133664  -0.00474994  0.66918447  1
  In  In3  1  0.50556547  0.33196045  0.15752253  1
  In  In4  1  0.50145503  0.14555892  0.66878571  1
  In  In5  1  0.15623215  0.29917064  0.14477986  1
  In  In6  1  0.83330236  0.84017174  0.02349221  1
  In  In7  1  -0.00557679  0.66155659  0.68069700  1
  In  In8  1  0.83851851  0.48688940  -0.01351352  1
  In  In9  1  0.47105132  -0.00729783  0.82861852  1
  In  In10  1  0.66658219  0.32176940  0.00943496  1
  In  In11  1  0.49710114  0.68786301  0.84295619  1
  In  In12  1  0.67008627  0.16880758  0.82704835  1
  In  In13  1  0.49181427  0.83680766  0.67718603  1
  In  In14  1  0.02621027  0.86343496  0.85486455  1
  In  In15  1  0.66461777  0.65968011  0.31968119  1
  In  In16  1  0.86802607  0.01879158  0.88279517  1
  In  In17  1  0.82976524  0.16220047  0.64256131  1
  In  In18  1  0.81662307  0.67547791  0.17215954  1
  In  In19  1  0.29511605  0.01465854  0.70053499  1
  In  In20  1  0.16416463  0.01499815  0.50424262  1
  In  In21  1  0.28765711  0.46848850  0.85496428  1
  In  In22  1  0.16682695  0.67923313  0.83580634  1
  In  In23  1  0.50820072  0.50805815  0.00007535  1
  In  In24  1  0.52019459  0.13273357  0.30353010  1
  In  In25  1  0.67741519  0.33593539  0.32516078  1
  In  In26  1  0.66610077  0.50786483  0.84433687  1
  In  In27  1  0.16749671  0.82855178  0.35267077  1
  In  In28  1  0.00099964  -0.00361918  0.33614572  1
  In  In29  1  0.01632258  0.30708325  0.69276224  1
  In  In30  1  0.83696436  0.02341978  0.49442384  1
  In  In31  1  0.01390907  0.47408192  0.15668931  1
  In  In32  1  0.15733897  0.50577315  0.33645316  1
  In  In33  1  0.31200192  0.29657859  0.69355050  1
  In  In34  1  0.83206698  0.31867686  0.84552449  1
  In  In35  1  0.50965274  0.32593084  0.51041823  1
  In  In36  1  0.85192907  0.31308580  0.15365025  1
  In  In37  1  0.67363688  0.00564602  0.01766920  1
  In  In38  1  0.67150921  0.67923392  0.65692806  1
  In  In39  1  0.31509650  0.51140441  0.49592001  1
  In  In40  1  0.00830132  0.15655549  0.15071118  1
  In  In41  1  0.50319438  0.50205943  0.33534433  1
  In  In42  1  0.87201517  0.50310290  0.65646225  1
  In  In43  1  0.14866812  0.31330874  0.52150873  1
  In  In44  1  0.49987037  0.00682816  0.48472195  1
  In  In45  1  0.81135362  0.85823653  0.29034742  1
  In  In46  1  0.01823451  0.84820736  0.51098029  1
  In  In47  1  0.31750344  0.86989300  0.14517166  1
  In  In48  1  0.33239454  0.68461108  0.65733385  1
  In  In49  1  0.18368169  0.68805765  0.50709002  1
  In  In50  1  0.86075766  0.85185711  0.70157885  1
  In  In51  1  0.69167139  0.31849974  0.65600915  1
  In  In52  1  0.16188743  0.13893367  -0.01739332  1
  In  In53  1  0.51721621  0.66532471  0.16531714  1
  In  In54  1  0.83550237  0.65438421  0.81337883  1
  In  In55  1  -0.01542636  0.48525176  0.49681316  1
  In  In56  1  0.84209918  0.65308602  0.48082755  1
  In  In57  1  0.34482242  0.50416480  0.14129271  1
  In  In58  1  0.66432896  0.84953492  0.49896172  1
  In  In59  1  0.14521933  0.48468194  0.67863531  1
  In  In60  1  0.32648406  0.67258553  -0.00536537  1
  In  In61  1  0.83907539  0.17331263  0.33496651  1
  In  In62  1  0.17701348  0.67852131  0.16939302  1
  In  In63  1  0.00447758  0.66820516  -0.00767686  1
  In  In64  1  0.51436551  0.84767222  -0.00507708  1
  In  In65  1  -0.00810572  0.84719596  0.14771458  1
  In  In66  1  0.47309289  0.17365254  -0.01062631  1
  In  In67  1  0.47869798  0.84998142  0.31938445  1
  In  In68  1  0.46416678  0.48865896  0.67845237  1
  In  In69  1  0.30332778  0.32895726  0.32345645  1
  In  In70  1  0.16459024  0.16680849  0.32103330  1
  In  In71  1  0.35009371  0.84682387  0.49840697  1
  Te  Te72  1  0.12160079  0.06397732  0.11327190  1
  Te  Te73  1  0.06666417  0.10282074  0.42080672  1
  Te  Te74  1  0.13306859  0.11136279  0.80404611  1
  Te  Te75  1  0.08728909  0.39558021  0.05018730  1
  Te  Te76  1  0.08059448  0.39804213  0.41310876  1
  Te  Te77  1  0.09759207  0.39398614  0.78562154  1
  Te  Te78  1  0.09499333  0.76209063  0.07114717  1
  Te  Te79  1  0.06652948  0.73497794  0.41980103  1
  Te  Te80  1  0.08213738  0.76684576  0.74278351  1
  Te  Te81  1  0.40295808  0.05913589  0.05614055  1
  Te  Te82  1  0.41738490  0.09746710  0.40328706  1
  Te  Te83  1  0.39318527  0.12130829  0.78018764  1
  Te  Te84  1  0.41439084  0.39864091  0.05508726  1
  Te  Te85  1  0.40770313  0.41053429  0.41574951  1
  Te  Te86  1  0.40165063  0.39165870  0.77675491  1
  Te  Te87  1  0.41532189  0.75402966  0.08958896  1
  Te  Te88  1  0.42455958  0.75095530  0.41582922  1
  Te  Te89  1  0.39140334  0.77074148  0.77042160  1
  Te  Te90  1  0.77190241  0.07543414  0.10247972  1
  Te  Te91  1  0.74318332  0.07691224  0.39623803  1
  Te  Te92  1  0.75246991  0.06981807  0.74562351  1
  Te  Te93  1  0.75348057  0.41587977  0.09077225  1
  Te  Te94  1  0.78925765  0.39273469  0.41151425  1
  Te  Te95  1  0.75901834  0.42528714  0.75369986  1
  Te  Te96  1  0.72839193  0.76482851  0.09442278  1
  Te  Te97  1  0.75181019  0.75745327  0.41097239  1
  Te  Te98  1  0.74468670  0.76467538  0.75913688  1
  Te  Te99  1  0.06007431  0.25716568  0.25649774  1
  Te  Te100  1  0.08702642  0.20823591  0.60557252  1
  Te  Te101  1  0.07177338  0.22253625  0.89230121  1
  Te  Te102  1  0.07466677  0.59264115  0.24274419  1
  Te  Te103  1  0.08638920  0.58235288  0.57416148  1
  Te  Te104  1  0.09134859  0.57861322  0.91265126  1
  Te  Te105  1  0.09093005  0.91035369  0.24966065  1
  Te  Te106  1  0.08753856  0.93634791  0.60513622  1
  Te  Te107  1  0.09835978  0.94516511  0.95431315  1
  Te  Te108  1  0.40899708  0.25033015  0.24491269  1
  Te  Te109  1  0.41161113  0.23982597  0.58655965  1
  Te  Te110  1  0.39661112  0.23655136  0.88010637  1
  Te  Te111  1  0.41224512  0.58971567  0.24918707  1
  Te  Te112  1  0.42050168  0.59140513  0.57305415  1
  Te  Te113  1  0.40683855  0.57461603  0.90220608  1
  Te  Te114  1  0.40124688  0.94836878  0.23966132  1
  Te  Te115  1  0.41513393  0.94670927  0.60463558  1
  Te  Te116  1  0.39925403  0.92799249  0.94228511  1
  Te  Te117  1  0.74307310  0.23677764  0.22989525  1
  Te  Te118  1  0.74874542  0.24088956  0.54189989  1
  Te  Te119  1  0.75806427  0.22141561  0.93999280  1
  Te  Te120  1  0.76651607  0.56981527  0.26377869  1
  Te  Te121  1  0.75455344  0.57071348  0.58328547  1
  Te  Te122  1  0.75202104  0.60089666  0.92982014  1
  Te  Te123  1  0.74358386  0.96064070  0.20110601  1
  Te  Te124  1  0.76102777  0.91489445  0.59820566  1
  Te  Te125  1  0.75596364  0.92302347  0.91602236  1
  Te  Te126  1  0.26304376  0.24336155  0.05014168  1
  Te  Te127  1  0.24858245  0.23767110  0.43026831  1
  Te  Te128  1  0.20061494  0.25329976  0.78369854  1
  Te  Te129  1  0.23196943  0.57736144  0.06817342  1
  Te  Te130  1  0.25519581  0.60788231  0.39600750  1
  Te  Te131  1  0.25689924  0.57813517  0.73901988  1
  Te  Te132  1  0.20620177  0.93815265  0.06940726  1
  Te  Te133  1  0.25874969  0.93460915  0.41364192  1
  Te  Te134  1  0.22608189  0.92649039  0.79554081  1
  Te  Te135  1  0.58233831  0.22039140  0.08768644  1
  Te  Te136  1  0.57402552  0.24887406  0.39723698  1
  Te  Te137  1  0.58047754  0.25729492  0.74174570  1
  Te  Te138  1  0.60473462  0.57475598  0.08859004  1
  Te  Te139  1  0.58529150  0.58915685  0.43055069  1
  Te  Te140  1  0.57522327  0.58853238  0.74617066  1
  Te  Te141  1  0.56729011  0.93919525  0.10311877  1
  Te  Te142  1  0.59485005  0.93029634  0.39279722  1
  Te  Te143  1  0.58525839  0.90240274  0.77740703  1
  Te  Te144  1  0.93993910  0.24461615  0.04874872  1
  Te  Te145  1  0.88197975  0.26439984  0.44483113  1
  Te  Te146  1  0.91008024  0.21832810  0.76075945  1
  Te  Te147  1  0.91764913  0.58479005  0.08640924  1
  Te  Te148  1  0.91788082  0.56477318  0.39105929  1
  Te  Te149  1  0.94667023  0.55452211  0.77860717  1
  Te  Te150  1  0.92852788  0.94920142  0.05915005  1
  Te  Te151  1  0.90914697  0.90241410  0.41689333  1
  Te  Te152  1  0.94750375  0.96151727  0.76430913  1
  Te  Te153  1  0.24986059  0.06836104  0.25038512  1
  Te  Te154  1  0.24912568  0.10206562  0.59226017  1
  Te  Te155  1  0.24724461  0.04523335  0.89112363  1
  Te  Te156  1  0.23544458  0.42311019  0.22460160  1
  Te  Te157  1  0.25670355  0.40899755  0.59295348  1
  Te  Te158  1  0.22346166  0.39148041  0.96177995  1
  Te  Te159  1  0.26700219  0.76849849  0.25182267  1
  Te  Te160  1  0.24356846  0.79410666  0.59699939  1
  Te  Te161  1  0.24868011  0.77215601  0.91710043  1
  Te  Te162  1  0.60755662  0.05038726  0.21591965  1
  Te  Te163  1  0.60030312  0.09523397  0.56316342  1
  Te  Te164  1  0.57896538  0.07781672  0.90910192  1
  Te  Te165  1  0.59306793  0.42934319  0.23622105  1
  Te  Te166  1  0.58520809  0.42833399  0.59595080  1
  Te  Te167  1  0.58097705  0.40052659  0.91114595  1
  Te  Te168  1  0.59196018  0.77115211  0.24594220  1
  Te  Te169  1  0.56846421  0.75601941  0.57320288  1
  Te  Te170  1  0.59712542  0.73976756  0.93706319  1
  Te  Te171  1  0.91406073  0.07534890  0.23985255  1
  Te  Te172  1  0.94041883  0.08364860  0.58043057  1
  Te  Te173  1  0.95381308  0.11668153  0.95522069  1
  Te  Te174  1  0.92390494  0.40229643  0.24811721  1
  Te  Te175  1  0.92306972  0.37859453  0.58905944  1
  Te  Te176  1  0.93404964  0.39863676  0.91850139  1
  Te  Te177  1  0.91991996  0.75878361  0.25055960  1
  Te  Te178  1  0.90395752  0.74733158  0.59148156  1
  Te  Te179  1  0.91677991  0.75779109  0.90302818  1
