# generated using pymatgen
data_In2Te3
_symmetry_space_group_name_H-M   'P 1'
_cell_length_a   18.96732261
_cell_length_b   18.97307787
_cell_length_c   19.00494021
_cell_angle_alpha   90.14125904
_cell_angle_beta   90.07075740
_cell_angle_gamma   90.01775623
_symmetry_Int_Tables_number   1
_chemical_formula_structural   In2Te3
_chemical_formula_sum   'In72 Te108'
_cell_volume   6839.25277935
_cell_formula_units_Z   36
loop_
 _symmetry_equiv_pos_site_id
 _symmetry_equiv_pos_as_xyz
  1  'x, y, z'
loop_
 _atom_site_type_symbol
 _atom_site_label
 _atom_site_symmetry_multiplicity
 _atom_site_fract_x
 _atom_site_fract_y
 _atom_site_fract_z
 _atom_site_occupancy
  In  In0  1  0.50414752  0.33055119  0.83851345  1
  In  In1  1  0.17000944  0.00042722  0.19029764  1
  In  In2  1  0.67431837  0.01362514  0.66706472  1
  In  In3  1  0.65329971  0.81054097  0.49077344  1
  In  In4  1  0.33719143  0.03117305  0.01273590  1
  In  In5  1  0.31803943  -0.02005913  0.66540048  1
  In  In6  1  0.49468766  0.02029973  0.15576370  1
  In  In7  1  0.00808818  0.00273724  0.65713874  1
  In  In8  1  -0.01932074  0.16132310  0.16571257  1
  In  In9  1  0.14077627  0.34290227  0.16653823  1
  In  In10  1  0.03199622  0.35982017  0.36556025  1
  In  In11  1  0.45979515  0.46347394  0.12184926  1
  In  In12  1  0.68347788  0.16613090  0.82176367  1
  In  In13  1  0.47695275  0.64192724  0.84262718  1
  In  In14  1  0.65814367  0.63796619  0.32663072  1
  In  In15  1  0.67044808  -0.02323815  0.33034589  1
  In  In16  1  0.16652748  0.68423329  0.82531000  1
  In  In17  1  0.49640793  0.83113095  0.64862309  1
  In  In18  1  0.86234472  0.68791205  0.52846845  1
  In  In19  1  0.83858685  0.00094129  0.13425603  1
  In  In20  1  0.29631965  0.46497428  0.89182109  1
  In  In21  1  0.00236155  -0.01854685  0.32350644  1
  In  In22  1  0.00656216  -0.02188406  -0.00597521  1
  In  In23  1  0.00580598  0.49887383  0.81919394  1
  In  In24  1  0.84445916  0.82134684  0.31812560  1
  In  In25  1  0.50076373  0.50774033  0.65381096  1
  In  In26  1  0.15550228  0.83744485  0.67134690  1
  In  In27  1  0.64837783  0.03667169  -0.00122657  1
  In  In28  1  0.83827763  0.67619029  0.15924057  1
  In  In29  1  0.85807847  0.50631068  0.66151978  1
  In  In30  1  0.34573057  -0.00600805  0.33674277  1
  In  In31  1  0.00335300  0.66430234  0.00088321  1
  In  In32  1  0.83874903  0.50267616  0.34330261  1
  In  In33  1  0.19628941  -0.00704424  0.48757177  1
  In  In34  1  0.50628082  0.01207415  0.84039804  1
  In  In35  1  0.30475667  0.64464442  0.31938409  1
  In  In36  1  0.01804716  0.17354023  0.49027289  1
  In  In37  1  0.16509191  0.22527188  -0.01658337  1
  In  In38  1  0.32908988  0.66477284  0.66996897  1
  In  In39  1  0.14908165  0.67029801  0.51614842  1
  In  In40  1  0.49868117  0.79473668  0.33668139  1
  In  In41  1  0.83072417  -0.01469261  0.51131046  1
  In  In42  1  0.83424293  0.18631073  0.00311831  1
  In  In43  1  0.49128864  0.84254012  -0.00706610  1
  In  In44  1  0.64298232  0.35531416  0.31187223  1
  In  In45  1  0.65390461  0.49491496  0.49656535  1
  In  In46  1  0.81905074  0.18943424  0.34905733  1
  In  In47  1  0.70484819  0.49335377  0.82581751  1
  In  In48  1  0.85207260  0.34168524  0.80876163  1
  In  In49  1  0.68073621  0.83511389  0.85576125  1
  In  In50  1  0.83384799  0.49738376  -0.00323978  1
  In  In51  1  0.68274787  0.20096133  0.52956522  1
  In  In52  1  0.33285166  0.34918249  0.67648342  1
  In  In53  1  0.50227227  0.66105312  0.17585877  1
  In  In54  1  0.03546789  0.61819656  0.32230348  1
  In  In55  1  0.67426742  0.69100766  0.67149871  1
  In  In56  1  0.33654103  0.35129526  0.32171543  1
  In  In57  1  0.47831351  0.17006589  0.32014332  1
  In  In58  1  -0.00452911  0.33495067  0.64868322  1
  In  In59  1  0.47910750  0.33473299  0.48074415  1
  In  In60  1  0.85943939  0.82176847  0.00600395  1
  In  In61  1  0.62954552  0.32299046  0.02685232  1
  In  In62  1  0.86589355  -0.01053925  0.82705308  1
  In  In63  1  0.19891864  0.18145903  0.32244687  1
  In  In64  1  0.14917414  0.16542507  0.67562816  1
  In  In65  1  0.18424884  0.51391541  0.65592691  1
  In  In66  1  0.33051937  0.19363070  0.86823124  1
  In  In67  1  0.32248306  0.81374795  0.18546411  1
  In  In68  1  0.29881367  0.63296648  0.02274615  1
  In  In69  1  0.16634152  0.82420712  -0.00003508  1
  In  In70  1  0.84365066  0.34627340  0.18092274  1
  In  In71  1  0.50035096  0.15599106  0.66258306  1
  Te  Te72  1  0.08008737  0.07421845  0.09260081  1
  Te  Te73  1  0.09657921  0.08135777  0.39746030  1
  Te  Te74  1  0.08271297  0.07019001  0.76290326  1
  Te  Te75  1  0.10108671  0.43086100  0.05401857  1
  Te  Te76  1  0.11653314  0.46999932  0.41500499  1
  Te  Te77  1  0.09618759  0.41598746  0.73104499  1
  Te  Te78  1  0.09958070  0.73235347  0.09224965  1
  Te  Te79  1  0.06494400  0.73117825  0.41254386  1
  Te  Te80  1  0.06659794  0.72281395  0.71902278  1
  Te  Te81  1  0.43675804  0.12563630  0.06899883  1
  Te  Te82  1  0.40416650  0.09757151  0.42158940  1
  Te  Te83  1  0.40468862  0.09236740  0.76059633  1
  Te  Te84  1  0.34528792  0.38242027  0.06779019  1
  Te  Te85  1  0.43442906  0.44106380  0.38920102  1
  Te  Te86  1  0.42258389  0.43500863  0.76496880  1
  Te  Te87  1  0.41295119  0.74425471  0.07893878  1
  Te  Te88  1  0.38753053  0.73279981  0.40570748  1
  Te  Te89  1  0.42022252  0.75247746  0.75492888  1
  Te  Te90  1  0.74029919  0.11030643  0.09466097  1
  Te  Te91  1  0.74502889  0.07768943  0.42442427  1
  Te  Te92  1  0.78293087  0.08784854  0.73996355  1
  Te  Te93  1  0.74627898  0.40560383  0.08103856  1
  Te  Te94  1  0.74458872  0.40676202  0.41282053  1
  Te  Te95  1  0.74867851  0.39746609  0.70892595  1
  Te  Te96  1  0.75042402  0.74690606  0.06546411  1
  Te  Te97  1  0.75611901  0.73425340  0.40886412  1
  Te  Te98  1  0.76362588  0.76751125  0.75761402  1
  Te  Te99  1  0.06271166  0.24122407  0.26532791  1
  Te  Te100  1  0.10847387  0.26514528  0.56693927  1
  Te  Te101  1  0.07046339  0.26932122  0.87886656  1
  Te  Te102  1  0.13052188  0.55042190  0.22622879  1
  Te  Te103  1  0.06616030  0.59467527  0.61520278  1
  Te  Te104  1  0.09468650  0.58245583  0.91046472  1
  Te  Te105  1  0.10610844  0.89399895  0.26807182  1
  Te  Te106  1  0.08851359  0.91716428  0.56040065  1
  Te  Te107  1  0.07038282  0.88190176  0.90234542  1
  Te  Te108  1  0.43535044  0.28073886  0.22981359  1
  Te  Te109  1  0.40979646  0.25087820  0.58802785  1
  Te  Te110  1  0.40311241  0.29962886  0.94694512  1
  Te  Te111  1  0.38938118  0.57025652  0.21509461  1
  Te  Te112  1  0.39215333  0.56805726  0.57610533  1
  Te  Te113  1  0.40754632  0.55740913  0.94731859  1
  Te  Te114  1  0.43405396  0.90481172  0.23766237  1
  Te  Te115  1  0.41359197  0.92218713  0.57181481  1
  Te  Te116  1  0.40068964  0.93255620  0.91376410  1
  Te  Te117  1  0.73688135  0.25668648  0.24129658  1
  Te  Te118  1  0.77281494  0.27953677  0.60811006  1
  Te  Te119  1  0.74976136  0.27064084  0.91018010  1
  Te  Te120  1  0.75760647  0.57052950  0.23594003  1
  Te  Te121  1  0.74697515  0.58987062  0.57853704  1
  Te  Te122  1  0.75990276  0.59508381  0.91497653  1
  Te  Te123  1  0.75917283  0.90879949  0.22800584  1
  Te  Te124  1  0.73372093  0.89694616  0.58621570  1
  Te  Te125  1  0.75063891  0.95209107  0.92203507  1
  Te  Te126  1  0.24807951  0.25911517  0.10511810  1
  Te  Te127  1  0.27033603  0.26213975  0.41931224  1
  Te  Te128  1  0.24880216  0.25349394  0.75675033  1
  Te  Te129  1  0.21252987  0.53198593  0.09120784  1
  Te  Te130  1  0.23119657  0.57422540  0.43264712  1
  Te  Te131  1  0.26465190  0.57422572  0.77818182  1
  Te  Te132  1  0.25887939  0.92021784  0.08823636  1
  Te  Te133  1  0.24850272  0.89669509  0.38901837  1
  Te  Te134  1  0.24061761  0.90977409  0.76570963  1
  Te  Te135  1  0.53896606  0.25107720  0.11622256  1
  Te  Te136  1  0.58772839  0.24848770  0.41300078  1
  Te  Te137  1  0.58826077  0.25199218  0.73983988  1
  Te  Te138  1  0.57602859  0.55877496  0.09587391  1
  Te  Te139  1  0.55893900  0.56254150  0.40426739  1
  Te  Te140  1  0.59153203  0.58498508  0.75378999  1
  Te  Te141  1  0.58587188  0.92387318  0.07795822  1
  Te  Te142  1  0.56696641  0.90895927  0.41687892  1
  Te  Te143  1  0.58438986  0.91968686  0.74954082  1
  Te  Te144  1  0.93234927  0.27464936  0.07859902  1
  Te  Te145  1  0.91917559  0.26995863  0.42549311  1
  Te  Te146  1  0.94245145  0.24138103  0.75065074  1
  Te  Te147  1  0.92588636  0.57092960  0.09214301  1
  Te  Te148  1  0.92510261  0.59073927  0.43104546  1
  Te  Te149  1  0.89129380  0.58423013  0.78045780  1
  Te  Te150  1  0.94449815  0.89728327  0.10634084  1
  Te  Te151  1  0.92041704  0.90052689  0.42375129  1
  Te  Te152  1  0.91412294  0.90128741  0.71730730  1
  Te  Te153  1  0.28281682  0.09066613  0.23567063  1
  Te  Te154  1  0.25136690  0.09126619  0.58686121  1
  Te  Te155  1  0.23163151  0.09453441  0.92670544  1
  Te  Te156  1  0.21025135  0.42586139  0.27628261  1
  Te  Te157  1  0.27540964  0.43457227  0.57067895  1
  Te  Te158  1  0.17858100  0.36981524  0.92284068  1
  Te  Te159  1  0.21541487  0.72043217  0.22485716  1
  Te  Te160  1  0.25325081  0.76099354  0.58308536  1
  Te  Te161  1  0.26909167  0.74251658  0.92240834  1
  Te  Te162  1  0.58953217  0.08146338  0.25706688  1
  Te  Te163  1  0.58733901  0.08115773  0.56486968  1
  Te  Te164  1  0.56657342  0.13008363  0.91386140  1
  Te  Te165  1  0.58475565  0.44819774  0.21246054  1
  Te  Te166  1  0.57484645  0.39829907  0.58198709  1
  Te  Te167  1  0.60067851  0.42053507  0.91405068  1
  Te  Te168  1  0.60735569  0.75198435  0.24097815  1
  Te  Te169  1  0.56234605  0.71982355  0.56988367  1
  Te  Te170  1  0.57182187  0.74419756  0.91035741  1
  Te  Te171  1  0.89383323  0.07888121  0.26351816  1
  Te  Te172  1  0.91927302  0.09325011  0.57150494  1
  Te  Te173  1  0.92439401  0.08991281  0.92873574  1
  Te  Te174  1  0.94297531  0.42805635  0.26092902  1
  Te  Te175  1  0.92102751  0.42434517  0.55898383  1
  Te  Te176  1  0.93053275  0.41037637  0.91835739  1
  Te  Te177  1  0.94366270  0.72878540  0.25377183  1
  Te  Te178  1  0.93448814  0.76695483  0.62614496  1
  Te  Te179  1  0.94273704  0.75969909  0.90381738  1
