# generated using pymatgen
data_In2Te3
_symmetry_space_group_name_H-M   'P 1'
_cell_length_a   18.99343370
_cell_length_b   18.98594251
_cell_length_c   18.95665072
_cell_angle_alpha   89.96841377
_cell_angle_beta   90.03158474
_cell_angle_gamma   90.20767774
_symmetry_Int_Tables_number   1
_chemical_formula_structural   In2Te3
_chemical_formula_sum   'In72 Te108'
_cell_volume   6835.87748547
_cell_formula_units_Z   36
loop_
 _symmetry_equiv_pos_site_id
 _symmetry_equiv_pos_as_xyz
  1  'x, y, z'
loop_
 _atom_site_type_symbol
 _atom_site_label
 _atom_site_symmetry_multiplicity
 _atom_site_fract_x
 _atom_site_fract_y
 _atom_site_fract_z
 _atom_site_occupancy
  In  In0  1  0.18908795  -0.02046030  0.82705968  1
  In  In1  1  0.18965427  0.64360215  0.52051080  1
  In  In2  1  0.49314696  0.51171028  0.66028951  1
  In  In3  1  0.50011954  0.87301974  0.31516332  1
  In  In4  1  0.51042505  0.02559741  0.85932989  1
  In  In5  1  0.82664829  0.87136233  0.32499565  1
  In  In6  1  0.52875763  0.32241018  0.48276173  1
  In  In7  1  0.32917149  0.32534617  0.66781589  1
  In  In8  1  0.65845852  0.68927574  0.68729387  1
  In  In9  1  0.24368822  0.84722647  -0.01192125  1
  In  In10  1  0.34649354  0.51402379  0.85699954  1
  In  In11  1  -0.00744884  0.68613970  0.30168759  1
  In  In12  1  0.82655926  0.87032555  0.70413049  1
  In  In13  1  0.83393464  0.66993165  0.48505983  1
  In  In14  1  0.49979257  0.83227802  0.65374670  1
  In  In15  1  0.01717788  0.84038818  0.82441445  1
  In  In16  1  0.16554986  -0.02578558  0.49917446  1
  In  In17  1  0.64070523  0.49612380  0.16676892  1
  In  In18  1  0.16029585  0.16849098  0.66603603  1
  In  In19  1  0.23615581  0.05926589  0.15808334  1
  In  In20  1  -0.00708081  0.32283548  0.71071609  1
  In  In21  1  0.67023993  0.01275794  0.65812774  1
  In  In22  1  0.15307461  0.32831966  0.51880253  1
  In  In23  1  0.01965872  0.48101551  0.86165127  1
  In  In24  1  0.20171028  0.46968090  0.01608785  1
  In  In25  1  0.70081640  0.49436934  0.46901434  1
  In  In26  1  0.81899379  0.16885470  0.32296967  1
  In  In27  1  0.01236710  0.68412284  0.67241913  1
  In  In28  1  0.48230367  0.01638694  0.47458529  1
  In  In29  1  0.17329512  0.31410734  0.17085745  1
  In  In30  1  0.83688989  0.51143247  -0.00165593  1
  In  In31  1  0.77457725  0.90507314  -0.01971838  1
  In  In32  1  0.82654677  0.00863935  0.14525751  1
  In  In33  1  0.02584638  0.50100110  0.14364284  1
  In  In34  1  0.82983802  0.47617330  0.31653855  1
  In  In35  1  -0.02445997  0.84361694  0.15676638  1
  In  In36  1  0.52076923  0.30600416  0.14178807  1
  In  In37  1  0.37649579  0.46912043  0.17579257  1
  In  In38  1  -0.00692805  0.47964849  0.50373286  1
  In  In39  1  -0.01895006  0.82548145  0.49589736  1
  In  In40  1  0.35088425  0.66065624  0.33399966  1
  In  In41  1  0.32135988  0.14100896  0.49143158  1
  In  In42  1  0.14713325  0.15696778  -0.01103296  1
  In  In43  1  0.83737052  0.16065404  0.71103072  1
  In  In44  1  0.00780864  0.17113042  0.15252851  1
  In  In45  1  0.49418850  0.18230063  0.68379897  1
  In  In46  1  0.81535539  0.33176134  0.49303308  1
  In  In47  1  0.34946596  0.49192384  0.50215587  1
  In  In48  1  0.32731109  0.17355788  0.85055419  1
  In  In49  1  0.66120273  0.47852359  0.83767278  1
  In  In50  1  0.66975268  0.66554494  0.33760173  1
  In  In51  1  0.79693522  0.30257219  0.14849097  1
  In  In52  1  0.35328388  0.31054490  0.32348598  1
  In  In53  1  0.03538384  0.01183336  0.33462374  1
  In  In54  1  0.81734445  0.50443392  0.69648800  1
  In  In55  1  0.81115279  0.14562089  -0.03378158  1
  In  In56  1  -0.00263909  0.32858985  0.31839842  1
  In  In57  1  0.61695704  0.72213286  -0.02129654  1
  In  In58  1  0.17772883  0.66948102  0.15531399  1
  In  In59  1  0.18623748  0.84682095  0.70077420  1
  In  In60  1  0.51289190  0.31869610  0.85640364  1
  In  In61  1  0.82187615  0.68651923  0.81771252  1
  In  In62  1  0.17512664  0.80082751  0.33731814  1
  In  In63  1  0.66175072  0.17652793  0.46953761  1
  In  In64  1  0.66047446  0.85171986  0.14198675  1
  In  In65  1  0.00693259  0.65685769  -0.01100749  1
  In  In66  1  0.48544738  0.68869006  0.14292198  1
  In  In67  1  0.34762373  0.66871577  0.69692352  1
  In  In68  1  -0.00557475  0.01038303  0.67759474  1
  In  In69  1  0.65926418  0.33110418  0.68671678  1
  In  In70  1  0.50928122  0.04042427  0.15125433  1
  In  In71  1  0.34148693  0.83644728  0.48251403  1
  Te  Te72  1  0.09263570  0.06173768  0.09742011  1
  Te  Te73  1  0.08679567  0.08582161  0.44905773  1
  Te  Te74  1  0.09076659  0.08133993  0.77016807  1
  Te  Te75  1  0.08378927  0.38550992  0.06901607  1
  Te  Te76  1  0.08712409  0.41290856  0.40711464  1
  Te  Te77  1  0.09331956  0.41899982  0.75205320  1
  Te  Te78  1  0.07641765  0.75470520  0.08354085  1
  Te  Te79  1  0.08295904  0.72882537  0.43706494  1
  Te  Te80  1  0.11405357  0.73280443  0.77270890  1
  Te  Te81  1  0.37809401  0.10581433  0.11662762  1
  Te  Te82  1  0.39163150  0.08193303  0.37259734  1
  Te  Te83  1  0.40386178  0.08736619  0.75420008  1
  Te  Te84  1  0.44850614  0.41172065  0.06151759  1
  Te  Te85  1  0.43414559  0.41336217  0.40560648  1
  Te  Te86  1  0.43806867  0.39771199  0.74403079  1
  Te  Te87  1  0.38930089  0.74376022  0.04222822  1
  Te  Te88  1  0.44237935  0.75909154  0.40393992  1
  Te  Te89  1  0.44619596  0.75048897  0.76968712  1
  Te  Te90  1  0.71875375  0.04080576  0.04223958  1
  Te  Te91  1  0.75313396  0.07763551  0.41577643  1
  Te  Te92  1  0.73951019  0.07097819  0.77932558  1
  Te  Te93  1  0.73893001  0.42211499  0.07662372  1
  Te  Te94  1  0.72999546  0.37772296  0.37580112  1
  Te  Te95  1  0.76775548  0.38687120  0.77924993  1
  Te  Te96  1  0.74544282  0.76935061  0.04584535  1
  Te  Te97  1  0.74921895  0.77129160  0.41495375  1
  Te  Te98  1  0.72014774  0.79235143  0.78056549  1
  Te  Te99  1  0.09403571  0.22519041  0.26556326  1
  Te  Te100  1  0.05078643  0.24515074  0.59383195  1
  Te  Te101  1  0.06709634  0.22521175  0.88839507  1
  Te  Te102  1  0.09316110  0.58311025  0.25094639  1
  Te  Te103  1  0.07623930  0.57175091  0.59233554  1
  Te  Te104  1  0.11669855  0.57111216  0.93488884  1
  Te  Te105  1  0.08006405  0.89040870  0.25780705  1
  Te  Te106  1  0.06904285  0.89751972  0.60482212  1
  Te  Te107  1  0.10937305  0.89882619  0.92900537  1
  Te  Te108  1  0.39995931  0.23487244  0.20369765  1
  Te  Te109  1  0.41331519  0.25242577  0.56455421  1
  Te  Te110  1  0.42797689  0.23230830  0.94688132  1
  Te  Te111  1  0.44761979  0.58353116  0.24751951  1
  Te  Te112  1  0.41717918  0.60821247  0.57287774  1
  Te  Te113  1  0.40174147  0.62051581  0.94412918  1
  Te  Te114  1  0.42341013  0.92503176  0.20141967  1
  Te  Te115  1  0.40842000  0.93173833  0.57696270  1
  Te  Te116  1  0.44115066  0.92897088  0.95129063  1
  Te  Te117  1  0.71539948  0.19743175  0.21673336  1
  Te  Te118  1  0.74096318  0.24367707  0.59185770  1
  Te  Te119  1  0.72389586  0.25783577  0.93279275  1
  Te  Te120  1  0.74893391  0.57873647  0.24172267  1
  Te  Te121  1  0.75081599  0.58601021  0.58751816  1
  Te  Te122  1  0.74492928  0.58970184  0.90572210  1
  Te  Te123  1  0.72613171  0.94684960  0.24146422  1
  Te  Te124  1  0.75801272  0.92013100  0.58587712  1
  Te  Te125  1  0.67702723  0.98125047  0.89851811  1
  Te  Te126  1  0.24479394  0.23743233  0.06820813  1
  Te  Te127  1  0.24975918  0.25766530  0.42626549  1
  Te  Te128  1  0.23446936  0.25790251  0.76436705  1
  Te  Te129  1  0.27458790  0.56413912  0.10790141  1
  Te  Te130  1  0.25484966  0.56886922  0.40699900  1
  Te  Te131  1  0.26320122  0.56202270  0.74661586  1
  Te  Te132  1  0.25530600  0.91275598  0.11743417  1
  Te  Te133  1  0.25835127  0.91998445  0.38742796  1
  Te  Te134  1  0.29861501  0.89187495  0.78268268  1
  Te  Te135  1  0.61862810  0.24239956  0.03906728  1
  Te  Te136  1  0.55192472  0.21759090  0.37782114  1
  Te  Te137  1  0.60386709  0.22319945  0.77956720  1
  Te  Te138  1  0.58647160  0.60409225  0.06768571  1
  Te  Te139  1  0.59079983  0.57356354  0.41884486  1
  Te  Te140  1  0.57857784  0.58469383  0.76208516  1
  Te  Te141  1  0.54427792  0.91481474  0.06892401  1
  Te  Te142  1  0.58746102  0.93870688  0.41159945  1
  Te  Te143  1  0.55813166  0.94619582  0.73499681  1
  Te  Te144  1  0.90024370  0.22857160  0.06568499  1
  Te  Te145  1  0.91419906  0.24700358  0.41554538  1
  Te  Te146  1  0.93379803  0.22400644  0.80738125  1
  Te  Te147  1  0.91804701  0.59575361  0.09594835  1
  Te  Te148  1  0.91728477  0.57177305  0.40302623  1
  Te  Te149  1  0.92744107  0.58577220  0.76117627  1
  Te  Te150  1  0.91571370  0.92951241  0.04823933  1
  Te  Te151  1  0.92353845  0.93954910  0.41928585  1
  Te  Te152  1  0.91142652  0.95181225  0.80275527  1
  Te  Te153  1  0.25211680  0.07309609  0.30390022  1
  Te  Te154  1  0.24540462  0.06350493  0.59739097  1
  Te  Te155  1  0.25851299  0.06625666  0.93005387  1
  Te  Te156  1  0.25878581  0.40794486  0.25331709  1
  Te  Te157  1  0.24568486  0.42510725  0.59074846  1
  Te  Te158  1  0.28320268  0.39767041  0.91910088  1
  Te  Te159  1  0.27789360  0.75111712  0.23773200  1
  Te  Te160  1  0.25331673  0.76470797  0.58489007  1
  Te  Te161  1  0.27690220  0.71577399  0.93206367  1
  Te  Te162  1  0.58506127  0.11714199  0.25194670  1
  Te  Te163  1  0.56770249  0.10458486  0.57674205  1
  Te  Te164  1  0.53801405  0.12830584  0.96676269  1
  Te  Te165  1  0.58059057  0.39072086  0.24761730  1
  Te  Te166  1  0.59616556  0.42310080  0.58312410  1
  Te  Te167  1  0.55828796  0.43577888  0.93536868  1
  Te  Te168  1  0.59079690  0.75711208  0.23849022  1
  Te  Te169  1  0.59367468  0.75249656  0.57437162  1
  Te  Te170  1  0.52916798  0.80939077  0.90126016  1
  Te  Te171  1  0.92172081  0.07550843  0.24346271  1
  Te  Te172  1  0.89746288  0.08662941  0.60043557  1
  Te  Te173  1  0.91283177  0.04794962  0.92750150  1
  Te  Te174  1  0.91528716  0.40179539  0.21430445  1
  Te  Te175  1  0.89465157  0.41188831  0.59686474  1
  Te  Te176  1  0.91899865  0.40867232  0.93693548  1
  Te  Te177  1  0.87670075  0.76021654  0.23578525  1
  Te  Te178  1  0.89428161  0.75214846  0.60457236  1
  Te  Te179  1  0.92286179  0.75396662  0.90847106  1
