# generated using pymatgen
data_In2Te3
_symmetry_space_group_name_H-M   'P 1'
_cell_length_a   18.93476271
_cell_length_b   18.93667253
_cell_length_c   18.93425296
_cell_angle_alpha   89.89144208
_cell_angle_beta   90.14775150
_cell_angle_gamma   89.87561258
_symmetry_Int_Tables_number   1
_chemical_formula_structural   In2Te3
_chemical_formula_sum   'In72 Te108'
_cell_volume   6789.04143948
_cell_formula_units_Z   36
loop_
 _symmetry_equiv_pos_site_id
 _symmetry_equiv_pos_as_xyz
  1  'x, y, z'
loop_
 _atom_site_type_symbol
 _atom_site_label
 _atom_site_symmetry_multiplicity
 _atom_site_fract_x
 _atom_site_fract_y
 _atom_site_fract_z
 _atom_site_occupancy
  In  In0  1  0.20193785  0.64977284  0.19629691  1
  In  In1  1  0.50519500  0.84012937  0.65829737  1
  In  In2  1  0.32953115  0.18333112  0.51009755  1
  In  In3  1  0.83142901  0.47288776  0.64428311  1
  In  In4  1  0.64762096  0.31075985  0.02458657  1
  In  In5  1  0.00492423  0.67529831  -0.00734711  1
  In  In6  1  0.51722805  0.46456579  0.31310437  1
  In  In7  1  0.16418109  0.65501164  0.50328673  1
  In  In8  1  0.00896134  0.63920860  0.67318226  1
  In  In9  1  0.53546898  0.67145651  0.83230477  1
  In  In10  1  0.16673349  0.00000791  0.19423052  1
  In  In11  1  0.49879506  0.84426146  0.34348156  1
  In  In12  1  0.33912379  0.01375331  0.36387858  1
  In  In13  1  0.33972342  0.68564274  0.03680167  1
  In  In14  1  0.39959728  0.13402310  0.14832278  1
  In  In15  1  0.83322154  0.84861299  -0.01770912  1
  In  In16  1  -0.02439268  -0.01382995  0.64646738  1
  In  In17  1  -0.01416473  0.45793381  0.15780857  1
  In  In18  1  0.33658269  0.02253463  0.66608334  1
  In  In19  1  0.83729645  0.68386190  0.14029983  1
  In  In20  1  0.72385464  0.91297749  0.44120216  1
  In  In21  1  -0.00407248  0.49766222  0.80430616  1
  In  In22  1  0.37075708  0.66002451  0.66584228  1
  In  In23  1  0.18189832  0.47759796  0.67229024  1
  In  In24  1  0.67291375  0.84317137  0.82463396  1
  In  In25  1  0.17195643  0.66724019  0.86164775  1
  In  In26  1  0.49665587  0.68857599  0.18610380  1
  In  In27  1  0.16891132  0.33432642  0.50063541  1
  In  In28  1  -0.02122171  0.32446099  0.35411335  1
  In  In29  1  0.80778701  0.84562122  0.63953642  1
  In  In30  1  0.50234625  0.00064049  0.84110767  1
  In  In31  1  -0.01927064  0.86221010  0.19694379  1
  In  In32  1  0.34855738  0.50297503  0.15471320  1
  In  In33  1  0.54455367  0.30213662  0.49424641  1
  In  In34  1  0.81370547  0.15677856  0.03686903  1
  In  In35  1  0.00609719  0.32603518  -0.01380968  1
  In  In36  1  0.67081356  0.68310581  0.00549160  1
  In  In37  1  0.66795741  0.16395920  0.82010897  1
  In  In38  1  0.50797776  0.50569701  0.01487808  1
  In  In39  1  0.17952627  -0.02033023  0.83628967  1
  In  In40  1  0.35324366  0.32717975  0.00041333  1
  In  In41  1  0.64371552  0.48212932  0.51463948  1
  In  In42  1  0.80062279  0.48366681  -0.00725090  1
  In  In43  1  0.17688081  0.32786478  0.83147788  1
  In  In44  1  0.15750640  0.85662435  0.66145999  1
  In  In45  1  -0.01221351  0.17797160  0.82970979  1
  In  In46  1  -0.00824899  0.65976226  0.32505208  1
  In  In47  1  0.79574782  0.28494989  0.18386978  1
  In  In48  1  -0.01948609  0.14486308  0.19655412  1
  In  In49  1  0.34940625  0.15256051  0.83517081  1
  In  In50  1  0.49696623  0.34254736  0.83652048  1
  In  In51  1  0.33632845  0.84346798  0.50825727  1
  In  In52  1  0.18567435  0.50133263  0.32617084  1
  In  In53  1  0.16766288  0.16515533  0.34892641  1
  In  In54  1  0.16509393  0.82564170  0.02882329  1
  In  In55  1  0.19419035  0.30997628  0.16306264  1
  In  In56  1  -0.02641089  0.84395378  0.47103790  1
  In  In57  1  0.84713293  0.67336513  0.50427458  1
  In  In58  1  0.79131564  0.31028638  0.50050463  1
  In  In59  1  0.32273409  0.83601956  0.16446094  1
  In  In60  1  0.49132506  0.66616773  0.51902370  1
  In  In61  1  0.66540739  0.10554368  0.19791507  1
  In  In62  1  0.01041708  0.02160058  -0.00633541  1
  In  In63  1  0.15341605  0.15197406  0.67371790  1
  In  In64  1  0.66059495  0.67900328  0.33175416  1
  In  In65  1  -0.02688021  0.15183246  0.48721186  1
  In  In66  1  0.63045315  0.66410851  0.66280411  1
  In  In67  1  0.51902410  0.06854546  0.49913665  1
  In  In68  1  -0.02713948  0.82981223  0.82245372  1
  In  In69  1  0.81180114  0.51853849  0.34557305  1
  In  In70  1  0.81671844  0.31627824  0.80127820  1
  In  In71  1  0.34956255  0.50109873  0.83693777  1
  Te  Te72  1  0.08639284  0.09624061  0.10131332  1
  Te  Te73  1  0.05997640  0.07485327  0.39361626  1
  Te  Te74  1  0.07032014  0.05471350  0.75745794  1
  Te  Te75  1  0.10237629  0.40071338  0.07847137  1
  Te  Te76  1  0.08532813  0.41999584  0.40590170  1
  Te  Te77  1  0.07567150  0.38852226  0.73481157  1
  Te  Te78  1  0.05950844  0.75427832  0.10949881  1
  Te  Te79  1  0.07724751  0.74583398  0.41565811  1
  Te  Te80  1  0.08824105  0.74946236  0.75638596  1
  Te  Te81  1  0.44650587  0.03709701  0.04580924  1
  Te  Te82  1  0.42485565  0.13361327  0.39898260  1
  Te  Te83  1  0.44662133  0.09970218  0.73133729  1
  Te  Te84  1  0.44408242  0.39737235  0.10053063  1
  Te  Te85  1  0.44960974  0.38404287  0.41277819  1
  Te  Te86  1  0.39295995  0.39675045  0.74595298  1
  Te  Te87  1  0.44156842  0.78736409  0.08266410  1
  Te  Te88  1  0.40969295  0.74635713  0.41747414  1
  Te  Te89  1  0.43075580  0.75969620  0.76289905  1
  Te  Te90  1  0.72818115  0.04194298  0.07494115  1
  Te  Te91  1  0.76238028  0.05180756  0.37902583  1
  Te  Te92  1  0.78602496  0.13697954  0.73313896  1
  Te  Te93  1  0.73300458  0.41352834  0.11210984  1
  Te  Te94  1  0.72332366  0.41327790  0.40599139  1
  Te  Te95  1  0.73996792  0.42887642  0.74880436  1
  Te  Te96  1  0.74160827  0.78989890  0.08906822  1
  Te  Te97  1  0.75535542  0.75772428  0.41968724  1
  Te  Te98  1  0.74031421  0.74477234  0.73232430  1
  Te  Te99  1  0.07770159  0.25852353  0.25519767  1
  Te  Te100  1  0.07969554  0.23148112  0.56665195  1
  Te  Te101  1  0.10073069  0.22877937  0.91840146  1
  Te  Te102  1  0.07043054  0.56788251  0.23231809  1
  Te  Te103  1  0.08286209  0.55080633  0.57781623  1
  Te  Te104  1  0.07690146  0.56373412  0.91706131  1
  Te  Te105  1  0.06814922  0.93981358  0.28718715  1
  Te  Te106  1  0.07883541  0.92499738  0.55363617  1
  Te  Te107  1  0.07158960  0.89542282  0.92131186  1
  Te  Te108  1  0.46719334  0.24803414  0.20913275  1
  Te  Te109  1  0.44651950  0.23077863  0.58469618  1
  Te  Te110  1  0.44314367  0.23140525  0.92545075  1
  Te  Te111  1  0.41969085  0.58300206  0.26002228  1
  Te  Te112  1  0.42095945  0.55339435  0.58115928  1
  Te  Te113  1  0.41955730  0.60042535  0.93159492  1
  Te  Te114  1  0.40447505  0.92617698  0.25623368  1
  Te  Te115  1  0.43428744  0.94669709  0.56659735  1
  Te  Te116  1  0.38841248  0.96004343  0.92465359  1
  Te  Te117  1  0.68581353  0.24051112  0.27446316  1
  Te  Te118  1  0.74122094  0.23363819  0.61943000  1
  Te  Te119  1  0.75734071  0.25672002  0.93425845  1
  Te  Te120  1  0.74881772  0.60087355  0.23547643  1
  Te  Te121  1  0.73986759  0.59060507  0.57246082  1
  Te  Te122  1  0.72934763  0.58441420  0.91415630  1
  Te  Te123  1  0.77617787  0.94358250  0.27676224  1
  Te  Te124  1  0.72175383  0.95162293  0.58722285  1
  Te  Te125  1  0.74958588  0.94055131  0.90383669  1
  Te  Te126  1  0.28170627  0.22068123  0.08054380  1
  Te  Te127  1  0.26385723  0.26936353  0.40135770  1
  Te  Te128  1  0.25802549  0.23740962  0.74097397  1
  Te  Te129  1  0.24042365  0.57610908  0.07228095  1
  Te  Te130  1  0.26081260  0.58718957  0.41715691  1
  Te  Te131  1  0.24788857  0.59350629  0.75211587  1
  Te  Te132  1  0.24761067  0.94020716  0.08055405  1
  Te  Te133  1  0.24441280  0.91930316  0.42279848  1
  Te  Te134  1  0.27580756  0.90721450  0.74386738  1
  Te  Te135  1  0.57870582  0.21125857  0.11259355  1
  Te  Te136  1  0.63191082  0.20456659  0.41813717  1
  Te  Te137  1  0.59251058  0.26996024  0.74762478  1
  Te  Te138  1  0.58752210  0.59946661  0.10194136  1
  Te  Te139  1  0.57773705  0.58472922  0.41545586  1
  Te  Te140  1  0.56199762  0.56103903  0.74142178  1
  Te  Te141  1  0.57916525  0.98588350  0.13808867  1
  Te  Te142  1  0.57520172  0.95628892  0.40891276  1
  Te  Te143  1  0.59323809  0.93680897  0.73388717  1
  Te  Te144  1  0.92222339  0.25737852  0.09377229  1
  Te  Te145  1  0.87423717  0.22679818  0.39864154  1
  Te  Te146  1  0.92628817  0.25697098  0.72245055  1
  Te  Te147  1  0.91349726  0.56504515  0.07355478  1
  Te  Te148  1  0.92822280  0.56933453  0.42918646  1
  Te  Te149  1  0.88886057  0.58475560  0.74363164  1
  Te  Te150  1  0.91986598  0.93258403  0.07758595  1
  Te  Te151  1  0.87785216  0.94312963  0.41629249  1
  Te  Te152  1  0.88273177  0.92620331  0.75170480  1
  Te  Te153  1  0.26631875  0.10071820  0.25123594  1
  Te  Te154  1  0.23500687  0.07769382  0.56821722  1
  Te  Te155  1  0.25161465  0.07735349  0.91850197  1
  Te  Te156  1  0.27531877  0.40676084  0.24742380  1
  Te  Te157  1  0.26918853  0.40819028  0.57841738  1
  Te  Te158  1  0.25643812  0.41772268  0.92434920  1
  Te  Te159  1  0.23505149  0.77265269  0.26383871  1
  Te  Te160  1  0.25207410  0.74832633  0.59723847  1
  Te  Te161  1  0.26382987  0.76621516  0.92881146  1
  Te  Te162  1  0.53691789  0.05550397  0.26022140  1
  Te  Te163  1  0.64803216  0.12687197  0.55105978  1
  Te  Te164  1  0.58771157  0.09235179  0.92001204  1
  Te  Te165  1  0.62243641  0.42590936  0.22276197  1
  Te  Te166  1  0.59358374  0.38281116  0.61117856  1
  Te  Te167  1  0.59452288  0.41749178  0.92863705  1
  Te  Te168  1  0.59881146  0.78710023  0.24471350  1
  Te  Te169  1  0.59388009  0.77039489  0.55857975  1
  Te  Te170  1  0.58049626  0.78021715  0.92711835  1
  Te  Te171  1  0.86609067  0.06838156  0.24583667  1
  Te  Te172  1  0.88620741  0.08653227  0.58779818  1
  Te  Te173  1  0.90066710  0.09578919  0.92094112  1
  Te  Te174  1  0.88654381  0.40642933  0.26054940  1
  Te  Te175  1  0.90525216  0.39275549  0.54814869  1
  Te  Te176  1  0.91195923  0.41396544  0.90557280  1
  Te  Te177  1  0.89332104  0.75684320  0.26242590  1
  Te  Te178  1  0.93634941  0.75800855  0.59755413  1
  Te  Te179  1  0.89386528  0.72991080  0.90565233  1
