# generated using pymatgen
data_In2Te3
_symmetry_space_group_name_H-M   'P 1'
_cell_length_a   18.79911486
_cell_length_b   18.80759290
_cell_length_c   18.80749818
_cell_angle_alpha   90.10294378
_cell_angle_beta   90.03141158
_cell_angle_gamma   90.05817078
_symmetry_Int_Tables_number   1
_chemical_formula_structural   In2Te3
_chemical_formula_sum   'In72 Te108'
_cell_volume   6649.67859828
_cell_formula_units_Z   36
loop_
 _symmetry_equiv_pos_site_id
 _symmetry_equiv_pos_as_xyz
  1  'x, y, z'
loop_
 _atom_site_type_symbol
 _atom_site_label
 _atom_site_symmetry_multiplicity
 _atom_site_fract_x
 _atom_site_fract_y
 _atom_site_fract_z
 _atom_site_occupancy
  In  In0  1  0.17481937  0.85108730  -0.01562470  1
  In  In1  1  0.82737863  0.01628475  0.48623872  1
  In  In2  1  -0.00023981  0.03147854  0.00073762  1
  In  In3  1  0.82266193  0.02007713  0.17760400  1
  In  In4  1  0.50402723  0.66065297  0.81506431  1
  In  In5  1  0.00821148  -0.02723740  0.65119143  1
  In  In6  1  -0.02271937  0.66380191  0.00879265  1
  In  In7  1  0.32897240  0.83450171  0.50575399  1
  In  In8  1  0.16304636  0.32242709  0.18271062  1
  In  In9  1  0.51180788  0.64722137  0.15304576  1
  In  In10  1  0.54794414  0.46285392  0.63706129  1
  In  In11  1  0.14701587  0.32490600  0.82733171  1
  In  In12  1  0.34422541  0.65602171  0.30557736  1
  In  In13  1  0.00360082  0.83200699  0.17151068  1
  In  In14  1  0.16813611  0.18098392  0.65847106  1
  In  In15  1  0.34917544  0.32045610  -0.00444133  1
  In  In16  1  0.15389290  0.82899125  0.33285950  1
  In  In17  1  0.15499165  0.32887508  0.48834868  1
  In  In18  1  -0.01787302  0.64220860  0.35483347  1
  In  In19  1  0.33008178  0.00970921  -0.00921434  1
  In  In20  1  0.33068483  0.47111984  0.16030591  1
  In  In21  1  0.13867475  0.48165352  0.33052452  1
  In  In22  1  0.85396588  0.83064088  0.67231338  1
  In  In23  1  0.69784191  0.49193243  0.79825793  1
  In  In24  1  0.33061405  0.67585206  0.65735434  1
  In  In25  1  0.51666811  0.16457984  0.67028217  1
  In  In26  1  0.50100880  0.84329640  0.33623730  1
  In  In27  1  0.66283316  0.01867994  0.00760798  1
  In  In28  1  0.36444978  0.16428009  0.49842322  1
  In  In29  1  0.34121964  0.01940696  0.35300668  1
  In  In30  1  0.35114647  0.18446626  0.17788877  1
  In  In31  1  0.81767924  0.67155349  0.82445550  1
  In  In32  1  -0.00772799  0.18157298  0.49525788  1
  In  In33  1  0.68081712  0.66273221  0.34980850  1
  In  In34  1  0.82686516  0.32299832  0.17863510  1
  In  In35  1  0.52261041  0.66259216  0.51792958  1
  In  In36  1  0.65959210  0.01068361  0.67383117  1
  In  In37  1  0.83070908  0.81851770  -0.00410793  1
  In  In38  1  0.32096783  0.87150102  0.11283823  1
  In  In39  1  0.33421681  0.53522619  0.81754470  1
  In  In40  1  0.83580734  0.47641940  0.34754089  1
  In  In41  1  0.15502603  0.66195652  0.50219816  1
  In  In42  1  0.01126830  0.66780533  0.65063792  1
  In  In43  1  -0.02032320  0.01853659  0.33912832  1
  In  In44  1  0.55534389  0.44309305  0.32676822  1
  In  In45  1  0.67304847  0.85581163  0.81627711  1
  In  In46  1  0.51756128  0.02266073  0.19392546  1
  In  In47  1  0.49677208  0.47643558  0.01057786  1
  In  In48  1  0.65323943  0.63331179  -0.01293152  1
  In  In49  1  -0.02493102  0.31918365  0.00899118  1
  In  In50  1  0.33093528  0.33309259  0.66214065  1
  In  In51  1  0.15955362  0.69252353  0.81919875  1
  In  In52  1  0.67403837  0.17424457  0.84668265  1
  In  In53  1  0.32986531  0.00953742  0.66966875  1
  In  In54  1  0.16689195  0.00597401  0.84380574  1
  In  In55  1  0.49465708  0.32683971  0.83835317  1
  In  In56  1  0.66652538  0.82156116  0.49681888  1
  In  In57  1  0.67349811  0.03644383  0.33265848  1
  In  In58  1  0.15235528  0.66884044  0.20422540  1
  In  In59  1  0.15583355  0.16654689  0.34005679  1
  In  In60  1  0.14796354  0.46907908  -0.01352939  1
  In  In61  1  0.83131881  0.33280693  0.50387783  1
  In  In62  1  0.48390587  0.84541712  -0.01466048  1
  In  In63  1  -0.01819998  0.17242223  0.83979612  1
  In  In64  1  -0.01029937  0.48637680  0.83154763  1
  In  In65  1  0.29774698  0.66708672  -0.00066444  1
  In  In66  1  0.68054722  0.32320246  0.01321229  1
  In  In67  1  0.84283529  0.64598401  0.17161160  1
  In  In68  1  0.47916007  0.02118154  0.51048298  1
  In  In69  1  0.82532481  0.19670961  0.67277926  1
  In  In70  1  0.34585737  0.48538172  0.47924589  1
  In  In71  1  0.69295662  0.85227391  0.17662530  1
  Te  Te72  1  0.09169448  0.07720079  0.10273921  1
  Te  Te73  1  0.08497247  0.07493276  0.43924640  1
  Te  Te74  1  0.07658017  0.09248996  0.74308048  1
  Te  Te75  1  0.06773543  0.40857881  0.09624428  1
  Te  Te76  1  0.05076627  0.41461691  0.42755880  1
  Te  Te77  1  0.09281256  0.42989367  0.74171148  1
  Te  Te78  1  0.09614287  0.75041672  0.07819620  1
  Te  Te79  1  0.06049007  0.75512213  0.42572415  1
  Te  Te80  1  0.06378717  0.77437211  0.74305823  1
  Te  Te81  1  0.42631129  0.08368601  0.09052742  1
  Te  Te82  1  0.46672557  0.10749175  0.37746643  1
  Te  Te83  1  0.41143420  0.10171257  0.75142194  1
  Te  Te84  1  0.44012095  0.37565883  0.11278040  1
  Te  Te85  1  0.44249563  0.38976066  0.41599177  1
  Te  Te86  1  0.42162190  0.43121906  0.74536786  1
  Te  Te87  1  0.41323456  0.74385865  0.08621212  1
  Te  Te88  1  0.41670116  0.73744379  0.41746044  1
  Te  Te89  1  0.41312521  0.75576318  0.75029271  1
  Te  Te90  1  0.75020634  0.11256769  0.08370622  1
  Te  Te91  1  0.76995943  0.12795171  0.40305055  1
  Te  Te92  1  0.76250715  0.08518876  0.75782227  1
  Te  Te93  1  0.77211646  0.42023537  0.07885870  1
  Te  Te94  1  0.72209616  0.40164263  0.41815932  1
  Te  Te95  1  0.76785978  0.39054828  0.71448675  1
  Te  Te96  1  0.73959687  0.73051060  0.08194430  1
  Te  Te97  1  0.77264272  0.73445402  0.44163069  1
  Te  Te98  1  0.73276714  0.74832949  0.72578154  1
  Te  Te99  1  0.06193687  0.25128184  0.26384091  1
  Te  Te100  1  0.06229932  0.27184331  0.59714957  1
  Te  Te101  1  0.08520811  0.24092898  0.93444145  1
  Te  Te102  1  0.04852147  0.56618584  0.23857506  1
  Te  Te103  1  0.07234716  0.55989240  0.56744367  1
  Te  Te104  1  0.08923550  0.59062740  0.91739659  1
  Te  Te105  1  0.08062003  0.93501190  0.25205580  1
  Te  Te106  1  0.10885849  0.88268931  0.59588407  1
  Te  Te107  1  0.05987176  0.91946162  0.91290147  1
  Te  Te108  1  0.43253931  0.25637066  0.28351037  1
  Te  Te109  1  0.44125781  0.26620130  0.58182114  1
  Te  Te110  1  0.43609980  0.22281516  0.92534051  1
  Te  Te111  1  0.44181548  0.55180232  0.25185788  1
  Te  Te112  1  0.41855929  0.57106623  0.58553100  1
  Te  Te113  1  0.42499900  0.59097044  0.93641192  1
  Te  Te114  1  0.40618611  0.92010089  0.24371782  1
  Te  Te115  1  0.42719489  0.90736903  0.59521749  1
  Te  Te116  1  0.41116498  0.93259446  0.89325297  1
  Te  Te117  1  0.72198855  0.25508811  0.26316750  1
  Te  Te118  1  0.72642882  0.24415698  0.56977136  1
  Te  Te119  1  0.76977382  0.27474423  0.90361136  1
  Te  Te120  1  0.74601605  0.56421385  0.25484875  1
  Te  Te121  1  0.74822081  0.51129080  0.62724303  1
  Te  Te122  1  0.76834605  0.56333072  0.91884559  1
  Te  Te123  1  0.76633889  0.92097923  0.28714173  1
  Te  Te124  1  0.75207710  0.92400560  0.58603360  1
  Te  Te125  1  0.75511725  0.92842892  0.92260741  1
  Te  Te126  1  0.24708796  0.24542762  0.08110331  1
  Te  Te127  1  0.26150399  0.24667891  0.41810978  1
  Te  Te128  1  0.26094530  0.24414904  0.76407536  1
  Te  Te129  1  0.23311811  0.57283285  0.10603894  1
  Te  Te130  1  0.24560864  0.58349486  0.39893209  1
  Te  Te131  1  0.22471071  0.58684102  0.72757403  1
  Te  Te132  1  0.20023414  0.96838323  0.08511661  1
  Te  Te133  1  0.24162006  0.92297102  0.41847413  1
  Te  Te134  1  0.22950766  0.92269530  0.73725396  1
  Te  Te135  1  0.56847067  0.27162746  0.09325574  1
  Te  Te136  1  0.53808812  0.24781918  0.39027789  1
  Te  Te137  1  0.60036362  0.26616882  0.74716527  1
  Te  Te138  1  0.60626016  0.54074176  0.09890106  1
  Te  Te139  1  0.58829303  0.56627958  0.42302653  1
  Te  Te140  1  0.59597907  0.58237334  0.72457913  1
  Te  Te141  1  0.57792829  0.91155861  0.09446314  1
  Te  Te142  1  0.58986375  0.93230562  0.42196748  1
  Te  Te143  1  0.56614396  0.94395365  0.76706989  1
  Te  Te144  1  0.90588980  0.22161951  0.09750363  1
  Te  Te145  1  0.89233309  0.23974267  0.40089674  1
  Te  Te146  1  0.92310794  0.27818948  0.75186143  1
  Te  Te147  1  0.90808350  0.55267262  0.07548065  1
  Te  Te148  1  0.89265648  0.57196791  0.44827463  1
  Te  Te149  1  0.91395638  0.58543787  0.74452348  1
  Te  Te150  1  0.90447036  0.91477249  0.09013664  1
  Te  Te151  1  0.92231097  0.91812213  0.43051011  1
  Te  Te152  1  0.91450483  0.93389691  0.75752835  1
  Te  Te153  1  0.25422579  0.08957982  0.25060749  1
  Te  Te154  1  0.24877677  0.08886377  0.56735654  1
  Te  Te155  1  0.24570797  0.10605784  0.91814167  1
  Te  Te156  1  0.25886697  0.40191691  0.27395083  1
  Te  Te157  1  0.24455422  0.42171183  0.57424711  1
  Te  Te158  1  0.27292550  0.42450983  0.91226480  1
  Te  Te159  1  0.26274670  0.77146781  0.23715097  1
  Te  Te160  1  0.22250186  0.77202588  0.59766701  1
  Te  Te161  1  0.27020936  0.77089657  0.89325808  1
  Te  Te162  1  0.62983409  0.12174064  0.21480056  1
  Te  Te163  1  0.60208720  0.09734310  0.56164886  1
  Te  Te164  1  0.57151801  0.09646545  0.92170588  1
  Te  Te165  1  0.62285299  0.35863860  0.21705827  1
  Te  Te166  1  0.63161680  0.38047978  0.54625194  1
  Te  Te167  1  0.59227001  0.42755756  0.90185305  1
  Te  Te168  1  0.58426080  0.74420178  0.25260190  1
  Te  Te169  1  0.57901285  0.76737694  0.60303159  1
  Te  Te170  1  0.59329661  0.75439169  0.91594241  1
  Te  Te171  1  0.92090019  0.11343911  0.23999289  1
  Te  Te172  1  0.91400234  0.09128744  0.59424784  1
  Te  Te173  1  0.89040001  0.09930794  0.92990554  1
  Te  Te174  1  0.92755711  0.39144868  0.26651097  1
  Te  Te175  1  0.87999399  0.43762018  0.60102448  1
  Te  Te176  1  0.89961784  0.38611744  0.89683070  1
  Te  Te177  1  0.91281722  0.74787013  0.25983690  1
  Te  Te178  1  0.90226191  0.73345492  0.57119201  1
  Te  Te179  1  0.92587269  0.75307183  0.89671755  1
