# generated using pymatgen
data_In2Te3
_symmetry_space_group_name_H-M   'P 1'
_cell_length_a   18.93474846
_cell_length_b   18.93624669
_cell_length_c   18.93036608
_cell_angle_alpha   89.99123994
_cell_angle_beta   90.03910762
_cell_angle_gamma   90.06849787
_symmetry_Int_Tables_number   1
_chemical_formula_structural   In2Te3
_chemical_formula_sum   'In72 Te108'
_cell_volume   6787.53432240
_cell_formula_units_Z   36
loop_
 _symmetry_equiv_pos_site_id
 _symmetry_equiv_pos_as_xyz
  1  'x, y, z'
loop_
 _atom_site_type_symbol
 _atom_site_label
 _atom_site_symmetry_multiplicity
 _atom_site_fract_x
 _atom_site_fract_y
 _atom_site_fract_z
 _atom_site_occupancy
  In  In0  1  0.67617127  0.32443009  0.64928862  1
  In  In1  1  0.15778255  0.17589724  -0.02376561  1
  In  In2  1  0.66299683  0.51587032  0.84436597  1
  In  In3  1  0.81161084  0.81489351  -0.00405150  1
  In  In4  1  0.49020325  0.50405962  0.67794006  1
  In  In5  1  -0.02750263  0.80480446  0.18073809  1
  In  In6  1  0.49573357  0.49637743  0.33525278  1
  In  In7  1  0.81521863  0.32578337  0.84706848  1
  In  In8  1  0.65474527  0.66993073  0.33585210  1
  In  In9  1  0.81630321  0.66317568  0.81971118  1
  In  In10  1  -0.01214053  0.02297391  0.67300182  1
  In  In11  1  0.69591499  0.46185005  0.16510204  1
  In  In12  1  0.52133926  0.34809832  0.81967871  1
  In  In13  1  0.51423151  0.81356947  0.65683892  1
  In  In14  1  0.51070204  0.67756947  0.84537848  1
  In  In15  1  0.16069115  0.83072544  0.33894438  1
  In  In16  1  0.14993333  0.33577098  0.48884401  1
  In  In17  1  0.34973227  0.15409303  0.49573316  1
  In  In18  1  0.37991394  -0.00746112  0.02452151  1
  In  In19  1  0.65449719  0.83188510  0.82828115  1
  In  In20  1  0.17533797  -0.00286192  0.49471117  1
  In  In21  1  -0.02278529  0.85416067  0.82845101  1
  In  In22  1  0.85181299  0.46377610  0.32959817  1
  In  In23  1  0.34216648  0.18793980  0.84338356  1
  In  In24  1  0.84084383  0.48508324  0.63644722  1
  In  In25  1  0.01051478  0.78039065  0.49468608  1
  In  In26  1  0.82671352  0.17137390  0.65860128  1
  In  In27  1  0.17766000  0.80166614  0.01162872  1
  In  In28  1  0.33807775  0.00675175  0.66133667  1
  In  In29  1  0.68493626  0.84554387  0.16768006  1
  In  In30  1  0.33847284  0.34054598  -0.00981609  1
  In  In31  1  -0.01596251  0.18908287  0.85112482  1
  In  In32  1  0.16052271  0.32980442  0.17177918  1
  In  In33  1  0.86664644  0.81470366  0.33213800  1
  In  In34  1  0.31594354  0.66722184  0.65607446  1
  In  In35  1  0.32866816  0.54067957  0.80512606  1
  In  In36  1  0.67523843  0.02434030  0.33532377  1
  In  In37  1  0.32959800  0.49631361  0.18148896  1
  In  In38  1  0.34458743  0.63555961  0.00946371  1
  In  In39  1  0.00363665  -0.02038354  0.32849096  1
  In  In40  1  0.83053189  0.64041697  0.47674774  1
  In  In41  1  0.18350778  0.16364700  0.31972879  1
  In  In42  1  -0.01630119  0.18293973  0.18434230  1
  In  In43  1  0.16002783  0.48494647  0.01695135  1
  In  In44  1  0.65280078  0.49312591  0.47823486  1
  In  In45  1  0.34073673  0.47712404  0.48268790  1
  In  In46  1  0.54412282  0.03110062  0.52092098  1
  In  In47  1  0.49492968  0.01723574  0.85245588  1
  In  In48  1  0.53492570  0.48585661  0.02330226  1
  In  In49  1  0.32953769  0.30513862  0.64185564  1
  In  In50  1  -0.03347677  0.62797886  0.02389316  1
  In  In51  1  0.34916038  0.81920670  0.15589104  1
  In  In52  1  0.16007410  0.67305592  0.83190699  1
  In  In53  1  0.77258636  0.01471808  0.53795207  1
  In  In54  1  0.14730787  0.33487854  0.83772300  1
  In  In55  1  0.19751093  0.02234067  0.18499713  1
  In  In56  1  0.18269476  0.00684844  0.80818996  1
  In  In57  1  0.32133957  0.84606521  0.49480316  1
  In  In58  1  0.52151182  0.01627724  0.17140923  1
  In  In59  1  0.33284093  0.66553492  0.33347350  1
  In  In60  1  0.50293571  0.84927436  0.33614381  1
  In  In61  1  0.66010844  0.31207428  0.34821623  1
  In  In62  1  0.76842865  0.22332580  0.03605612  1
  In  In63  1  0.84566403  0.02384876  0.80280686  1
  In  In64  1  0.54253249  0.24458088  0.20503328  1
  In  In65  1  0.14549498  0.50227669  0.31391771  1
  In  In66  1  -0.05119273  0.26100240  0.49084310  1
  In  In67  1  -0.01514330  0.48403173  0.83144109  1
  In  In68  1  0.16968631  0.82300223  0.66791078  1
  In  In69  1  0.67575227  0.01010574  -0.00122789  1
  In  In70  1  0.03394760  -0.00513450  -0.00218538  1
  In  In71  1  0.85108792  0.01668547  0.15220482  1
  Te  Te72  1  0.08548260  0.09910577  0.09829807  1
  Te  Te73  1  0.08643256  0.08099598  0.40589855  1
  Te  Te74  1  0.07863561  0.10646453  0.76156386  1
  Te  Te75  1  0.05934581  0.42080942  0.10608699  1
  Te  Te76  1  0.06384869  0.43945864  0.42258524  1
  Te  Te77  1  0.07545002  0.41554133  0.73954268  1
  Te  Te78  1  0.06754501  0.73010800  0.08390947  1
  Te  Te79  1  0.07533844  0.71247105  0.37434425  1
  Te  Te80  1  0.06182624  0.75289235  0.74814131  1
  Te  Te81  1  0.44957412  0.10747929  0.07921855  1
  Te  Te82  1  0.43857870  0.06295318  0.42291631  1
  Te  Te83  1  0.41987638  0.10112887  0.74652435  1
  Te  Te84  1  0.42067698  0.41152122  0.09532625  1
  Te  Te85  1  0.43446499  0.38178385  0.41325529  1
  Te  Te86  1  0.39665263  0.40422187  0.74729430  1
  Te  Te87  1  0.43267018  0.73358920  0.07267269  1
  Te  Te88  1  0.41860036  0.75500444  0.42219398  1
  Te  Te89  1  0.41391144  0.74238429  0.74518914  1
  Te  Te90  1  0.72841934  0.09341945  0.11491003  1
  Te  Te91  1  0.73766999  0.11652619  0.43557846  1
  Te  Te92  1  0.72902703  0.06958286  0.71696463  1
  Te  Te93  1  0.78474222  0.43479399  0.04810846  1
  Te  Te94  1  0.75817886  0.39570412  0.43443905  1
  Te  Te95  1  0.74536326  0.42581910  0.74850132  1
  Te  Te96  1  0.77152000  0.73921459  0.11406723  1
  Te  Te97  1  0.75214400  0.75719897  0.41397226  1
  Te  Te98  1  0.74250339  0.75865308  0.73465083  1
  Te  Te99  1  0.07446207  0.26145761  0.27727217  1
  Te  Te100  1  0.06868856  0.24517118  0.57280813  1
  Te  Te101  1  0.05407164  0.28245080  0.94787241  1
  Te  Te102  1  0.05681422  0.60862738  0.25827295  1
  Te  Te103  1  0.02827884  0.65251433  0.56665058  1
  Te  Te104  1  0.08056899  0.57819610  0.92224018  1
  Te  Te105  1  0.08581093  0.90875230  0.22335037  1
  Te  Te106  1  0.08768590  0.92984942  0.59846084  1
  Te  Te107  1  0.10869668  0.90138689  0.90230067  1
  Te  Te108  1  0.40168798  0.23475297  0.23822105  1
  Te  Te109  1  0.44428779  0.24594582  0.56870113  1
  Te  Te110  1  0.44739822  0.25911359  0.92449811  1
  Te  Te111  1  0.42884647  0.59513723  0.23946698  1
  Te  Te112  1  0.40969251  0.58069634  0.57488812  1
  Te  Te113  1  0.44076547  0.55400576  0.91335615  1
  Te  Te114  1  0.41535382  0.92628262  0.24002604  1
  Te  Te115  1  0.42771103  0.92186899  0.57277457  1
  Te  Te116  1  0.42797894  0.90473403  0.92008359  1
  Te  Te117  1  0.77347724  0.27279570  0.25689483  1
  Te  Te118  1  0.74725039  0.23890903  0.55060836  1
  Te  Te119  1  0.74492059  0.20235855  0.89042025  1
  Te  Te120  1  0.73809271  0.55896990  0.27974421  1
  Te  Te121  1  0.73476151  0.57624007  0.57684184  1
  Te  Te122  1  0.73340869  0.61258088  0.93166752  1
  Te  Te123  1  0.77170237  0.92661579  0.26356154  1
  Te  Te124  1  0.71229971  0.89667483  0.60055790  1
  Te  Te125  1  0.76604842  0.92802607  0.90243439  1
  Te  Te126  1  0.24783028  0.25130658  0.07297134  1
  Te  Te127  1  0.25646845  0.24892199  0.42132066  1
  Te  Te128  1  0.23741829  0.24726497  0.75192095  1
  Te  Te129  1  0.23476608  0.58512214  0.10239612  1
  Te  Te130  1  0.24512248  0.57234051  0.41306495  1
  Te  Te131  1  0.20777030  0.58154808  0.72039485  1
  Te  Te132  1  0.24741285  0.92086952  0.07610404  1
  Te  Te133  1  0.26181468  0.93498384  0.38677883  1
  Te  Te134  1  0.27381218  0.90039470  0.74919862  1
  Te  Te135  1  0.62863897  0.26067814  0.08804725  1
  Te  Te136  1  0.54623676  0.27562061  0.43678856  1
  Te  Te137  1  0.58351640  0.24380798  0.73414669  1
  Te  Te138  1  0.61236834  0.57220559  0.11084099  1
  Te  Te139  1  0.55716671  0.60032146  0.42915220  1
  Te  Te140  1  0.58884440  0.60021123  0.73996168  1
  Te  Te141  1  0.58663533  0.91448358  0.07539040  1
  Te  Te142  1  0.60185097  0.92366332  0.42172079  1
  Te  Te143  1  0.56347661  0.92285890  0.74947103  1
  Te  Te144  1  0.87940554  0.27342532  0.12842675  1
  Te  Te145  1  0.88492549  0.29898221  0.36072899  1
  Te  Te146  1  0.91021566  0.26566474  0.74438780  1
  Te  Te147  1  0.87817815  0.54413616  0.11037999  1
  Te  Te148  1  0.93176643  0.53922809  0.43528667  1
  Te  Te149  1  0.91143083  0.57813191  0.73855618  1
  Te  Te150  1  0.92336498  0.90925768  0.07079046  1
  Te  Te151  1  0.93279779  0.90201426  0.43754510  1
  Te  Te152  1  0.89548184  0.90870916  0.71422919  1
  Te  Te153  1  0.30364388  0.11394813  0.24098192  1
  Te  Te154  1  0.23961249  0.09592716  0.58952499  1
  Te  Te155  1  0.25970949  0.07837416  0.91905919  1
  Te  Te156  1  0.25288630  0.40170967  0.26952506  1
  Te  Te157  1  0.24484141  0.41532169  0.58245209  1
  Te  Te158  1  0.25207445  0.43399508  0.90658467  1
  Te  Te159  1  0.24556957  0.74774018  0.24040795  1
  Te  Te160  1  0.22945282  0.74122395  0.55392480  1
  Te  Te161  1  0.27146264  0.73445034  0.91435601  1
  Te  Te162  1  0.56531669  0.11077507  0.28227309  1
  Te  Te163  1  0.60653706  0.11042412  0.62832377  1
  Te  Te164  1  0.60513824  0.10111867  0.90551711  1
  Te  Te165  1  0.57859793  0.40355777  0.24951511  1
  Te  Te166  1  0.57340313  0.41863092  0.58555607  1
  Te  Te167  1  0.61537692  0.39773943  0.92848734  1
  Te  Te168  1  0.57933150  0.76058361  0.24056639  1
  Te  Te169  1  0.62690582  0.77348473  0.57454651  1
  Te  Te170  1  0.61123200  0.73806856  0.93574096  1
  Te  Te171  1  0.90825684  0.08626579  0.27562526  1
  Te  Te172  1  0.90915101  0.08348097  0.55902721  1
  Te  Te173  1  0.92414882  0.07422224  0.92838978  1
  Te  Te174  1  0.95220970  0.45389172  0.21747615  1
  Te  Te175  1  0.93170458  0.38174180  0.58395352  1
  Te  Te176  1  0.89094201  0.42384038  0.93173047  1
  Te  Te177  1  0.91400163  0.69308945  0.26047820  1
  Te  Te178  1  0.89760075  0.72513345  0.58475511  1
  Te  Te179  1  0.92322168  0.74266866  0.91935549  1
