# generated using pymatgen
data_In2Te3
_symmetry_space_group_name_H-M   'P 1'
_cell_length_a   18.82764096
_cell_length_b   18.82109849
_cell_length_c   18.82515942
_cell_angle_alpha   89.95208689
_cell_angle_beta   90.01981919
_cell_angle_gamma   90.01831346
_symmetry_Int_Tables_number   1
_chemical_formula_structural   In2Te3
_chemical_formula_sum   'In72 Te108'
_cell_volume   6670.82177470
_cell_formula_units_Z   36
loop_
 _symmetry_equiv_pos_site_id
 _symmetry_equiv_pos_as_xyz
  1  'x, y, z'
loop_
 _atom_site_type_symbol
 _atom_site_label
 _atom_site_symmetry_multiplicity
 _atom_site_fract_x
 _atom_site_fract_y
 _atom_site_fract_z
 _atom_site_occupancy
  In  In0  1  0.31481530  0.67839735  0.00555896  1
  In  In1  1  0.16841540  0.84387740  0.68872699  1
  In  In2  1  0.49091185  0.51076899  0.64236471  1
  In  In3  1  -0.00367306  0.66166828  0.00932856  1
  In  In4  1  0.17105971  0.35169747  0.51479077  1
  In  In5  1  0.32886551  0.64927303  0.69287944  1
  In  In6  1  0.16297662  0.84420360  0.31105316  1
  In  In7  1  0.64956066  -0.02944770  -0.00050109  1
  In  In8  1  0.66962612  0.50089918  0.83941581  1
  In  In9  1  0.32355839  0.83152309  0.16116476  1
  In  In10  1  0.15637220  0.33967640  0.15283408  1
  In  In11  1  0.84393531  0.32075367  0.84666254  1
  In  In12  1  0.17257155  0.65712762  0.49380243  1
  In  In13  1  0.17273346  0.13682886  0.33482440  1
  In  In14  1  0.86475043  -0.00383103  0.19890182  1
  In  In15  1  0.16478995  0.16160844  0.00653028  1
  In  In16  1  0.84840660  0.17987536  0.68206913  1
  In  In17  1  0.66788427  0.34032431  0.31751756  1
  In  In18  1  0.49477991  0.34962775  0.48847890  1
  In  In19  1  0.32927397  0.15642859  0.49304686  1
  In  In20  1  0.00293031  0.83764152  0.16258722  1
  In  In21  1  0.31740964  0.15457652  0.85037976  1
  In  In22  1  0.17684346  0.84328440  -0.01285135  1
  In  In23  1  0.34663949  0.82771999  0.49690000  1
  In  In24  1  0.51808839  0.15465825  0.66826572  1
  In  In25  1  0.48143342  0.83460010  -0.00362613  1
  In  In26  1  0.49079087  0.35270196  0.16707015  1
  In  In27  1  0.33620359  0.51463523  0.17286688  1
  In  In28  1  0.84824002  0.49229664  0.66924399  1
  In  In29  1  0.32735675  -0.01240737  0.66257431  1
  In  In30  1  0.00463541  0.32881858  0.35574046  1
  In  In31  1  0.02825603  0.16646021  0.84699978  1
  In  In32  1  0.48385343  0.68379547  0.84329741  1
  In  In33  1  0.33249728  -0.00970736  0.31962111  1
  In  In34  1  0.84087586  0.33753964  0.14621813  1
  In  In35  1  0.62647635  -0.04005973  0.69532963  1
  In  In36  1  0.66725606  0.15639577  0.83978929  1
  In  In37  1  0.83489013  0.83111410  0.66376869  1
  In  In38  1  0.68488387  0.14397039  0.51254765  1
  In  In39  1  0.48185205  -0.01251462  0.16112283  1
  In  In40  1  0.84778935  0.33494875  0.49097921  1
  In  In41  1  -0.01530305  0.83438436  0.47991475  1
  In  In42  1  0.17044187  0.48605681  -0.01054211  1
  In  In43  1  -0.00054999  0.00793184  0.67284676  1
  In  In44  1  0.82657538  0.51315973  0.30356982  1
  In  In45  1  0.33889435  0.67190193  0.33196506  1
  In  In46  1  0.34521126  0.35343834  0.32525651  1
  In  In47  1  0.32976027  0.34640650  0.66987409  1
  In  In48  1  -0.01720478  0.33150949  0.01375283  1
  In  In49  1  0.82108449  -0.02162624  0.83463643  1
  In  In50  1  0.03059655  0.48638423  0.83422842  1
  In  In51  1  0.49080837  0.15093992  0.01783045  1
  In  In52  1  0.18693377  0.16156399  0.66419922  1
  In  In53  1  0.68558876  0.68912318  0.04182940  1
  In  In54  1  0.49117962  0.49995669  -0.00024003  1
  In  In55  1  0.83872503  0.17003401  0.01178705  1
  In  In56  1  0.48166787  0.18023346  0.33726995  1
  In  In57  1  0.66971905  -0.03561955  0.31422250  1
  In  In58  1  0.79527649  0.66233045  0.46019467  1
  In  In59  1  0.02740188  0.00086894  0.00901905  1
  In  In60  1  0.03067836  0.15113319  0.48308200  1
  In  In61  1  0.66390824  0.51101199  0.19009742  1
  In  In62  1  0.49444535  0.30757584  0.82815169  1
  In  In63  1  0.63082123  0.52574845  0.47334257  1
  In  In64  1  0.83964136  0.68665514  0.83330182  1
  In  In65  1  0.64874147  0.82077527  0.49325420  1
  In  In66  1  -0.00531424  0.51345685  0.50668902  1
  In  In67  1  0.66499058  0.67815016  0.65355370  1
  In  In68  1  0.02127721  0.68847617  0.66234490  1
  In  In69  1  0.82807334  0.51364456  0.04638525  1
  In  In70  1  0.67131940  0.16765401  0.16974989  1
  In  In71  1  0.83749897  -0.01868575  0.47194792  1
  Te  Te72  1  0.08729747  0.08810881  0.11107346  1
  Te  Te73  1  0.07309685  0.04343097  0.39320592  1
  Te  Te74  1  0.10797058  0.07099081  0.75895682  1
  Te  Te75  1  0.05997240  0.43962370  0.08907688  1
  Te  Te76  1  0.09211999  0.43874331  0.41504000  1
  Te  Te77  1  0.13552198  0.43018201  0.74586784  1
  Te  Te78  1  0.09877249  0.75131131  0.08144148  1
  Te  Te79  1  0.08682166  0.74820596  0.40647120  1
  Te  Te80  1  0.09255669  0.74932523  0.77452194  1
  Te  Te81  1  0.38699781  0.05729402  0.07025218  1
  Te  Te82  1  0.42509964  0.06552546  0.41957081  1
  Te  Te83  1  0.41251457  0.08589904  0.74948757  1
  Te  Te84  1  0.38844304  0.41259233  0.07055657  1
  Te  Te85  1  0.40858345  0.44777717  0.42150763  1
  Te  Te86  1  0.42800416  0.42472831  0.75470450  1
  Te  Te87  1  0.42276804  0.73460079  0.09639202  1
  Te  Te88  1  0.44117474  0.74239048  0.41778850  1
  Te  Te89  1  0.41516955  0.76619459  0.73921078  1
  Te  Te90  1  0.74301225  0.07063747  0.07714739  1
  Te  Te91  1  0.74643680  0.07422408  0.39210591  1
  Te  Te92  1  0.74555067  0.07339604  0.73588704  1
  Te  Te93  1  0.72182620  0.41176354  0.08581913  1
  Te  Te94  1  0.75261523  0.42835104  0.41643399  1
  Te  Te95  1  0.75526235  0.40717245  0.75402987  1
  Te  Te96  1  0.77946708  0.76143685  0.12718181  1
  Te  Te97  1  0.74917147  0.78294024  0.38400711  1
  Te  Te98  1  0.73254944  0.76657371  0.75765246  1
  Te  Te99  1  0.09669573  0.25103639  0.26396043  1
  Te  Te100  1  0.08591308  0.24669164  0.58746913  1
  Te  Te101  1  0.09345381  0.27821044  0.92463156  1
  Te  Te102  1  0.02549613  0.61937098  0.23429797  1
  Te  Te103  1  0.09956748  0.57389144  0.60043627  1
  Te  Te104  1  0.09686926  0.59982666  0.91163256  1
  Te  Te105  1  0.08522642  0.94278243  0.23170059  1
  Te  Te106  1  0.07101271  0.90700495  0.58302507  1
  Te  Te107  1  0.07390599  0.91126951  0.90338176  1
  Te  Te108  1  0.39885184  0.24564985  0.22891930  1
  Te  Te109  1  0.42159514  0.24385907  0.58146356  1
  Te  Te110  1  0.40451236  0.24856053  0.93469842  1
  Te  Te111  1  0.43452491  0.59668058  0.24441588  1
  Te  Te112  1  0.40341777  0.60467354  0.57256318  1
  Te  Te113  1  0.39604081  0.58253635  0.91482698  1
  Te  Te114  1  0.42615076  0.88566873  0.26102212  1
  Te  Te115  1  0.42908427  0.91261510  0.58611470  1
  Te  Te116  1  0.42209208  0.91419111  0.88765366  1
  Te  Te117  1  0.76974099  0.24810299  0.25393254  1
  Te  Te118  1  0.75604971  0.25714301  0.58649228  1
  Te  Te119  1  0.73737216  0.25443465  0.93388666  1
  Te  Te120  1  0.74379170  0.62991499  0.24443798  1
  Te  Te121  1  0.75034667  0.57074835  0.58226883  1
  Te  Te122  1  0.75306596  0.59204557  0.92951613  1
  Te  Te123  1  0.75496784  0.89236976  0.21198080  1
  Te  Te124  1  0.74564205  0.91915700  0.57883898  1
  Te  Te125  1  0.74373093  0.88770537  0.92064881  1
  Te  Te126  1  0.24998167  0.26758613  0.06586331  1
  Te  Te127  1  0.25121985  0.25977727  0.41319529  1
  Te  Te128  1  0.24545143  0.25971868  0.76368989  1
  Te  Te129  1  0.22825647  0.58544082  0.09013881  1
  Te  Te130  1  0.24522339  0.57538016  0.39617296  1
  Te  Te131  1  0.24004732  0.55282093  0.76569859  1
  Te  Te132  1  0.26430209  0.93339300  0.07115467  1
  Te  Te133  1  0.24636471  0.91328588  0.41947765  1
  Te  Te134  1  0.26889027  0.91095241  0.77706859  1
  Te  Te135  1  0.57875104  0.25590597  0.08646515  1
  Te  Te136  1  0.59524369  0.24342102  0.42084808  1
  Te  Te137  1  0.60685851  0.25583991  0.73867596  1
  Te  Te138  1  0.57817270  0.58806930  0.08822586  1
  Te  Te139  1  0.56883812  0.63774198  0.39895191  1
  Te  Te140  1  0.57881076  0.58876406  0.75344447  1
  Te  Te141  1  0.58070896  0.88633839  0.10585337  1
  Te  Te142  1  0.57025813  0.91460279  0.40927162  1
  Te  Te143  1  0.52512010  0.88591459  0.77982276  1
  Te  Te144  1  0.94493811  0.21764298  0.11296231  1
  Te  Te145  1  0.91272650  0.22080756  0.41361983  1
  Te  Te146  1  0.95249815  0.26450052  0.75503025  1
  Te  Te147  1  0.91616251  0.60561905  0.12902679  1
  Te  Te148  1  0.91913262  0.59174592  0.39979157  1
  Te  Te149  1  0.92954601  0.58899791  0.75410028  1
  Te  Te150  1  0.91144382  0.92574442  0.07112466  1
  Te  Te151  1  0.91420676  0.90616482  0.36964996  1
  Te  Te152  1  0.93028129  0.90162585  0.75850287  1
  Te  Te153  1  0.26608133  0.08811230  0.23254868  1
  Te  Te154  1  0.23269217  0.06089786  0.56102733  1
  Te  Te155  1  0.23445305  0.05886408  0.92443183  1
  Te  Te156  1  0.23570722  0.42891332  0.25074320  1
  Te  Te157  1  0.28359301  0.43599670  0.56170710  1
  Te  Te158  1  0.24851542  0.43867083  0.87229436  1
  Te  Te159  1  0.23442013  0.73387846  0.23624897  1
  Te  Te160  1  0.24681152  0.75036626  0.59097418  1
  Te  Te161  1  0.26821956  0.76684433  0.89660805  1
  Te  Te162  1  0.57086033  0.08332576  0.24806417  1
  Te  Te163  1  0.58118112  0.05334210  0.57597482  1
  Te  Te164  1  0.56787187  0.06808784  0.91406797  1
  Te  Te165  1  0.55848689  0.43641181  0.27505546  1
  Te  Te166  1  0.59471901  0.41811620  0.58021074  1
  Te  Te167  1  0.57776867  0.40687686  0.91590488  1
  Te  Te168  1  0.63056091  0.72686691  0.28896885  1
  Te  Te169  1  0.55813764  0.75761938  0.59292272  1
  Te  Te170  1  0.58976370  0.74431094  0.93208392  1
  Te  Te171  1  0.91255112  0.12697992  0.23914789  1
  Te  Te172  1  0.90751170  0.08239944  0.57640226  1
  Te  Te173  1  0.90895675  0.08918763  0.90259189  1
  Te  Te174  1  0.92686854  0.41010857  0.25019175  1
  Te  Te175  1  0.94143909  0.39894026  0.59380163  1
  Te  Te176  1  0.90582464  0.43891641  0.92579524  1
  Te  Te177  1  0.94609730  0.74090637  0.26335426  1
  Te  Te178  1  0.90175636  0.73065419  0.57103885  1
  Te  Te179  1  0.91411639  0.76071923  0.93528117  1
