# generated using pymatgen
data_In2Te3
_symmetry_space_group_name_H-M   'P 1'
_cell_length_a   18.75030651
_cell_length_b   18.76365517
_cell_length_c   18.74962403
_cell_angle_alpha   90.01845721
_cell_angle_beta   89.99127954
_cell_angle_gamma   90.06033840
_symmetry_Int_Tables_number   1
_chemical_formula_structural   In2Te3
_chemical_formula_sum   'In72 Te108'
_cell_volume   6596.56900499
_cell_formula_units_Z   36
loop_
 _symmetry_equiv_pos_site_id
 _symmetry_equiv_pos_as_xyz
  1  'x, y, z'
loop_
 _atom_site_type_symbol
 _atom_site_label
 _atom_site_symmetry_multiplicity
 _atom_site_fract_x
 _atom_site_fract_y
 _atom_site_fract_z
 _atom_site_occupancy
  In  In0  1  0.49855774  0.65145031  0.85728516  1
  In  In1  1  0.65956082  -0.02168292  0.32210173  1
  In  In2  1  0.64094158  0.15778933  0.85072110  1
  In  In3  1  0.49504475  0.84403143  0.65365875  1
  In  In4  1  0.50324121  0.15601865  0.32547363  1
  In  In5  1  0.17145407  0.85345521  0.33657916  1
  In  In6  1  0.78863090  0.66993866  0.84768618  1
  In  In7  1  0.03894711  0.31234508  0.00492806  1
  In  In8  1  0.65623332  0.50296574  0.48184578  1
  In  In9  1  0.17945441  0.50711316  0.30520688  1
  In  In10  1  0.16725809  0.01568914  0.85289566  1
  In  In11  1  0.85325504  0.17554577  0.66072407  1
  In  In12  1  0.36893641  0.81482404  0.14186597  1
  In  In13  1  0.15889546  0.48923776  0.67567299  1
  In  In14  1  -0.01729791  0.48710602  0.48951190  1
  In  In15  1  -0.00024852  0.84584938  0.16572617  1
  In  In16  1  0.67978000  0.35237752  0.67208021  1
  In  In17  1  0.64012446  0.68824198  0.69689257  1
  In  In18  1  0.83447951  0.49686268  0.32704159  1
  In  In19  1  0.00932479  0.31072738  0.31403358  1
  In  In20  1  0.33133800  0.48482785  0.16201988  1
  In  In21  1  0.30127615  0.34638748  0.32809991  1
  In  In22  1  0.81387967  0.83971891  0.01677130  1
  In  In23  1  0.50901557  0.48993280  0.31999678  1
  In  In24  1  0.31886619  0.46023085  0.85919296  1
  In  In25  1  0.46811364  0.32246664  0.86403211  1
  In  In26  1  0.84344447  0.02486373  0.19048578  1
  In  In27  1  0.16957015  0.67419785  0.86245457  1
  In  In28  1  0.15111893  0.31382069  0.51173554  1
  In  In29  1  0.84816760  0.16231509  0.00403454  1
  In  In30  1  0.83959172  0.67327864  0.50311052  1
  In  In31  1  0.84062652  0.01102778  0.86151189  1
  In  In32  1  0.47768181  0.01639534  0.84206792  1
  In  In33  1  0.33122144  0.84638025  0.85017431  1
  In  In34  1  0.82952025  0.85022790  0.33509267  1
  In  In35  1  0.66347428  0.15694680  0.47195339  1
  In  In36  1  0.35005198  -0.01973441  0.33600492  1
  In  In37  1  -0.01192430  0.66699534  0.64858881  1
  In  In38  1  0.49344311  -0.01675295  0.49383396  1
  In  In39  1  0.86571674  0.31757168  0.48396527  1
  In  In40  1  0.67944695  -0.00926721  0.66719281  1
  In  In41  1  0.81514634  0.49327696  0.68632829  1
  In  In42  1  0.18080200  0.64748933  0.17352229  1
  In  In43  1  0.63952122  0.68638234  0.29455446  1
  In  In44  1  0.67387113  0.81045357  0.84110660  1
  In  In45  1  0.82173042  0.66651844  0.15398966  1
  In  In46  1  0.67427805  0.18854880  0.16193409  1
  In  In47  1  0.50131649  0.30521567  0.51187583  1
  In  In48  1  0.02962779  0.30168880  0.66728231  1
  In  In49  1  0.83997144  0.33802075  0.80675588  1
  In  In50  1  0.65560237  0.33332186  -0.00284055  1
  In  In51  1  0.00987157  0.85838185  0.82957367  1
  In  In52  1  0.01779746  0.85023630  0.48138716  1
  In  In53  1  0.32629782  0.66629543  0.65815244  1
  In  In54  1  0.18563964  0.83028581  -0.01793262  1
  In  In55  1  0.66788647  0.85015771  0.50908709  1
  In  In56  1  0.37893934  0.69647871  0.33454872  1
  In  In57  1  0.14497638  0.03881569  0.14058092  1
  In  In58  1  0.17592865  0.69635101  0.49295462  1
  In  In59  1  0.83046691  0.32504248  0.15914493  1
  In  In60  1  -0.00650804  0.66326210  -0.01002555  1
  In  In61  1  0.15192794  0.15162284  0.33949630  1
  In  In62  1  0.48019202  0.16174344  0.67936585  1
  In  In63  1  -0.00113105  0.48938984  0.84318433  1
  In  In64  1  0.34049136  0.51144441  0.50790283  1
  In  In65  1  0.49662285  0.34229439  0.16430414  1
  In  In66  1  0.81980321  0.51355906  -0.00833555  1
  In  In67  1  0.31998202  0.31150220  0.71966503  1
  In  In68  1  0.33424594  -0.00381108  0.01199348  1
  In  In69  1  -0.00098381  0.00582607  0.67937791  1
  In  In70  1  0.18536603  0.82152514  0.64798751  1
  In  In71  1  0.32476894  0.16674902  0.14114540  1
  Te  Te72  1  0.05986992  0.11988900  0.05277766  1
  Te  Te73  1  0.04179733  0.07135192  0.40143378  1
  Te  Te74  1  0.10742514  0.09295648  0.73798251  1
  Te  Te75  1  0.11358902  0.42078302  0.07293477  1
  Te  Te76  1  0.09040278  0.41317252  0.40897072  1
  Te  Te77  1  0.09776513  0.39367797  0.77624254  1
  Te  Te78  1  0.08612129  0.75073295  0.07769496  1
  Te  Te79  1  0.07605481  0.74300766  0.38846524  1
  Te  Te80  1  0.08861794  0.74532771  0.75133581  1
  Te  Te81  1  0.43128551  0.07340168  0.09563050  1
  Te  Te82  1  0.41006922  0.09864508  0.43127077  1
  Te  Te83  1  0.37909822  0.09181301  0.76183819  1
  Te  Te84  1  0.43470966  0.43454461  0.06345658  1
  Te  Te85  1  0.41490236  0.40878962  0.41608232  1
  Te  Te86  1  0.41747160  0.42128888  0.74770147  1
  Te  Te87  1  0.46293673  0.70886696  0.08772413  1
  Te  Te88  1  0.42774690  0.80020507  0.42657380  1
  Te  Te89  1  0.41495613  0.75503976  0.75341785  1
  Te  Te90  1  0.74731988  0.07903808  0.08153557  1
  Te  Te91  1  0.75306361  0.07035064  0.39417456  1
  Te  Te92  1  0.74914967  0.09660226  0.75727195  1
  Te  Te93  1  0.73796425  0.42456574  0.08805531  1
  Te  Te94  1  0.75555065  0.40393422  0.41910816  1
  Te  Te95  1  0.72328566  0.43643325  0.79365956  1
  Te  Te96  1  0.71714468  0.73044959  0.06401202  1
  Te  Te97  1  0.74135759  0.74396536  0.40760295  1
  Te  Te98  1  0.76703720  0.76403448  0.72515854  1
  Te  Te99  1  0.10651611  0.23868558  0.22719233  1
  Te  Te100  1  0.09182785  0.19698682  0.58084150  1
  Te  Te101  1  0.11774031  0.25382797  0.89488146  1
  Te  Te102  1  0.06838992  0.58233035  0.24365054  1
  Te  Te103  1  0.09677492  0.58224262  0.56991738  1
  Te  Te104  1  0.09621308  0.56221873  0.93738011  1
  Te  Te105  1  0.08521657  0.94225691  0.24588655  1
  Te  Te106  1  0.09740644  0.92907454  0.58467637  1
  Te  Te107  1  0.07668915  0.93177878  0.94391041  1
  Te  Te108  1  0.40308640  0.25391062  0.25367763  1
  Te  Te109  1  0.38650014  0.24667216  0.59252993  1
  Te  Te110  1  0.37672204  0.22569221  0.92749985  1
  Te  Te111  1  0.42303962  0.58502298  0.23803721  1
  Te  Te112  1  0.43318099  0.59078248  0.58974731  1
  Te  Te113  1  0.40722992  0.55831148  0.93310222  1
  Te  Te114  1  0.43697336  0.92329996  0.22353180  1
  Te  Te115  1  0.40068114  0.95521370  0.61289227  1
  Te  Te116  1  0.43674699  0.90258767  0.94412266  1
  Te  Te117  1  0.76472874  0.24412808  0.26423142  1
  Te  Te118  1  0.74715507  0.25126670  0.57740644  1
  Te  Te119  1  0.75721359  0.24991466  0.91421878  1
  Te  Te120  1  0.73409263  0.57608113  0.24267200  1
  Te  Te121  1  0.74406089  0.58273697  0.58358655  1
  Te  Te122  1  0.70036207  0.59224272  0.94325546  1
  Te  Te123  1  0.73939224  0.89427318  0.21738412  1
  Te  Te124  1  0.76908327  0.94535020  0.55819756  1
  Te  Te125  1  0.72877726  0.92958258  0.92654922  1
  Te  Te126  1  0.27781557  0.26819090  0.04288626  1
  Te  Te127  1  0.25021687  0.23723503  0.42152738  1
  Te  Te128  1  0.20646467  0.23053862  0.76635993  1
  Te  Te129  1  0.26606277  0.58552247  0.07152349  1
  Te  Te130  1  0.26140352  0.59488674  0.40468854  1
  Te  Te131  1  0.24874705  0.58031352  0.76138921  1
  Te  Te132  1  0.24069309  0.91233072  0.10088651  1
  Te  Te133  1  0.24034717  0.94397621  0.43721869  1
  Te  Te134  1  0.24009349  0.91939069  0.75437599  1
  Te  Te135  1  0.56102264  0.23903826  0.07079209  1
  Te  Te136  1  0.58874721  0.26445422  0.39252865  1
  Te  Te137  1  0.58010430  0.26017389  0.75364288  1
  Te  Te138  1  0.59753527  0.62754655  0.07068784  1
  Te  Te139  1  0.56769668  0.60190730  0.40775646  1
  Te  Te140  1  0.57571726  0.57170473  0.75774215  1
  Te  Te141  1  0.59411409  0.89540168  0.14443101  1
  Te  Te142  1  0.56175734  0.88170711  0.39465327  1
  Te  Te143  1  0.57961766  0.91971938  0.75842312  1
  Te  Te144  1  0.94053230  0.23324491  0.10349613  1
  Te  Te145  1  0.93736163  0.21262422  0.40677744  1
  Te  Te146  1  0.94075460  0.23036188  0.77272116  1
  Te  Te147  1  0.92392613  0.57039038  0.08893142  1
  Te  Te148  1  0.92490751  0.59695103  0.40135408  1
  Te  Te149  1  0.91127804  0.59054263  0.76595072  1
  Te  Te150  1  0.91295294  0.93818797  0.08130572  1
  Te  Te151  1  0.93199682  0.94077539  0.39610438  1
  Te  Te152  1  0.89394051  0.91875259  0.75175603  1
  Te  Te153  1  0.26103145  0.07526495  0.24987518  1
  Te  Te154  1  0.29226464  0.04452015  0.54469419  1
  Te  Te155  1  0.26350132  0.10165546  0.93091513  1
  Te  Te156  1  0.21430954  0.38810009  0.20742011  1
  Te  Te157  1  0.25210434  0.40949096  0.58454121  1
  Te  Te158  1  0.22703753  0.39431776  0.96001245  1
  Te  Te159  1  0.26163803  0.76010808  0.25266040  1
  Te  Te160  1  0.29512583  0.77324400  0.55005609  1
  Te  Te161  1  0.29032569  0.72742237  0.94034642  1
  Te  Te162  1  0.58779903  0.07784824  0.22926355  1
  Te  Te163  1  0.58286799  0.08687847  0.58345155  1
  Te  Te164  1  0.56501023  0.07680214  0.94693219  1
  Te  Te165  1  0.60444566  0.41443383  0.23698486  1
  Te  Te166  1  0.57441527  0.42017870  0.58290574  1
  Te  Te167  1  0.55380814  0.42330385  0.93437033  1
  Te  Te168  1  0.54211170  0.77631233  0.21532255  1
  Te  Te169  1  0.57552480  0.74426482  0.57101040  1
  Te  Te170  1  0.56226866  0.76633496  0.93030647  1
  Te  Te171  1  0.94306151  0.09406039  0.27879416  1
  Te  Te172  1  0.91401336  0.07220086  0.57617962  1
  Te  Te173  1  0.95177080  0.09341177  0.91903905  1
  Te  Te174  1  0.92822420  0.41638607  0.23724476  1
  Te  Te175  1  0.92271457  0.40782097  0.60830808  1
  Te  Te176  1  0.91529462  0.39817299  0.93448356  1
  Te  Te177  1  0.91038254  0.75229061  0.24644609  1
  Te  Te178  1  0.91699864  0.78260301  0.57692179  1
  Te  Te179  1  0.90898621  0.76424419  0.91286039  1
