# generated using pymatgen
data_In2Te3
_symmetry_space_group_name_H-M   'P 1'
_cell_length_a   18.85488523
_cell_length_b   18.84378825
_cell_length_c   18.84731531
_cell_angle_alpha   90.14667915
_cell_angle_beta   90.01973677
_cell_angle_gamma   90.03173507
_symmetry_Int_Tables_number   1
_chemical_formula_structural   In2Te3
_chemical_formula_sum   'In72 Te108'
_cell_volume   6696.37997499
_cell_formula_units_Z   36
loop_
 _symmetry_equiv_pos_site_id
 _symmetry_equiv_pos_as_xyz
  1  'x, y, z'
loop_
 _atom_site_type_symbol
 _atom_site_label
 _atom_site_symmetry_multiplicity
 _atom_site_fract_x
 _atom_site_fract_y
 _atom_site_fract_z
 _atom_site_occupancy
  In  In0  1  0.66982738  0.00151201  0.67907152  1
  In  In1  1  0.49196796  0.33400022  0.15207121  1
  In  In2  1  0.51547961  0.87126619  0.01644523  1
  In  In3  1  0.19431255  0.17879994  0.30024150  1
  In  In4  1  0.33283015  0.67548198  -0.01459751  1
  In  In5  1  -0.01181384  0.80454040  0.52829244  1
  In  In6  1  0.49453516  0.50441258  0.66129439  1
  In  In7  1  0.17259316  0.64946857  0.50546959  1
  In  In8  1  0.00754631  0.33255657  0.35922386  1
  In  In9  1  0.15986612  0.50275805  0.67302787  1
  In  In10  1  0.01739713  0.14976306  0.17704950  1
  In  In11  1  0.16002743  0.67393431  0.83475666  1
  In  In12  1  0.00193973  0.00228935  0.67148936  1
  In  In13  1  0.83119612  0.49179681  0.00042811  1
  In  In14  1  0.82869454  0.35703221  0.81262422  1
  In  In15  1  -0.01025613  0.18889486  0.82980634  1
  In  In16  1  0.49921273  0.64211820  0.17323208  1
  In  In17  1  0.81752637  -0.01514764  0.16572415  1
  In  In18  1  0.21032880  0.18257629  0.04043301  1
  In  In19  1  0.15602364  0.32615013  0.48039193  1
  In  In20  1  0.31818948  0.32241301  0.67551648  1
  In  In21  1  0.51084707  0.64968248  0.49122898  1
  In  In22  1  0.81032399  0.19551093  0.34337184  1
  In  In23  1  0.49390525  0.68649901  0.84217680  1
  In  In24  1  0.33412434  0.49939591  0.85039766  1
  In  In25  1  0.82062821  0.50501296  0.34028726  1
  In  In26  1  0.18506675  0.18853567  0.67142923  1
  In  In27  1  0.65949053  0.67044877  0.02046882  1
  In  In28  1  0.64830342  0.33312172  0.00730355  1
  In  In29  1  0.47759843  0.34675810  0.48587613  1
  In  In30  1  0.49604533  0.00563476  0.50266829  1
  In  In31  1  0.82396729  0.83159201  -0.00239535  1
  In  In32  1  0.65894884  0.81309331  0.47613860  1
  In  In33  1  0.19174136  0.82562081  0.33414731  1
  In  In34  1  0.82140740  0.82234672  0.34164151  1
  In  In35  1  0.82488537  0.14145868  -0.01047349  1
  In  In36  1  -0.01271342  0.65159114  0.33465486  1
  In  In37  1  0.82990455  0.83279715  0.67071395  1
  In  In38  1  0.19050990  -0.00347769  0.13584541  1
  In  In39  1  0.81925682  0.66559879  0.83469425  1
  In  In40  1  0.01168749  -0.00541979  0.31961458  1
  In  In41  1  0.82226987  0.31759279  0.17037937  1
  In  In42  1  0.66073725  0.33365914  0.67510536  1
  In  In43  1  0.16800316  -0.00899645  0.87145622  1
  In  In44  1  0.32252133  0.17556099  0.50180305  1
  In  In45  1  0.20981063  0.33006209  0.83629612  1
  In  In46  1  0.82506396  -0.01440513  0.82733305  1
  In  In47  1  0.65372437  0.33882503  0.30564505  1
  In  In48  1  -0.02054933  0.38164496  0.64200270  1
  In  In49  1  0.33569697  0.83294190  0.49878214  1
  In  In50  1  0.02274261  0.66393142  -0.00075087  1
  In  In51  1  0.66636960  0.65391419  0.32980479  1
  In  In52  1  0.82354811  0.01483511  0.47688226  1
  In  In53  1  0.48341197  0.29323913  0.87941220  1
  In  In54  1  0.34099883  0.49089173  0.16597750  1
  In  In55  1  0.00387238  0.51939525  0.82759447  1
  In  In56  1  0.48459203  0.83978533  0.30735257  1
  In  In57  1  -0.01405858  0.15088598  0.49668301  1
  In  In58  1  0.49292900  0.83900166  0.70396454  1
  In  In59  1  0.68177111  0.66021091  0.65857214  1
  In  In60  1  0.65201508  0.16243980  0.85362431  1
  In  In61  1  0.00487483  0.49663461  0.15514841  1
  In  In62  1  0.03146033  0.32512373  0.01819873  1
  In  In63  1  0.46239040  0.03082109  0.84746193  1
  In  In64  1  0.15623770  0.84152387  0.69690107  1
  In  In65  1  0.66858492  0.17641402  0.50456809  1
  In  In66  1  0.19056838  0.00223202  0.48793309  1
  In  In67  1  0.50344132  0.15554025  0.29734410  1
  In  In68  1  0.15585962  0.67445461  0.16362739  1
  In  In69  1  0.32985947  0.83983255  0.15546510  1
  In  In70  1  -0.00081738  0.81838303  0.14531700  1
  In  In71  1  0.34346212  0.50762710  0.48418167  1
  Te  Te72  1  0.08786658  0.08327896  0.06389587  1
  Te  Te73  1  0.10131105  0.10113272  0.40790806  1
  Te  Te74  1  0.09086228  0.09390869  0.75371039  1
  Te  Te75  1  0.11603396  0.42438041  0.08699999  1
  Te  Te76  1  0.07942821  0.44066200  0.42999602  1
  Te  Te77  1  0.08948874  0.39692107  0.75759850  1
  Te  Te78  1  0.11807937  0.78165445  0.05201927  1
  Te  Te79  1  0.07821951  0.75701475  0.40821071  1
  Te  Te80  1  0.06496546  0.73561665  0.74044976  1
  Te  Te81  1  0.45467000  0.12322359  0.05791356  1
  Te  Te82  1  0.41397572  0.09402731  0.41105352  1
  Te  Te83  1  0.40714991  0.10714928  0.73579390  1
  Te  Te84  1  0.41056032  0.41573641  0.05586576  1
  Te  Te85  1  0.41882133  0.43142693  0.37934848  1
  Te  Te86  1  0.41736388  0.41009265  0.75464569  1
  Te  Te87  1  0.43187959  0.74877870  0.08175644  1
  Te  Te88  1  0.42110359  0.74444637  0.40974143  1
  Te  Te89  1  0.38820674  0.75278197  0.76220330  1
  Te  Te90  1  0.73282958  0.06969205  0.07808523  1
  Te  Te91  1  0.71821254  0.08216885  0.39339331  1
  Te  Te92  1  0.75415772  0.10145000  0.75723957  1
  Te  Te93  1  0.73781584  0.42000046  0.09708660  1
  Te  Te94  1  0.74689806  0.39500488  0.40508723  1
  Te  Te95  1  0.73917259  0.44803572  0.73677618  1
  Te  Te96  1  0.75832071  0.74750829  0.09821867  1
  Te  Te97  1  0.76730382  0.71683758  0.43592267  1
  Te  Te98  1  0.72852797  0.76559897  0.76140805  1
  Te  Te99  1  0.08504263  0.26764704  0.24209683  1
  Te  Te100  1  0.07413868  0.24936303  0.58412851  1
  Te  Te101  1  0.10720407  0.23899469  0.91716444  1
  Te  Te102  1  0.09196013  0.57284730  0.25715238  1
  Te  Te103  1  0.07218670  0.59004398  0.59428754  1
  Te  Te104  1  0.11002339  0.56132965  0.92664871  1
  Te  Te105  1  0.10266574  0.90512866  0.23389781  1
  Te  Te106  1  0.08177142  0.92691130  0.56347519  1
  Te  Te107  1  0.09341831  0.88259967  0.93401952  1
  Te  Te108  1  0.40069497  0.24524877  0.23481130  1
  Te  Te109  1  0.42250599  0.24987646  0.58909226  1
  Te  Te110  1  0.38264181  0.21165268  0.96116865  1
  Te  Te111  1  0.41937190  0.56414783  0.27198236  1
  Te  Te112  1  0.40290085  0.60203424  0.58878444  1
  Te  Te113  1  0.43754854  0.57701290  0.93114554  1
  Te  Te114  1  0.42149340  0.94269252  0.21787124  1
  Te  Te115  1  0.41467844  0.91863499  0.59683173  1
  Te  Te116  1  0.40606432  0.91345180  0.92355692  1
  Te  Te117  1  0.71718513  0.22331239  0.22564357  1
  Te  Te118  1  0.75529330  0.25455015  0.59324106  1
  Te  Te119  1  0.76246311  0.26315428  0.91668602  1
  Te  Te120  1  0.75841383  0.58639890  0.23592053  1
  Te  Te121  1  0.74614738  0.54102946  0.59840256  1
  Te  Te122  1  0.73398200  0.57246382  0.91856308  1
  Te  Te123  1  0.73501858  0.91276992  0.26413486  1
  Te  Te124  1  0.74084617  0.91624023  0.56820503  1
  Te  Te125  1  0.73708192  0.92984546  0.93005288  1
  Te  Te126  1  0.27139459  0.27445305  0.14457309  1
  Te  Te127  1  0.26950401  0.27292500  0.39676106  1
  Te  Te128  1  0.29687221  0.20581012  0.77983881  1
  Te  Te129  1  0.25294973  0.59051913  0.08204220  1
  Te  Te130  1  0.24825100  0.58222904  0.40028015  1
  Te  Te131  1  0.25954869  0.58555765  0.75057159  1
  Te  Te132  1  0.29425046  0.93589266  0.04468505  1
  Te  Te133  1  0.28411166  0.93175507  0.39184533  1
  Te  Te134  1  0.24600578  0.93938814  0.75730344  1
  Te  Te135  1  0.57232623  0.22536705  0.08085021  1
  Te  Te136  1  0.56774931  0.24783496  0.40931561  1
  Te  Te137  1  0.56595085  0.24365259  0.75896315  1
  Te  Te138  1  0.58235487  0.56052739  0.08253331  1
  Te  Te139  1  0.59627717  0.55776160  0.41686240  1
  Te  Te140  1  0.57808125  0.59471528  0.75041754  1
  Te  Te141  1  0.60160852  0.92627640  0.12264648  1
  Te  Te142  1  0.57468466  0.91780289  0.40547306  1
  Te  Te143  1  0.57602227  0.94055287  0.77965360  1
  Te  Te144  1  0.91881174  0.23863358  0.07943202  1
  Te  Te145  1  0.89997909  0.26615073  0.44469230  1
  Te  Te146  1  0.91318675  0.26634646  0.72360037  1
  Te  Te147  1  0.91394252  0.59286702  0.08065216  1
  Te  Te148  1  0.92395507  0.56094870  0.43415442  1
  Te  Te149  1  0.90378974  0.58343599  0.74354514  1
  Te  Te150  1  0.92578287  0.92939996  0.07572013  1
  Te  Te151  1  0.92398603  0.91176116  0.42421994  1
  Te  Te152  1  0.93384586  0.90000775  0.76022371  1
  Te  Te153  1  0.27325641  0.07700320  0.22929751  1
  Te  Te154  1  0.26293053  0.07453959  0.59970413  1
  Te  Te155  1  0.26599098  0.09004988  0.93594479  1
  Te  Te156  1  0.23372558  0.40361765  0.22123280  1
  Te  Te157  1  0.24883710  0.41671351  0.57719675  1
  Te  Te158  1  0.27977097  0.39938941  0.94773927  1
  Te  Te159  1  0.27171068  0.73124292  0.24732321  1
  Te  Te160  1  0.23491879  0.76264375  0.58621674  1
  Te  Te161  1  0.26193010  0.76611934  0.89267463  1
  Te  Te162  1  0.55511753  0.04238226  0.21589886  1
  Te  Te163  1  0.57974588  0.09194659  0.59611036  1
  Te  Te164  1  0.56574757  0.08255853  0.94709402  1
  Te  Te165  1  0.56904029  0.43378802  0.23290632  1
  Te  Te166  1  0.58112868  0.41829783  0.57110743  1
  Te  Te167  1  0.58330439  0.40118523  0.89492795  1
  Te  Te168  1  0.58655948  0.74864179  0.24115671  1
  Te  Te169  1  0.57477497  0.76021036  0.59198933  1
  Te  Te170  1  0.58921223  0.76859685  0.92730175  1
  Te  Te171  1  0.90645430  0.09728288  0.26613498  1
  Te  Te172  1  0.89435527  0.08044303  0.59644461  1
  Te  Te173  1  0.92995155  0.07119951  0.90513798  1
  Te  Te174  1  0.92114424  0.40527217  0.24679294  1
  Te  Te175  1  0.87891270  0.46042015  0.57063046  1
  Te  Te176  1  0.93429116  0.40866762  0.92136252  1
  Te  Te177  1  0.90865189  0.74405104  0.24232811  1
  Te  Te178  1  0.89053394  0.71978760  0.59653144  1
  Te  Te179  1  0.92206673  0.74371069  0.91748296  1
