# generated using pymatgen
data_In2Te3
_symmetry_space_group_name_H-M   'P 1'
_cell_length_a   18.81617398
_cell_length_b   18.80524170
_cell_length_c   18.80951816
_cell_angle_alpha   90.05312739
_cell_angle_beta   90.08738207
_cell_angle_gamma   89.88080521
_symmetry_Int_Tables_number   1
_chemical_formula_structural   In2Te3
_chemical_formula_sum   'In72 Te108'
_cell_volume   6655.58570090
_cell_formula_units_Z   36
loop_
 _symmetry_equiv_pos_site_id
 _symmetry_equiv_pos_as_xyz
  1  'x, y, z'
loop_
 _atom_site_type_symbol
 _atom_site_label
 _atom_site_symmetry_multiplicity
 _atom_site_fract_x
 _atom_site_fract_y
 _atom_site_fract_z
 _atom_site_occupancy
  In  In0  1  0.33734088  0.50861963  0.49805734  1
  In  In1  1  0.81699172  0.15389851  0.67409836  1
  In  In2  1  -0.01354731  0.47105988  0.16334119  1
  In  In3  1  0.51378067  0.49307127  0.02362112  1
  In  In4  1  0.49748264  0.50000711  0.31630852  1
  In  In5  1  0.67770355  0.34681427  0.71110876  1
  In  In6  1  0.32564582  0.83602553  0.83324558  1
  In  In7  1  0.67756132  0.14554424  0.49608727  1
  In  In8  1  0.15949664  0.14857203  0.65894732  1
  In  In9  1  0.18988044  0.20689524  0.33808079  1
  In  In10  1  0.19537225  0.67205250  0.17916467  1
  In  In11  1  0.15933861  0.48341809  0.66655464  1
  In  In12  1  -0.02540738  0.66249013  0.71479795  1
  In  In13  1  0.85144622  0.65367442  0.49473503  1
  In  In14  1  0.66887196  0.84914355  0.50785882  1
  In  In15  1  0.16429089  0.33889909  0.16255287  1
  In  In16  1  0.17332791  0.49249940  0.32445572  1
  In  In17  1  -0.02269381  0.18592380  0.84734396  1
  In  In18  1  0.33001507  0.00665814  0.02568539  1
  In  In19  1  0.67002890  0.17236332  0.15158385  1
  In  In20  1  0.00339391  0.50043277  0.49142222  1
  In  In21  1  -0.00795333  0.32830489  0.68702449  1
  In  In22  1  0.82550200  0.00469977  0.15849045  1
  In  In23  1  -0.01792962  0.32481257  0.32154015  1
  In  In24  1  0.15444037  -0.01899421  0.85479657  1
  In  In25  1  0.81434650  0.46573047  0.00027074  1
  In  In26  1  0.31633558  0.01558245  0.67565713  1
  In  In27  1  0.50475997  0.50739822  0.69638729  1
  In  In28  1  0.13643635  0.66594177  0.84533158  1
  In  In29  1  0.67615309  0.51035313  0.50872185  1
  In  In30  1  0.35751835  0.17765098  0.84103946  1
  In  In31  1  0.68091786  0.66139174  0.32130856  1
  In  In32  1  0.83793147  0.02128848  0.84049194  1
  In  In33  1  0.49942066  0.00618522  0.49540618  1
  In  In34  1  0.81329337  0.66296530  0.15522768  1
  In  In35  1  0.84698014  0.33162292  0.49413875  1
  In  In36  1  0.34281727  0.16503214  0.16644931  1
  In  In37  1  0.16807750  0.65536444  0.48524847  1
  In  In38  1  0.01064891  0.66235937  0.36432275  1
  In  In39  1  -0.02455898  -0.01180345  0.66563815  1
  In  In40  1  0.17795485  0.00058559  0.49920674  1
  In  In41  1  -0.00096997  0.00211438  0.29144541  1
  In  In42  1  -0.00506617  0.66532195  -0.02814321  1
  In  In43  1  0.52544470  0.67518868  0.84600664  1
  In  In44  1  0.34339548  0.81454748  0.48916632  1
  In  In45  1  0.48222423  0.33898638  0.50886409  1
  In  In46  1  0.52529947  0.84310416  0.66996780  1
  In  In47  1  0.16484103  0.85498958  -0.00133365  1
  In  In48  1  0.83170106  0.85857814  0.31503955  1
  In  In49  1  0.51215360  0.81651057  0.00226072  1
  In  In50  1  0.33890610  0.66785578  0.63993643  1
  In  In51  1  0.00414104  0.82619410  0.17081433  1
  In  In52  1  0.35169980  0.01418900  0.31225735  1
  In  In53  1  0.15784329  0.33369814  0.84661366  1
  In  In54  1  0.66088796  0.33043568  0.30945214  1
  In  In55  1  0.48720550  0.84492095  0.33388888  1
  In  In56  1  0.33763042  0.31893462  0.63959828  1
  In  In57  1  0.30602116  0.49163485  0.84489333  1
  In  In58  1  0.01229826  0.18420480  0.48076641  1
  In  In59  1  0.14572821  0.12785394  0.03036418  1
  In  In60  1  0.81314740  -0.00136072  0.48239101  1
  In  In61  1  0.50591324  0.32583130  0.15717461  1
  In  In62  1  0.01809467  0.80859508  0.48744902  1
  In  In63  1  0.51168712  0.65998368  0.16005111  1
  In  In64  1  0.51147150  0.31892439  0.84188541  1
  In  In65  1  0.51860080  0.16464774  0.30884282  1
  In  In66  1  0.34369898  0.64311306  0.01879413  1
  In  In67  1  0.52873277  0.00487081  0.84719806  1
  In  In68  1  0.79995906  0.81027793  0.68780977  1
  In  In69  1  0.83714610  0.81264599  0.00610773  1
  In  In70  1  0.66641861  0.51646599  0.84965591  1
  In  In71  1  0.66002387  0.00383250  0.00313323  1
  Te  Te72  1  0.04443924  0.06187075  0.11316405  1
  Te  Te73  1  0.09042799  0.08036622  0.40197989  1
  Te  Te74  1  0.06215191  0.08085338  0.75497671  1
  Te  Te75  1  0.07591012  0.40853914  0.06496354  1
  Te  Te76  1  0.08213483  0.40152435  0.40813583  1
  Te  Te77  1  0.06431049  0.43290598  0.77276833  1
  Te  Te78  1  0.08718704  0.73639780  0.07689762  1
  Te  Te79  1  0.12387926  0.77030423  0.37853868  1
  Te  Te80  1  0.07766992  0.76038233  0.74970564  1
  Te  Te81  1  0.43725660  0.09042907  0.08080807  1
  Te  Te82  1  0.42043683  0.10646907  0.41207605  1
  Te  Te83  1  0.43163124  0.08033824  0.75050592  1
  Te  Te84  1  0.40862336  0.42133409  0.09575917  1
  Te  Te85  1  0.40400895  0.41114882  0.40098771  1
  Te  Te86  1  0.40574118  0.40641430  0.75415785  1
  Te  Te87  1  0.40405053  0.75889049  0.09329883  1
  Te  Te88  1  0.43045532  0.72985148  0.40749993  1
  Te  Te89  1  0.41683894  0.74466090  0.75014962  1
  Te  Te90  1  0.76883729  0.10235004  0.05448330  1
  Te  Te91  1  0.74774284  0.08298475  0.38204932  1
  Te  Te92  1  0.72728076  0.10076229  0.77861610  1
  Te  Te93  1  0.74397014  0.35984786  0.08664130  1
  Te  Te94  1  0.74326138  0.41158982  0.41506844  1
  Te  Te95  1  0.77250176  0.45201424  0.75920053  1
  Te  Te96  1  0.73034464  0.77181633  0.10106208  1
  Te  Te97  1  0.76407797  0.75872336  0.42024780  1
  Te  Te98  1  0.72166322  0.73497558  0.78746608  1
  Te  Te99  1  0.07736446  0.23931835  0.23964032  1
  Te  Te100  1  0.08730731  0.26318920  0.58711952  1
  Te  Te101  1  0.08330879  0.24030854  0.94098321  1
  Te  Te102  1  0.07335255  0.58169061  0.24856155  1
  Te  Te103  1  0.07368452  0.59324795  0.59086206  1
  Te  Te104  1  0.08070985  0.55417467  0.92100418  1
  Te  Te105  1  0.10530809  0.91600735  0.23406069  1
  Te  Te106  1  0.08153562  0.91680628  0.58159390  1
  Te  Te107  1  0.04990199  0.90081463  0.91851053  1
  Te  Te108  1  0.41204802  0.26211021  0.26110194  1
  Te  Te109  1  0.44588962  0.22816418  0.59912518  1
  Te  Te110  1  0.41040983  0.27192723  0.93990579  1
  Te  Te111  1  0.40910447  0.58541224  0.23479696  1
  Te  Te112  1  0.44621031  0.58258024  0.57439384  1
  Te  Te113  1  0.42718537  0.57402526  0.90341556  1
  Te  Te114  1  0.42939421  0.92571605  0.22333770  1
  Te  Te115  1  0.40779480  0.91768596  0.59282161  1
  Te  Te116  1  0.41515283  0.92152162  0.92041338  1
  Te  Te117  1  0.76550706  0.25947061  0.22941337  1
  Te  Te118  1  0.74545938  0.26232471  0.58627643  1
  Te  Te119  1  0.77776923  0.30739281  0.94228675  1
  Te  Te120  1  0.74823984  0.55975640  0.23777907  1
  Te  Te121  1  0.76755079  0.58666351  0.59524230  1
  Te  Te122  1  0.76335229  0.59151511  0.93465568  1
  Te  Te123  1  0.72905693  0.91393551  0.22571894  1
  Te  Te124  1  0.75175022  0.93418525  0.60409284  1
  Te  Te125  1  0.75964372  0.91992445  0.92431253  1
  Te  Te126  1  0.24299433  0.23614975  0.07662472  1
  Te  Te127  1  0.24807508  0.27680030  0.45064976  1
  Te  Te128  1  0.24443097  0.24876602  0.74863362  1
  Te  Te129  1  0.23717693  0.56745053  0.08481534  1
  Te  Te130  1  0.26955769  0.59429941  0.39137057  1
  Te  Te131  1  0.24907100  0.58764372  0.73654611  1
  Te  Te132  1  0.23905016  0.92322232  0.10648433  1
  Te  Te133  1  0.27212712  0.92367748  0.40845666  1
  Te  Te134  1  0.22870980  0.90945398  0.74142077  1
  Te  Te135  1  0.57032111  0.23458477  0.05644604  1
  Te  Te136  1  0.58628302  0.25599002  0.42154203  1
  Te  Te137  1  0.60289902  0.23123368  0.76321257  1
  Te  Te138  1  0.60732516  0.59831960  0.06567845  1
  Te  Te139  1  0.58494171  0.58452090  0.41168242  1
  Te  Te140  1  0.60905120  0.61171498  0.73322181  1
  Te  Te141  1  0.56729379  0.92326948  0.08810703  1
  Te  Te142  1  0.59483366  0.93136663  0.40357919  1
  Te  Te143  1  0.61095917  0.90801037  0.77033043  1
  Te  Te144  1  0.88875740  0.29758222  0.04729973  1
  Te  Te145  1  0.89224741  0.22325156  0.39634840  1
  Te  Te146  1  0.87759982  0.26409761  0.76309833  1
  Te  Te147  1  0.91821966  0.58324791  0.07906995  1
  Te  Te148  1  0.90252568  0.55506546  0.39109817  1
  Te  Te149  1  0.88674139  0.56052982  0.76538753  1
  Te  Te150  1  0.92358889  0.91643707  0.07828930  1
  Te  Te151  1  0.93506607  0.92103801  0.41785270  1
  Te  Te152  1  0.89990600  0.90250086  0.76332491  1
  Te  Te153  1  0.23700418  0.09206051  0.24808503  1
  Te  Te154  1  0.26930141  0.10610102  0.56122308  1
  Te  Te155  1  0.24852157  0.08664446  0.90919286  1
  Te  Te156  1  0.26567485  0.41614268  0.23837712  1
  Te  Te157  1  0.23737159  0.40790316  0.55766730  1
  Te  Te158  1  0.24965703  0.39975123  0.94324279  1
  Te  Te159  1  0.24628095  0.76019660  0.28290811  1
  Te  Te160  1  0.23311128  0.75881981  0.57949688  1
  Te  Te161  1  0.25301324  0.73836037  0.92439415  1
  Te  Te162  1  0.59442211  0.06937506  0.22804369  1
  Te  Te163  1  0.59498859  0.06791921  0.58926731  1
  Te  Te164  1  0.57955250  0.11386157  0.93655268  1
  Te  Te165  1  0.59596926  0.43449822  0.21969242  1
  Te  Te166  1  0.58401859  0.41440056  0.60114323  1
  Te  Te167  1  0.59926928  0.40672993  0.93060515  1
  Te  Te168  1  0.58687364  0.75668631  0.25119692  1
  Te  Te169  1  0.58361706  0.74916483  0.57305427  1
  Te  Te170  1  0.62359797  0.76849647  0.90997979  1
  Te  Te171  1  0.92573659  0.10584949  0.21264307  1
  Te  Te172  1  0.91835556  0.09767975  0.57304229  1
  Te  Te173  1  0.91574148  0.09433510  0.94453180  1
  Te  Te174  1  0.88255773  0.40325252  0.24391980  1
  Te  Te175  1  0.91764096  0.42466720  0.59201911  1
  Te  Te176  1  0.91979630  0.38904484  0.92654957  1
  Te  Te177  1  0.91424026  0.74022272  0.26345770  1
  Te  Te178  1  0.91393683  0.76023375  0.58907241  1
  Te  Te179  1  0.88281088  0.72480539  0.89266865  1
