# generated using pymatgen
data_In2Te3
_symmetry_space_group_name_H-M   'P 1'
_cell_length_a   18.78083205
_cell_length_b   18.78159052
_cell_length_c   18.78817190
_cell_angle_alpha   89.92788885
_cell_angle_beta   89.96831819
_cell_angle_gamma   89.98541340
_symmetry_Int_Tables_number   1
_chemical_formula_structural   In2Te3
_chemical_formula_sum   'In72 Te108'
_cell_volume   6627.21861788
_cell_formula_units_Z   36
loop_
 _symmetry_equiv_pos_site_id
 _symmetry_equiv_pos_as_xyz
  1  'x, y, z'
loop_
 _atom_site_type_symbol
 _atom_site_label
 _atom_site_symmetry_multiplicity
 _atom_site_fract_x
 _atom_site_fract_y
 _atom_site_fract_z
 _atom_site_occupancy
  In  In0  1  0.84901067  0.86241692  -0.01261545  1
  In  In1  1  0.52953387  0.36106776  0.85168885  1
  In  In2  1  -0.01143192  0.17127422  0.81731117  1
  In  In3  1  0.51518615  0.35367891  0.18529408  1
  In  In4  1  0.47305963  0.84995333  0.31831692  1
  In  In5  1  0.50784495  0.33895504  0.48111256  1
  In  In6  1  0.33236041  0.14116400  0.84671057  1
  In  In7  1  0.52225646  0.17692343  0.01789430  1
  In  In8  1  0.51794559  0.16915957  0.66494627  1
  In  In9  1  0.00644912  0.64807283  0.33216602  1
  In  In10  1  -0.00457111  -0.00574828  0.68219469  1
  In  In11  1  0.32861895  0.64159204  0.01217258  1
  In  In12  1  0.15429224  0.20232215  0.30240448  1
  In  In13  1  0.67071996  0.01123656  0.01398862  1
  In  In14  1  -0.00471407  0.33543203  0.01791727  1
  In  In15  1  0.33087202  0.67692188  0.30906068  1
  In  In16  1  0.32183859  0.84912747  0.83938073  1
  In  In17  1  0.82894420  -0.01624913  0.48978401  1
  In  In18  1  0.66884995  0.81029894  0.15210767  1
  In  In19  1  0.66161270  0.65247481  0.00071806  1
  In  In20  1  0.49463334  0.64815497  0.16649353  1
  In  In21  1  0.17323480  0.47180039  0.30474347  1
  In  In22  1  0.83261831  0.16526332  0.30198004  1
  In  In23  1  -0.00070895  0.68004159  0.01782179  1
  In  In24  1  0.15072884  0.15295908  0.64622046  1
  In  In25  1  0.66517690  0.00395085  0.34221492  1
  In  In26  1  0.34647106  0.48885823  0.50690252  1
  In  In27  1  0.16751840  0.00476425  0.50156584  1
  In  In28  1  0.83179007  0.00590353  0.82584058  1
  In  In29  1  0.83193240  0.33913640  0.49350901  1
  In  In30  1  -0.00773894  0.68876763  0.65376387  1
  In  In31  1  0.17573953  0.48810174  0.67039353  1
  In  In32  1  0.35414517  0.68176730  0.66690821  1
  In  In33  1  0.82856643  0.64255216  0.18763002  1
  In  In34  1  0.45963412  -0.00649538  0.16340019  1
  In  In35  1  0.48328984  0.80899258  -0.00998703  1
  In  In36  1  0.49636181  0.17197561  0.34810180  1
  In  In37  1  0.00715366  0.01320816  0.00473540  1
  In  In38  1  0.33829202  0.34077640  0.66517418  1
  In  In39  1  0.85056322  0.00447025  0.15667985  1
  In  In40  1  0.16123374  0.48063621  0.03726986  1
  In  In41  1  0.15681476  0.67119876  0.46715625  1
  In  In42  1  0.53115282  0.66945939  0.49921953  1
  In  In43  1  0.64628779  0.18553108  0.15423546  1
  In  In44  1  0.34181021  0.85624711  0.50430295  1
  In  In45  1  0.67612366  0.50803059  0.49508814  1
  In  In46  1  0.67330188  0.83438492  0.52629437  1
  In  In47  1  0.52114050  0.64654595  0.81581057  1
  In  In48  1  0.16392396  0.86928752  0.03598391  1
  In  In49  1  0.12644605  0.84769058  0.30940257  1
  In  In50  1  0.48708231  0.01599509  0.51547902  1
  In  In51  1  0.51947711  -0.03109983  0.81834818  1
  In  In52  1  0.80960142  0.69615301  0.81132087  1
  In  In53  1  0.67647098  0.63752278  0.33094370  1
  In  In54  1  -0.02129320  0.48602428  0.85407657  1
  In  In55  1  0.84420573  0.83285892  0.33680678  1
  In  In56  1  0.67772890  0.34456976  0.66594065  1
  In  In57  1  0.32082938  0.15859178  0.47136403  1
  In  In58  1  0.00250328  0.50728255  0.47298557  1
  In  In59  1  0.82441976  0.49345014  0.67155270  1
  In  In60  1  0.17378968  0.84787257  0.66990623  1
  In  In61  1  0.82123676  0.16620579  0.67927575  1
  In  In62  1  0.35841712  0.49455268  0.85195200  1
  In  In63  1  0.00206576  0.18075389  0.49355701  1
  In  In64  1  0.16504750  0.33384986  0.83315563  1
  In  In65  1  0.84959099  0.34151958  0.16826489  1
  In  In66  1  0.15306449  0.66720658  0.82786545  1
  In  In67  1  0.84486835  0.64489747  0.51524678  1
  In  In68  1  0.36349561  0.31358139  0.02980837  1
  In  In69  1  0.32853031  0.16282560  0.17728762  1
  In  In70  1  0.83554019  0.51645066  -0.00988615  1
  In  In71  1  0.17889770  0.15328185  0.02170289  1
  Te  Te72  1  0.09235963  0.07234410  0.11709900  1
  Te  Te73  1  0.09325317  0.09646846  0.40676114  1
  Te  Te74  1  0.09475628  0.07510388  0.76521274  1
  Te  Te75  1  0.06380937  0.41071971  0.13275050  1
  Te  Te76  1  0.08276120  0.40547782  0.40345681  1
  Te  Te77  1  0.06705906  0.41380536  0.74863843  1
  Te  Te78  1  0.11095269  0.74092892  0.09323574  1
  Te  Te79  1  0.05034545  0.76605758  0.42062635  1
  Te  Te80  1  0.07143151  0.77197295  0.75652202  1
  Te  Te81  1  0.39943353  0.09054014  0.06349232  1
  Te  Te82  1  0.40587045  0.05778772  0.39295106  1
  Te  Te83  1  0.43109908  0.07493759  0.74966629  1
  Te  Te84  1  0.43109337  0.42955017  0.08828734  1
  Te  Te85  1  0.40794084  0.40931107  0.39861908  1
  Te  Te86  1  0.43838865  0.42562935  0.74244127  1
  Te  Te87  1  0.39968626  0.74909386  0.10016926  1
  Te  Te88  1  0.41140072  0.74202074  0.42745179  1
  Te  Te89  1  0.42838317  0.76415214  0.76822687  1
  Te  Te90  1  0.76300084  0.10898275  0.08625005  1
  Te  Te91  1  0.75527147  0.09756600  0.41849361  1
  Te  Te92  1  0.72569029  0.07984993  0.75262774  1
  Te  Te93  1  0.76010623  0.41196319  0.06756312  1
  Te  Te94  1  0.74494629  0.41714598  0.40081327  1
  Te  Te95  1  0.75407701  0.41246796  0.77322665  1
  Te  Te96  1  0.77532471  0.73837919  0.07056135  1
  Te  Te97  1  0.74620173  0.74429409  0.41767395  1
  Te  Te98  1  0.71678460  0.77957749  0.73303735  1
  Te  Te99  1  0.04550439  0.28164602  0.23183662  1
  Te  Te100  1  0.07734668  0.26567896  0.58881621  1
  Te  Te101  1  0.08444071  0.24225574  0.92548936  1
  Te  Te102  1  0.11095153  0.59362919  0.24088966  1
  Te  Te103  1  0.08653397  0.58609795  0.58558100  1
  Te  Te104  1  0.08776082  0.56822933  0.92657321  1
  Te  Te105  1  0.07105175  0.94826810  0.21313362  1
  Te  Te106  1  0.07174492  0.91288881  0.57641740  1
  Te  Te107  1  0.07965651  0.91326824  0.92358104  1
  Te  Te108  1  0.41520739  0.26178013  0.25612497  1
  Te  Te109  1  0.41493152  0.24305719  0.57496395  1
  Te  Te110  1  0.42276725  0.25405759  0.90218496  1
  Te  Te111  1  0.40515187  0.56377496  0.24953419  1
  Te  Te112  1  0.43563804  0.58114342  0.58868670  1
  Te  Te113  1  0.44874277  0.58164679  0.93599410  1
  Te  Te114  1  0.35945657  0.90638583  0.23593107  1
  Te  Te115  1  0.43316441  0.91058834  0.60437805  1
  Te  Te116  1  0.41827722  0.93113167  0.92728440  1
  Te  Te117  1  0.73212583  0.26692981  0.24775731  1
  Te  Te118  1  0.74216103  0.24413016  0.57184076  1
  Te  Te119  1  0.66980262  0.21635377  0.94290179  1
  Te  Te120  1  0.72797943  0.53616586  0.22993311  1
  Te  Te121  1  0.73019654  0.60209879  0.61262865  1
  Te  Te122  1  0.74107141  0.58342644  0.88886349  1
  Te  Te123  1  0.74491221  0.91841720  0.24046871  1
  Te  Te124  1  0.74888820  0.93638940  0.60602674  1
  Te  Te125  1  0.73050316  0.91474296  0.91279272  1
  Te  Te126  1  0.23193040  0.27489891  0.10154315  1
  Te  Te127  1  0.24439280  0.26436372  0.40398906  1
  Te  Te128  1  0.25318951  0.24201499  0.74767901  1
  Te  Te129  1  0.25475334  0.56502060  0.11527305  1
  Te  Te130  1  0.25737563  0.57423652  0.41083305  1
  Te  Te131  1  0.26580947  0.57909432  0.75724621  1
  Te  Te132  1  0.27738522  0.93173576  0.10359726  1
  Te  Te133  1  0.23555051  0.90396719  0.40865070  1
  Te  Te134  1  0.25729065  0.94220076  0.74502684  1
  Te  Te135  1  0.60355281  0.31065190  0.04519195  1
  Te  Te136  1  0.60260325  0.24597391  0.41617406  1
  Te  Te137  1  0.59733937  0.25475213  0.76203874  1
  Te  Te138  1  0.59908791  0.56459179  0.10192730  1
  Te  Te139  1  0.56265900  0.56067003  0.39793871  1
  Te  Te140  1  0.61036485  0.58778571  0.71516889  1
  Te  Te141  1  0.57166588  0.90992541  0.08623514  1
  Te  Te142  1  0.57798328  0.90552852  0.41989109  1
  Te  Te143  1  0.62703427  0.90934901  0.73623853  1
  Te  Te144  1  0.92026641  0.23177867  0.09478339  1
  Te  Te145  1  0.91577212  0.25775902  0.39500880  1
  Te  Te146  1  0.90395435  0.26857148  0.74706339  1
  Te  Te147  1  0.93016370  0.56966791  0.09768099  1
  Te  Te148  1  0.88902003  0.56895564  0.39109044  1
  Te  Te149  1  0.92276897  0.59105685  0.75422235  1
  Te  Te150  1  0.94381007  0.89712549  0.09980508  1
  Te  Te151  1  0.93138570  0.93754918  0.39440293  1
  Te  Te152  1  0.90763578  0.90102072  0.75486229  1
  Te  Te153  1  0.23369911  0.08376913  0.25701097  1
  Te  Te154  1  0.26982800  0.07544917  0.58999512  1
  Te  Te155  1  0.23409732  0.06052876  0.92093781  1
  Te  Te156  1  0.24717492  0.37240193  0.22452160  1
  Te  Te157  1  0.23630023  0.39680178  0.56560868  1
  Te  Te158  1  0.25592106  0.41175386  0.92904214  1
  Te  Te159  1  0.21062951  0.73987151  0.24375646  1
  Te  Te160  1  0.24149387  0.74029635  0.58128101  1
  Te  Te161  1  0.25106460  0.73949118  0.92084900  1
  Te  Te162  1  0.57552218  0.07534435  0.23700775  1
  Te  Te163  1  0.60112078  0.08600902  0.57520696  1
  Te  Te164  1  0.58612122  0.08755734  0.90753605  1
  Te  Te165  1  0.61390983  0.42918197  0.26436902  1
  Te  Te166  1  0.58012187  0.42647616  0.58321037  1
  Te  Te167  1  0.62332233  0.42825097  0.94331755  1
  Te  Te168  1  0.58241285  0.74709014  0.26203044  1
  Te  Te169  1  0.57924305  0.75423585  0.61207932  1
  Te  Te170  1  0.59552898  0.75306195  0.90706267  1
  Te  Te171  1  0.93950480  0.07191262  0.25583427  1
  Te  Te172  1  0.91869482  0.08730534  0.58484488  1
  Te  Te173  1  0.90651403  0.09719605  0.92320243  1
  Te  Te174  1  0.95091395  0.40369054  0.26074196  1
  Te  Te175  1  0.92416234  0.42490579  0.57914137  1
  Te  Te176  1  0.88866652  0.38280847  0.91939031  1
  Te  Te177  1  0.92595228  0.74702999  0.24146392  1
  Te  Te178  1  0.89915705  0.76876171  0.57252811  1
  Te  Te179  1  0.91822831  0.74987911  0.90963408  1
