# generated using pymatgen
data_In2Te3
_symmetry_space_group_name_H-M   'P 1'
_cell_length_a   18.77815728
_cell_length_b   18.77722811
_cell_length_c   18.78030539
_cell_angle_alpha   89.93625123
_cell_angle_beta   90.04791186
_cell_angle_gamma   90.01524105
_symmetry_Int_Tables_number   1
_chemical_formula_structural   In2Te3
_chemical_formula_sum   'In72 Te108'
_cell_volume   6621.96176380
_cell_formula_units_Z   36
loop_
 _symmetry_equiv_pos_site_id
 _symmetry_equiv_pos_as_xyz
  1  'x, y, z'
loop_
 _atom_site_type_symbol
 _atom_site_label
 _atom_site_symmetry_multiplicity
 _atom_site_fract_x
 _atom_site_fract_y
 _atom_site_fract_z
 _atom_site_occupancy
  In  In0  1  0.00659876  0.32658131  -0.02935241  1
  In  In1  1  0.83837544  0.66588149  0.49546049  1
  In  In2  1  0.66277480  0.15623180  0.15575159  1
  In  In3  1  0.86871034  0.46775040  0.63828818  1
  In  In4  1  0.19820514  0.03652836  0.18532994  1
  In  In5  1  0.81345591  0.15589622  0.00486279  1
  In  In6  1  0.49800050  0.47378517  -0.01027212  1
  In  In7  1  0.67524922  0.67693249  0.64798783  1
  In  In8  1  0.14654382  0.84027997  -0.00620297  1
  In  In9  1  0.68588442  0.48781741  0.17171634  1
  In  In10  1  0.34691178  0.84003524  0.17000349  1
  In  In11  1  0.15982997  0.83200162  0.33683259  1
  In  In12  1  0.32545686  0.84945078  0.83714637  1
  In  In13  1  0.82329471  0.02048608  0.82354925  1
  In  In14  1  0.34368105  0.66919688  0.67686669  1
  In  In15  1  0.18132474  0.48749833  0.01026186  1
  In  In16  1  0.15572612  0.48230375  0.65631112  1
  In  In17  1  0.00822986  0.01321899  0.66483226  1
  In  In18  1  0.16306409  0.66694701  0.84697002  1
  In  In19  1  0.01224100  0.32816502  0.35045490  1
  In  In20  1  0.50499063  0.00986986  0.83269905  1
  In  In21  1  0.32533213  0.32729975  0.33126574  1
  In  In22  1  0.15827000  0.64915166  0.48960489  1
  In  In23  1  0.67432979  0.84714767  0.51111626  1
  In  In24  1  0.81995589  0.31024939  0.83684022  1
  In  In25  1  0.16578978  0.34282251  0.50608105  1
  In  In26  1  0.19152316  0.30241672  0.15194884  1
  In  In27  1  0.34143545  0.46940555  0.83472896  1
  In  In28  1  0.31977872  0.66421287  0.35612548  1
  In  In29  1  0.02391257  0.16303632  0.81792346  1
  In  In30  1  0.69355909  0.33941092  0.38557662  1
  In  In31  1  0.66640160  0.67663669  0.00314390  1
  In  In32  1  0.49562278  0.01487367  0.51108179  1
  In  In33  1  0.81645814  0.66644057  0.83052266  1
  In  In34  1  0.02785449  -0.00217635  0.00566179  1
  In  In35  1  0.32253369  0.02329089  -0.02215175  1
  In  In36  1  0.50520536  0.48956192  0.34414819  1
  In  In37  1  0.47953161  0.66464359  0.84082991  1
  In  In38  1  -0.00305586  0.67498714  0.64596484  1
  In  In39  1  0.33361054  0.85438577  0.50362259  1
  In  In40  1  0.33526004  0.15614550  0.50471015  1
  In  In41  1  0.66728839  0.85826872  0.17305246  1
  In  In42  1  0.82167713  0.34132466  0.15783564  1
  In  In43  1  0.51070844  0.68749043  0.15817049  1
  In  In44  1  0.33184099  0.50132076  0.17067596  1
  In  In45  1  0.01072063  0.50335400  0.19152804  1
  In  In46  1  0.85079654  0.47786990  0.03339397  1
  In  In47  1  0.48047609  0.15845819  -0.02046221  1
  In  In48  1  0.49950445  -0.00912785  0.16670206  1
  In  In49  1  0.48024113  0.31999987  0.17290340  1
  In  In50  1  0.49118516  0.49584507  0.66215650  1
  In  In51  1  0.83183270  -0.00530936  0.49810174  1
  In  In52  1  0.65917863  0.66411694  0.31817703  1
  In  In53  1  0.49524106  0.16240298  0.66885709  1
  In  In54  1  0.01793854  0.46306345  0.77703370  1
  In  In55  1  0.84848599  0.17546776  0.34779735  1
  In  In56  1  0.50033193  0.66575269  0.49745727  1
  In  In57  1  0.81401857  0.82819318  0.00763529  1
  In  In58  1  0.67156327  -0.00012356  0.33398090  1
  In  In59  1  -0.00150433  0.86718667  0.83847627  1
  In  In60  1  0.82530291  0.16161804  0.64997931  1
  In  In61  1  0.00179092  0.14780420  0.17035660  1
  In  In62  1  0.17404593  0.85990781  0.66535985  1
  In  In63  1  0.00278109  0.65262716  0.00575533  1
  In  In64  1  0.50797509  0.31755767  0.50287714  1
  In  In65  1  -0.00701711  0.82465750  0.17328171  1
  In  In66  1  0.65140389  0.48059528  0.83760451  1
  In  In67  1  0.15834608  0.01816644  0.49509208  1
  In  In68  1  0.65729286  0.31326623  0.66347250  1
  In  In69  1  -0.00175761  0.00630874  0.35168518  1
  In  In70  1  -0.00910976  0.65366906  0.34102712  1
  In  In71  1  0.65075172  0.84343563  0.81568130  1
  Te  Te72  1  0.11364261  0.10307590  0.07544925  1
  Te  Te73  1  0.07600165  0.11370905  0.41606906  1
  Te  Te74  1  0.11629538  0.10414144  0.71545845  1
  Te  Te75  1  0.07226420  0.40229247  0.08723000  1
  Te  Te76  1  0.09991165  0.43363205  0.40657261  1
  Te  Te77  1  0.11999109  0.35716696  0.74127754  1
  Te  Te78  1  0.09270545  0.73780280  0.09451623  1
  Te  Te79  1  0.06795980  0.75675041  0.43082056  1
  Te  Te80  1  0.08327260  0.76068543  0.75511524  1
  Te  Te81  1  0.40278122  0.08622966  0.09124640  1
  Te  Te82  1  0.40916648  0.07559125  0.40357539  1
  Te  Te83  1  0.39364025  0.08984877  0.75770241  1
  Te  Te84  1  0.39207293  0.39861851  0.07305632  1
  Te  Te85  1  0.40778295  0.41088650  0.42869483  1
  Te  Te86  1  0.43361677  0.39124378  0.74957633  1
  Te  Te87  1  0.41930675  0.75898226  0.06882886  1
  Te  Te88  1  0.41914955  0.76428314  0.41320179  1
  Te  Te89  1  0.42664061  0.77394003  0.74759701  1
  Te  Te90  1  0.75123920  0.05616419  0.09301053  1
  Te  Te91  1  0.74298013  0.09866582  0.42652294  1
  Te  Te92  1  0.72850213  0.10091157  0.74476704  1
  Te  Te93  1  0.72380768  0.39554468  0.05365772  1
  Te  Te94  1  0.78362026  0.45238122  0.40726860  1
  Te  Te95  1  0.75447876  0.41941357  0.74185694  1
  Te  Te96  1  0.75123386  0.73707574  0.11166297  1
  Te  Te97  1  0.74322070  0.75327463  0.41228317  1
  Te  Te98  1  0.76055616  0.76964492  0.73510070  1
  Te  Te99  1  0.09221173  0.24031350  0.25010458  1
  Te  Te100  1  0.07576498  0.27464507  0.60688400  1
  Te  Te101  1  0.10964591  0.23299474  0.92057603  1
  Te  Te102  1  0.10211009  0.59449188  0.26153062  1
  Te  Te103  1  0.05903846  0.56161809  0.56652005  1
  Te  Te104  1  0.07091574  0.56038962  0.90570810  1
  Te  Te105  1  0.08929452  0.93236101  0.23969837  1
  Te  Te106  1  0.07192690  0.91237750  0.56731094  1
  Te  Te107  1  0.11508179  0.94955387  0.88852693  1
  Te  Te108  1  0.39952350  0.22145783  0.25298479  1
  Te  Te109  1  0.40094546  0.26086987  0.59437659  1
  Te  Te110  1  0.37264083  0.25024348  0.92350771  1
  Te  Te111  1  0.42769358  0.58901535  0.25672352  1
  Te  Te112  1  0.39948080  0.57597811  0.56950591  1
  Te  Te113  1  0.39765218  0.57549341  0.93193381  1
  Te  Te114  1  0.40885215  0.92994186  0.26822591  1
  Te  Te115  1  0.40643892  0.93479220  0.60199480  1
  Te  Te116  1  0.42386410  0.91994048  0.93009596  1
  Te  Te117  1  0.74531163  0.25207034  0.25630381  1
  Te  Te118  1  0.75586664  0.26442717  0.56454197  1
  Te  Te119  1  0.72348118  0.22787629  0.91225684  1
  Te  Te120  1  0.76383448  0.57288752  0.26286113  1
  Te  Te121  1  0.75966779  0.56812845  0.58715155  1
  Te  Te122  1  0.74916429  0.57043896  0.92906761  1
  Te  Te123  1  0.77045654  0.91613552  0.26206364  1
  Te  Te124  1  0.73208083  0.95044259  0.60026140  1
  Te  Te125  1  0.74282833  0.92197472  0.91174944  1
  Te  Te126  1  0.29694589  0.25013689  0.06374025  1
  Te  Te127  1  0.23680544  0.23778622  0.41760696  1
  Te  Te128  1  0.30719176  0.21690664  0.78486508  1
  Te  Te129  1  0.25091421  0.59207213  0.08552119  1
  Te  Te130  1  0.24548265  0.55303498  0.41837119  1
  Te  Te131  1  0.24541805  0.57907264  0.75182912  1
  Te  Te132  1  0.24209486  0.92387202  0.08120123  1
  Te  Te133  1  0.24993088  0.93489836  0.40424105  1
  Te  Te134  1  0.26798208  0.94592182  0.73931232  1
  Te  Te135  1  0.57084767  0.24694310  0.07491689  1
  Te  Te136  1  0.57966814  0.24784369  0.39505408  1
  Te  Te137  1  0.56745061  0.25324220  0.76536761  1
  Te  Te138  1  0.57729919  0.56843014  0.08311713  1
  Te  Te139  1  0.60032793  0.57398582  0.42835000  1
  Te  Te140  1  0.58509836  0.59512952  0.75130731  1
  Te  Te141  1  0.58532409  0.92125389  0.06856687  1
  Te  Te142  1  0.57525529  0.91760898  0.41929483  1
  Te  Te143  1  0.57998188  0.93705087  0.72604598  1
  Te  Te144  1  0.92053952  0.24680963  0.08222794  1
  Te  Te145  1  0.90891346  0.27354855  0.44597314  1
  Te  Te146  1  0.91890394  0.24563762  0.74301456  1
  Te  Te147  1  0.91040442  0.59313417  0.11142969  1
  Te  Te148  1  0.90724516  0.55267062  0.42204304  1
  Te  Te149  1  0.91545806  0.58621031  0.74589222  1
  Te  Te150  1  0.91804491  0.91903157  0.07719625  1
  Te  Te151  1  0.90913537  0.90418620  0.40893578  1
  Te  Te152  1  0.90450780  0.92393863  0.73524025  1
  Te  Te153  1  0.28297526  0.11582264  0.27402416  1
  Te  Te154  1  0.23266694  0.09781494  0.59849927  1
  Te  Te155  1  0.24902086  0.12359357  0.89290834  1
  Te  Te156  1  0.23131772  0.41467987  0.24671565  1
  Te  Te157  1  0.26694817  0.40432444  0.59830407  1
  Te  Te158  1  0.22305249  0.40432795  0.89576406  1
  Te  Te159  1  0.24989662  0.74666466  0.24871086  1
  Te  Te160  1  0.24508844  0.74317972  0.58324520  1
  Te  Te161  1  0.25688554  0.75006057  0.93202107  1
  Te  Te162  1  0.57312066  0.09049104  0.25894831  1
  Te  Te163  1  0.59662100  0.09951995  0.58062270  1
  Te  Te164  1  0.59733251  0.08543729  0.92278071  1
  Te  Te165  1  0.58791220  0.39941533  0.25232100  1
  Te  Te166  1  0.59296208  0.42312714  0.57590051  1
  Te  Te167  1  0.56042410  0.37759202  0.89472978  1
  Te  Te168  1  0.57157484  0.77691939  0.26326760  1
  Te  Te169  1  0.56684823  0.76617978  0.59050571  1
  Te  Te170  1  0.57211171  0.75928368  0.91948888  1
  Te  Te171  1  0.89889847  0.06999606  0.24821381  1
  Te  Te172  1  0.93147136  0.09449194  0.56218718  1
  Te  Te173  1  0.92912644  0.08560737  0.91784209  1
  Te  Te174  1  0.91294784  0.40802210  0.25961743  1
  Te  Te175  1  0.96222251  0.37315646  0.56998581  1
  Te  Te176  1  0.91043553  0.42436599  0.90127226  1
  Te  Te177  1  0.90648649  0.75315199  0.26791941  1
  Te  Te178  1  0.90169593  0.76763750  0.58405542  1
  Te  Te179  1  0.92264744  0.75266070  0.91768011  1
