# generated using pymatgen
data_In2Te3
_symmetry_space_group_name_H-M   'P 1'
_cell_length_a   18.74907138
_cell_length_b   18.75595967
_cell_length_c   18.75472505
_cell_angle_alpha   89.96934745
_cell_angle_beta   89.93147809
_cell_angle_gamma   89.97396323
_symmetry_Int_Tables_number   1
_chemical_formula_structural   In2Te3
_chemical_formula_sum   'In72 Te108'
_cell_volume   6595.22075774
_cell_formula_units_Z   36
loop_
 _symmetry_equiv_pos_site_id
 _symmetry_equiv_pos_as_xyz
  1  'x, y, z'
loop_
 _atom_site_type_symbol
 _atom_site_label
 _atom_site_symmetry_multiplicity
 _atom_site_fract_x
 _atom_site_fract_y
 _atom_site_fract_z
 _atom_site_occupancy
  In  In0  1  0.34959725  0.68666990  0.65869657  1
  In  In1  1  0.33717088  0.33236414  0.67098038  1
  In  In2  1  0.66434527  0.48653819  0.50317001  1
  In  In3  1  0.85254607  0.83422085  0.33286495  1
  In  In4  1  0.32561706  0.52194057  0.18278982  1
  In  In5  1  0.84356349  0.34216276  0.50615819  1
  In  In6  1  0.36627090  0.67164665  0.32609196  1
  In  In7  1  0.15327489  0.66756094  0.84145455  1
  In  In8  1  -0.00998198  0.16803602  0.17952570  1
  In  In9  1  0.33571642  0.00762750  0.00036908  1
  In  In10  1  -0.01182185  0.32877720  -0.00213170  1
  In  In11  1  0.00389316  0.82572612  0.14957704  1
  In  In12  1  0.50778279  0.00566944  0.49626531  1
  In  In13  1  0.82465190  0.80636942  0.68699554  1
  In  In14  1  0.50490061  0.51320092  0.00357725  1
  In  In15  1  0.67811203  0.68676841  0.00227340  1
  In  In16  1  0.82546959  -0.00525940  0.84066805  1
  In  In17  1  0.81604461  0.63247662  0.50374206  1
  In  In18  1  0.68792867  0.20220809  0.19282819  1
  In  In19  1  0.17169433  0.00827077  0.49142898  1
  In  In20  1  0.14295895  0.49211880  0.68619048  1
  In  In21  1  0.00206063  0.16459207  0.48753109  1
  In  In22  1  0.31265638  -0.03349913  0.69003501  1
  In  In23  1  0.33156523  0.49731580  0.84655281  1
  In  In24  1  0.49914344  0.82025999  -0.00759409  1
  In  In25  1  0.00760339  0.67408580  0.70230492  1
  In  In26  1  0.84595296  0.18771510  0.70279949  1
  In  In27  1  0.32229282  0.34115689  -0.01971096  1
  In  In28  1  0.50793808  0.83855854  0.68085444  1
  In  In29  1  0.35452269  0.83652950  0.17183953  1
  In  In30  1  0.65475036  0.83351726  0.51634098  1
  In  In31  1  0.14779886  0.67163943  0.14020274  1
  In  In32  1  0.34161670  0.65325959  0.00148440  1
  In  In33  1  -0.00114523  0.84124731  0.50715099  1
  In  In34  1  0.50788345  0.33183042  0.17139769  1
  In  In35  1  0.50049237  0.67686329  0.49832710  1
  In  In36  1  0.66470190  0.34553004  0.67015892  1
  In  In37  1  0.66199981  -0.00257331  0.33705321  1
  In  In38  1  0.34873944  0.15284790  0.18146447  1
  In  In39  1  0.84806078  -0.00742404  0.16835808  1
  In  In40  1  0.15548434  0.34668729  0.16497348  1
  In  In41  1  0.51026097  0.17063385  0.65257532  1
  In  In42  1  0.32579353  0.16760870  0.83027645  1
  In  In43  1  0.15137251  0.17716832  0.66884663  1
  In  In44  1  0.18071730  0.67139895  0.52057024  1
  In  In45  1  0.51357926  -0.00493693  0.83767904  1
  In  In46  1  -0.00880749  0.00051362  0.67944237  1
  In  In47  1  0.17694801  0.01409799  0.17719034  1
  In  In48  1  0.34195871  0.16612956  0.48857964  1
  In  In49  1  0.81350116  -0.00374003  0.49001449  1
  In  In50  1  0.51106865  -0.01237056  0.17646160  1
  In  In51  1  0.36642700  0.48108071  0.47152418  1
  In  In52  1  -0.00076166  0.34417725  0.31952127  1
  In  In53  1  0.16496395  0.50490594  0.31968300  1
  In  In54  1  0.64737976  0.69209667  0.31097097  1
  In  In55  1  0.00210437  0.69168389  0.28751445  1
  In  In56  1  0.67035358  0.51779435  0.82176523  1
  In  In57  1  0.65954423  -0.01233464  -0.00498989  1
  In  In58  1  0.83693584  0.66874939  0.85388384  1
  In  In59  1  0.16390906  0.18362791  -0.01698976  1
  In  In60  1  0.63697672  0.19089381  0.48045745  1
  In  In61  1  0.83546529  0.49076674  0.32758167  1
  In  In62  1  0.17441277  0.84960985  0.32828822  1
  In  In63  1  -0.03421546  0.48016318  0.50997828  1
  In  In64  1  0.66546025  0.48056660  0.15621519  1
  In  In65  1  0.69390157  0.33477811  0.00310386  1
  In  In66  1  -0.02237406  0.49342874  0.83872081  1
  In  In67  1  0.82470733  0.16466326  -0.00912447  1
  In  In68  1  0.18134040  0.31446768  0.51332265  1
  In  In69  1  0.00123927  -0.01902345  -0.00851798  1
  In  In70  1  0.14621442  0.81852232  -0.00349952  1
  In  In71  1  0.49304853  0.32418564  0.82798910  1
  Te  Te72  1  0.07918047  0.08411708  0.07733112  1
  Te  Te73  1  0.09187637  0.08956563  0.39831904  1
  Te  Te74  1  0.08005537  0.08661737  0.76106212  1
  Te  Te75  1  0.08187950  0.42424539  0.06492952  1
  Te  Te76  1  0.08728133  0.42332943  0.42360377  1
  Te  Te77  1  0.04924974  0.39339666  0.74836647  1
  Te  Te78  1  0.02591937  0.71161489  0.03768512  1
  Te  Te79  1  0.08418205  0.75024203  0.41586313  1
  Te  Te80  1  0.11225962  0.77385392  0.74017697  1
  Te  Te81  1  0.43985964  0.08379873  0.07852552  1
  Te  Te82  1  0.42875156  0.08428392  0.39990021  1
  Te  Te83  1  0.41614136  0.08328462  0.73902773  1
  Te  Te84  1  0.40963805  0.42005374  0.08042892  1
  Te  Te85  1  0.45801402  0.39777998  0.39006034  1
  Te  Te86  1  0.42741097  0.43248918  0.74374221  1
  Te  Te87  1  0.43131968  0.72757812  0.09980043  1
  Te  Te88  1  0.40930992  0.76902728  0.42617511  1
  Te  Te89  1  0.42074989  0.75580643  0.76773571  1
  Te  Te90  1  0.74367417  0.08022730  0.09416241  1
  Te  Te91  1  0.74442825  0.10455319  0.40783978  1
  Te  Te92  1  0.75104462  0.08662971  0.75071341  1
  Te  Te93  1  0.78307863  0.42369477  0.08383494  1
  Te  Te94  1  0.73678395  0.39033701  0.40119640  1
  Te  Te95  1  0.75735826  0.40876564  0.76663769  1
  Te  Te96  1  0.79282439  0.75064509  0.07158671  1
  Te  Te97  1  0.75593062  0.75406417  0.42375114  1
  Te  Te98  1  0.72774400  0.74008286  0.77821560  1
  Te  Te99  1  0.09765937  0.24128351  0.25941189  1
  Te  Te100  1  0.05650115  0.26722323  0.58652311  1
  Te  Te101  1  0.05999836  0.24370682  0.89389251  1
  Te  Te102  1  0.06274248  0.56294918  0.22166880  1
  Te  Te103  1  0.06989712  0.58283693  0.58231905  1
  Te  Te104  1  0.08021303  0.56523227  0.92020920  1
  Te  Te105  1  0.06958121  0.92478140  0.24505591  1
  Te  Te106  1  0.09347705  0.92312630  0.59235169  1
  Te  Te107  1  0.09291013  0.91371721  0.89393920  1
  Te  Te108  1  0.42816806  0.24729735  0.26805769  1
  Te  Te109  1  0.42811415  0.26717313  0.56778858  1
  Te  Te110  1  0.42067740  0.23535326  0.92973200  1
  Te  Te111  1  0.44536273  0.57204018  0.25303647  1
  Te  Te112  1  0.42160502  0.57310878  0.57919614  1
  Te  Te113  1  0.43834151  0.59750474  0.89510062  1
  Te  Te114  1  0.40601735  0.93512111  0.26797796  1
  Te  Te115  1  0.41750327  0.92012186  0.58827305  1
  Te  Te116  1  0.40661811  0.90947239  0.90741469  1
  Te  Te117  1  0.76528104  0.28915629  0.28154650  1
  Te  Te118  1  0.75027904  0.24302958  0.57986635  1
  Te  Te119  1  0.75654517  0.25505065  0.89485765  1
  Te  Te120  1  0.73786331  0.58227623  0.25177751  1
  Te  Te121  1  0.73324041  0.56872445  0.61151863  1
  Te  Te122  1  0.75584223  0.56942884  0.93890044  1
  Te  Te123  1  0.74773950  0.90700396  0.24806193  1
  Te  Te124  1  0.75122050  0.91460057  0.60277897  1
  Te  Te125  1  0.73452545  0.89598104  0.90712477  1
  Te  Te126  1  0.25629642  0.24314998  0.08996850  1
  Te  Te127  1  0.25688287  0.25467133  0.40351805  1
  Te  Te128  1  0.23431824  0.27016912  0.76341654  1
  Te  Te129  1  0.23505479  0.56640100  0.06810524  1
  Te  Te130  1  0.25595724  0.58505729  0.41529938  1
  Te  Te131  1  0.24953639  0.58743223  0.74251457  1
  Te  Te132  1  0.24517613  0.90714711  0.08625949  1
  Te  Te133  1  0.26538358  0.91396097  0.42404285  1
  Te  Te134  1  0.21770963  0.89401118  0.77464553  1
  Te  Te135  1  0.59482560  0.24621318  0.07884758  1
  Te  Te136  1  0.54701734  0.26740227  0.38900674  1
  Te  Te137  1  0.59624439  0.23589638  0.75969580  1
  Te  Te138  1  0.58882539  0.59893220  0.09473879  1
  Te  Te139  1  0.59133586  0.58962943  0.41269972  1
  Te  Te140  1  0.60431723  0.59039370  0.71130157  1
  Te  Te141  1  0.59412329  0.88053873  0.10191454  1
  Te  Te142  1  0.57068365  0.89567383  0.40648561  1
  Te  Te143  1  0.60813292  0.92215374  0.75076934  1
  Te  Te144  1  0.89654475  0.25128189  0.09555675  1
  Te  Te145  1  0.90947186  0.24974946  0.40025871  1
  Te  Te146  1  0.95134950  0.26254012  0.77183558  1
  Te  Te147  1  0.93420381  0.61515956  0.12578893  1
  Te  Te148  1  0.92756701  0.59212478  0.40244007  1
  Te  Te149  1  0.89653384  0.58106272  0.74080798  1
  Te  Te150  1  0.89284380  0.89670258  0.05704373  1
  Te  Te151  1  0.93193235  0.93916322  0.41065916  1
  Te  Te152  1  0.92041882  0.89543191  0.76596733  1
  Te  Te153  1  0.26346422  0.07737340  0.27740497  1
  Te  Te154  1  0.25962366  0.09152263  0.59879826  1
  Te  Te155  1  0.23389803  0.07083129  0.90553021  1
  Te  Te156  1  0.26372583  0.40487572  0.25919219  1
  Te  Te157  1  0.25221594  0.43252228  0.58270870  1
  Te  Te158  1  0.22199628  0.41414087  0.90151023  1
  Te  Te159  1  0.24168792  0.73486027  0.24279936  1
  Te  Te160  1  0.25850665  0.77840555  0.58449788  1
  Te  Te161  1  0.25974688  0.75031934  0.91805299  1
  Te  Te162  1  0.58795891  0.09873839  0.25038872  1
  Te  Te163  1  0.60900430  0.07674092  0.58390095  1
  Te  Te164  1  0.58437930  0.09233290  0.92350907  1
  Te  Te165  1  0.58267169  0.42059302  0.26621358  1
  Te  Te166  1  0.56530726  0.40482170  0.57806056  1
  Te  Te167  1  0.58343810  0.41531823  0.91636181  1
  Te  Te168  1  0.57258797  0.78448039  0.22606890  1
  Te  Te169  1  0.59806868  0.72388466  0.60688634  1
  Te  Te170  1  0.59185554  0.75034431  0.89744760  1
  Te  Te171  1  0.90475854  0.08577364  0.26741521  1
  Te  Te172  1  0.90638013  0.08471932  0.58116328  1
  Te  Te173  1  0.92811730  0.08699839  0.90932402  1
  Te  Te174  1  0.91351296  0.41765019  0.22390651  1
  Te  Te175  1  0.88556024  0.42587765  0.62197222  1
  Te  Te176  1  0.88740148  0.41940021  0.93292417  1
  Te  Te177  1  0.87039865  0.73163419  0.21033003  1
  Te  Te178  1  0.91212998  0.73717019  0.57791462  1
  Te  Te179  1  0.92776769  0.75936058  0.92566866  1
