# generated using pymatgen
data_In2Te3
_symmetry_space_group_name_H-M   'P 1'
_cell_length_a   18.90955257
_cell_length_b   18.91954927
_cell_length_c   18.88722507
_cell_angle_alpha   89.92984264
_cell_angle_beta   89.95953366
_cell_angle_gamma   89.96614493
_symmetry_Int_Tables_number   1
_chemical_formula_structural   In2Te3
_chemical_formula_sum   'In72 Te108'
_cell_volume   6757.08971108
_cell_formula_units_Z   36
loop_
 _symmetry_equiv_pos_site_id
 _symmetry_equiv_pos_as_xyz
  1  'x, y, z'
loop_
 _atom_site_type_symbol
 _atom_site_label
 _atom_site_symmetry_multiplicity
 _atom_site_fract_x
 _atom_site_fract_y
 _atom_site_fract_z
 _atom_site_occupancy
  In  In0  1  0.02120410  0.65559285  0.66754031  1
  In  In1  1  0.17242460  0.84704508  0.31880734  1
  In  In2  1  0.33011512  0.82131490  0.17292031  1
  In  In3  1  0.85284258  0.49086195  0.33147477  1
  In  In4  1  0.32468491  -0.00456036  0.32121536  1
  In  In5  1  0.68992502  -0.01306884  0.33719398  1
  In  In6  1  0.34279284  0.33443476  -0.03963579  1
  In  In7  1  0.63992222  0.48674062  0.16207150  1
  In  In8  1  0.50805936  0.18031512  0.69297542  1
  In  In9  1  0.80497929  0.50578820  0.67709060  1
  In  In10  1  0.50082156  0.66488187  0.83289656  1
  In  In11  1  0.15206329  0.14097058  0.69981473  1
  In  In12  1  0.65675647  0.64096446  -0.00821225  1
  In  In13  1  0.65533110  0.49382113  0.83602000  1
  In  In14  1  0.00432596  0.52595282  0.52489161  1
  In  In15  1  0.63508526  0.34547342  0.00470905  1
  In  In16  1  -0.02736448  0.72999193  0.34447093  1
  In  In17  1  0.66365478  0.82970958  0.49325876  1
  In  In18  1  0.02221447  0.33034015  0.31739840  1
  In  In19  1  0.83346806  0.15394070  0.66572201  1
  In  In20  1  0.82709978  0.33530993  0.83788385  1
  In  In21  1  0.50577527  0.01781819  0.15470345  1
  In  In22  1  0.66563748  0.15806195  0.47202196  1
  In  In23  1  0.64398251  0.17573817  0.13601640  1
  In  In24  1  0.63500923  0.65547927  0.32838819  1
  In  In25  1  0.83961289  -0.00672524  0.16548571  1
  In  In26  1  0.65728030  0.33959866  0.31716699  1
  In  In27  1  0.33957951  0.83799952  0.84985007  1
  In  In28  1  0.81192568  0.15757931  0.31154298  1
  In  In29  1  0.16390023  0.01657517  0.50451533  1
  In  In30  1  0.02266820  0.49583848  0.15424291  1
  In  In31  1  0.84353026  0.66851907  0.17939675  1
  In  In32  1  0.48738584  -0.02782124  0.50037658  1
  In  In33  1  0.51134305  0.66607542  0.48712018  1
  In  In34  1  0.32912719  0.65274212  0.68360391  1
  In  In35  1  0.16827967  0.86289468  -0.00851815  1
  In  In36  1  0.49545628  0.17970414  0.33854198  1
  In  In37  1  0.36746003  0.51632383  0.17166970  1
  In  In38  1  0.48871652  0.48588223  0.68249548  1
  In  In39  1  0.18345717  0.64317125  0.81592004  1
  In  In40  1  0.79466280  0.65912486  0.83997228  1
  In  In41  1  0.64590388  0.00593660  -0.02139023  1
  In  In42  1  0.33520900  0.31894500  0.69671457  1
  In  In43  1  0.19532420  0.13684705  -0.03392609  1
  In  In44  1  -0.00465831  0.16750746  0.49300194  1
  In  In45  1  0.00776014  0.68319937  0.00843867  1
  In  In46  1  0.16015817  0.64723021  0.49718491  1
  In  In47  1  0.65647513  0.51054369  0.51880040  1
  In  In48  1  0.35326680  0.80567248  0.51522080  1
  In  In49  1  0.17163207  0.86623598  0.68029243  1
  In  In50  1  0.84432936  0.01348560  0.84577003  1
  In  In51  1  0.17069432  0.51317849  0.33415449  1
  In  In52  1  0.02234195  0.29911132  -0.00970300  1
  In  In53  1  0.47992516  0.01023737  0.84996810  1
  In  In54  1  0.83008738  0.83737109  0.02892617  1
  In  In55  1  0.16564042  0.66803342  0.15743200  1
  In  In56  1  -0.00545778  0.85387407  0.85045537  1
  In  In57  1  0.83057566  0.72323788  0.48758522  1
  In  In58  1  0.31735738  0.18690682  0.51016153  1
  In  In59  1  0.34277063  0.66589968  0.01740891  1
  In  In60  1  0.33707971  0.16252299  0.15039879  1
  In  In61  1  0.83579158  0.82690128  0.66906654  1
  In  In62  1  0.66679523  0.01643223  0.67271968  1
  In  In63  1  0.18143006  0.34420266  0.52154964  1
  In  In64  1  0.82696628  0.31761910  0.51545580  1
  In  In65  1  0.01930657  0.34916261  0.69350326  1
  In  In66  1  0.33593435  0.34253924  0.36340915  1
  In  In67  1  0.01417636  0.48658421  0.83456855  1
  In  In68  1  0.16437032  0.00065696  0.15641153  1
  In  In69  1  0.15987045  0.32753144  0.16639373  1
  In  In70  1  0.65243299  0.83772763  0.81308422  1
  In  In71  1  0.84998513  0.17720169  -0.00483817  1
  Te  Te72  1  0.09349231  0.08619937  0.05950880  1
  Te  Te73  1  0.08671285  0.09325426  0.40589925  1
  Te  Te74  1  0.06002510  0.07151320  0.79231885  1
  Te  Te75  1  0.10235870  0.41477824  0.05566576  1
  Te  Te76  1  0.07397526  0.42250345  0.42841886  1
  Te  Te77  1  0.12860894  0.41634078  0.76918790  1
  Te  Te78  1  0.08677296  0.78112824  0.09287711  1
  Te  Te79  1  0.09606751  0.76442204  0.42592474  1
  Te  Te80  1  0.08419432  0.75796237  0.76871546  1
  Te  Te81  1  0.41811664  0.08393266  0.05338518  1
  Te  Te82  1  0.40446663  0.08712039  0.42039611  1
  Te  Te83  1  0.40074846  0.10327779  0.76041817  1
  Te  Te84  1  0.40944849  0.41969830  0.06975324  1
  Te  Te85  1  0.44529614  0.43254640  0.39562429  1
  Te  Te86  1  0.44446927  0.38015673  0.78080125  1
  Te  Te87  1  0.43309464  0.76095946  0.08472913  1
  Te  Te88  1  0.41834103  0.74176571  0.39927269  1
  Te  Te89  1  0.41784758  0.75889096  0.74570841  1
  Te  Te90  1  0.74865089  0.08522148  0.06874372  1
  Te  Te91  1  0.77810378  0.06527283  0.43283558  1
  Te  Te92  1  0.74016218  0.09935294  0.77592939  1
  Te  Te93  1  0.74021971  0.40796864  0.08698158  1
  Te  Te94  1  0.75334112  0.41658236  0.42235260  1
  Te  Te95  1  0.72470191  0.39035235  0.73699825  1
  Te  Te96  1  0.73933527  0.73146958  0.08668528  1
  Te  Te97  1  0.73641535  0.75950724  0.36923903  1
  Te  Te98  1  0.72876346  0.73709202  0.72821619  1
  Te  Te99  1  0.06702136  0.22694134  0.22278235  1
  Te  Te100  1  0.08829032  0.24729836  0.59574151  1
  Te  Te101  1  0.11947135  0.24523873  0.88967585  1
  Te  Te102  1  0.06910250  0.59702873  0.25786130  1
  Te  Te103  1  0.12080425  0.55400651  0.61692096  1
  Te  Te104  1  0.08941162  0.58673821  0.92261567  1
  Te  Te105  1  0.07615296  0.93877678  0.25865520  1
  Te  Te106  1  0.07726263  0.93390911  0.59144613  1
  Te  Te107  1  0.09407380  0.95511770  0.89825419  1
  Te  Te108  1  0.40173277  0.25717106  0.25033279  1
  Te  Te109  1  0.42505345  0.25758917  0.58518360  1
  Te  Te110  1  0.44354642  0.22109772  0.95613595  1
  Te  Te111  1  0.42409965  0.61935194  0.26096694  1
  Te  Te112  1  0.42160550  0.58547101  0.58537511  1
  Te  Te113  1  0.41344226  0.58054173  0.91731639  1
  Te  Te114  1  0.42837965  0.91942871  0.24403769  1
  Te  Te115  1  0.39479662  0.91816103  0.59964231  1
  Te  Te116  1  0.43371285  0.90354075  0.94114909  1
  Te  Te117  1  0.74219403  0.25796721  0.22071637  1
  Te  Te118  1  0.72527715  0.23582895  0.59123798  1
  Te  Te119  1  0.73801490  0.25532194  0.92983938  1
  Te  Te120  1  0.74718003  0.56907665  0.25429172  1
  Te  Te121  1  0.76462971  0.60339614  0.56863059  1
  Te  Te122  1  0.76156928  0.54510010  0.93208164  1
  Te  Te123  1  0.72424781  0.91198802  0.21435304  1
  Te  Te124  1  0.74656757  0.91955818  0.58622183  1
  Te  Te125  1  0.75350468  0.90378323  0.90643095  1
  Te  Te126  1  0.24947139  0.25427038  0.06463285  1
  Te  Te127  1  0.22353481  0.25019693  0.40862592  1
  Te  Te128  1  0.23572014  0.23942726  0.77813419  1
  Te  Te129  1  0.24750823  0.56689539  0.08354249  1
  Te  Te130  1  0.26346959  0.56496775  0.43434507  1
  Te  Te131  1  0.29860293  0.54781336  0.79066248  1
  Te  Te132  1  0.27311013  0.92750157  0.07864933  1
  Te  Te133  1  0.26213708  0.90956421  0.43047592  1
  Te  Te134  1  0.25430340  0.94249846  0.77987722  1
  Te  Te135  1  0.53363072  0.26072402  0.08056773  1
  Te  Te136  1  0.57546122  0.27232417  0.42795203  1
  Te  Te137  1  0.62075514  0.26016661  0.73508768  1
  Te  Te138  1  0.55689363  0.56761165  0.07033081  1
  Te  Te139  1  0.56139737  0.53854776  0.40125610  1
  Te  Te140  1  0.59023395  0.58782109  0.73717132  1
  Te  Te141  1  0.60095386  0.92148151  0.09152046  1
  Te  Te142  1  0.57339565  0.90511491  0.39567284  1
  Te  Te143  1  0.56101957  0.93206902  0.74077708  1
  Te  Te144  1  0.93614915  0.24095940  0.09672353  1
  Te  Te145  1  0.90329451  0.25822629  0.39801512  1
  Te  Te146  1  0.91859751  0.25168179  0.74997376  1
  Te  Te147  1  0.91981167  0.58142869  0.07966448  1
  Te  Te148  1  0.91970799  0.59611636  0.41866099  1
  Te  Te149  1  0.91326707  0.58150813  0.75519982  1
  Te  Te150  1  0.92693947  0.94161612  0.05745518  1
  Te  Te151  1  0.88110794  0.83787617  0.40087080  1
  Te  Te152  1  0.91942556  0.92990614  0.74151035  1
  Te  Te153  1  0.24179353  0.09738893  0.24913804  1
  Te  Te154  1  0.25696681  0.08466346  0.60416580  1
  Te  Te155  1  0.28746501  0.06423669  0.87387568  1
  Te  Te156  1  0.25220040  0.41918461  0.24751019  1
  Te  Te157  1  0.28812631  0.41387867  0.59232784  1
  Te  Te158  1  0.25464787  0.42555063  0.88101924  1
  Te  Te159  1  0.25251770  0.72853488  0.26590008  1
  Te  Te160  1  0.23383260  0.74429645  0.60267388  1
  Te  Te161  1  0.23701738  0.74289679  0.92471334  1
  Te  Te162  1  0.59633351  0.09371996  0.26391232  1
  Te  Te163  1  0.57096007  0.08155248  0.56803706  1
  Te  Te164  1  0.56721474  0.11457350  0.91454606  1
  Te  Te165  1  0.54568147  0.41038520  0.25008571  1
  Te  Te166  1  0.57850802  0.41131781  0.59159767  1
  Te  Te167  1  0.54868987  0.41523388  0.90289279  1
  Te  Te168  1  0.54505929  0.69884757  0.21929086  1
  Te  Te169  1  0.57421621  0.75724740  0.58322714  1
  Te  Te170  1  0.58371340  0.75684570  0.92139359  1
  Te  Te171  1  0.91664874  0.06488994  0.26854359  1
  Te  Te172  1  0.92532466  0.07460997  0.58363362  1
  Te  Te173  1  0.94466496  0.11089704  0.89796416  1
  Te  Te174  1  0.92307911  0.40652446  0.22782997  1
  Te  Te175  1  0.91198906  0.41820311  0.59516033  1
  Te  Te176  1  0.92698419  0.40491256  0.92789025  1
  Te  Te177  1  0.92451528  0.78553182  0.21625705  1
  Te  Te178  1  0.94529287  0.75769209  0.58755149  1
  Te  Te179  1  0.89977741  0.74310085  0.91045090  1
