# generated using pymatgen
data_In2Te3
_symmetry_space_group_name_H-M   'P 1'
_cell_length_a   19.02393904
_cell_length_b   18.97071217
_cell_length_c   19.01948711
_cell_angle_alpha   89.97210905
_cell_angle_beta   89.81778332
_cell_angle_gamma   90.00173962
_symmetry_Int_Tables_number   1
_chemical_formula_structural   In2Te3
_chemical_formula_sum   'In72 Te108'
_cell_volume   6864.05308535
_cell_formula_units_Z   36
loop_
 _symmetry_equiv_pos_site_id
 _symmetry_equiv_pos_as_xyz
  1  'x, y, z'
loop_
 _atom_site_type_symbol
 _atom_site_label
 _atom_site_symmetry_multiplicity
 _atom_site_fract_x
 _atom_site_fract_y
 _atom_site_fract_z
 _atom_site_occupancy
  In  In0  1  0.00210258  0.79878844  0.17034964  1
  In  In1  1  0.51047628  0.52197912  0.00836187  1
  In  In2  1  0.67168782  0.02200909  0.02618177  1
  In  In3  1  0.14611078  0.54590387  -0.04300392  1
  In  In4  1  0.14048730  -0.04972381  0.16330970  1
  In  In5  1  0.86527331  0.65055257  0.84309683  1
  In  In6  1  0.33046270  0.00322965  0.33521156  1
  In  In7  1  0.32348139  0.82596210  0.17772546  1
  In  In8  1  0.32009913  0.68756218  -0.01404841  1
  In  In9  1  0.83777098  0.16195957  0.32889017  1
  In  In10  1  0.33133264  0.53629827  0.48942106  1
  In  In11  1  0.50145906  -0.03044070  0.84999576  1
  In  In12  1  0.48464980  0.84100624  0.00242159  1
  In  In13  1  0.84098217  0.81361660  0.36053977  1
  In  In14  1  0.16348274  -0.00712060  0.53138927  1
  In  In15  1  0.80702551  0.83271565  0.01348939  1
  In  In16  1  0.15314927  0.52476627  0.36161323  1
  In  In17  1  0.16439229  0.33418759  0.13914183  1
  In  In18  1  0.13567328  0.80406769  0.66001153  1
  In  In19  1  0.86036338  0.47924736  -0.02531727  1
  In  In20  1  0.84631721  0.00359823  0.83315228  1
  In  In21  1  0.48039075  0.18517641  0.00593408  1
  In  In22  1  0.49679396  0.65309843  0.83247609  1
  In  In23  1  0.49400221  0.33078544  0.78615902  1
  In  In24  1  0.66321358  0.17744622  0.49738753  1
  In  In25  1  0.51574309  0.31673431  0.18377686  1
  In  In26  1  0.31396596  0.35743699  -0.00640477  1
  In  In27  1  -0.01883497  0.49980904  0.15187469  1
  In  In28  1  0.82278880  -0.02347122  0.49212703  1
  In  In29  1  0.66744450  0.49496765  0.82592231  1
  In  In30  1  0.65867963  0.82843886  0.81991690  1
  In  In31  1  0.17617087  0.15398724  0.33349521  1
  In  In32  1  0.32780064  0.33870072  0.32345375  1
  In  In33  1  0.66974994  0.33567366  -0.00618508  1
  In  In34  1  0.52702177  -0.04471387  0.47964858  1
  In  In35  1  0.15668131  0.14528065  0.68565974  1
  In  In36  1  0.84026003  0.79171902  0.64288728  1
  In  In37  1  0.00077877  0.36390260  0.28854829  1
  In  In38  1  0.50231837  0.50346281  0.31905994  1
  In  In39  1  0.33723456  0.68511946  0.68429047  1
  In  In40  1  0.82552291  0.54298802  0.64253655  1
  In  In41  1  0.34718873  0.50246820  0.18198178  1
  In  In42  1  0.82978485  -0.01215347  0.18483531  1
  In  In43  1  0.33877689  0.83858006  0.49991007  1
  In  In44  1  0.00370641  -0.00970195  -0.01593152  1
  In  In45  1  0.33981083  0.16955791  0.13680060  1
  In  In46  1  0.15442143  -0.00940541  0.81313795  1
  In  In47  1  0.69614817  0.16111498  0.85721778  1
  In  In48  1  0.66835947  0.66493102  0.03294749  1
  In  In49  1  0.50713358  -0.00414166  0.16921233  1
  In  In50  1  0.50595696  0.15778371  0.65100236  1
  In  In51  1  0.33849463  -0.01457837  0.66754036  1
  In  In52  1  0.15639776  0.54132124  0.65803142  1
  In  In53  1  0.52744156  0.71714140  0.48581462  1
  In  In54  1  0.52754183  0.12234686  0.34787608  1
  In  In55  1  0.10374911  0.34333083  0.85649983  1
  In  In56  1  -0.01239759  0.32622551  0.65948903  1
  In  In57  1  -0.03409003  0.15387663  0.14955157  1
  In  In58  1  0.69178232  0.34971058  0.34515811  1
  In  In59  1  0.68254581  0.35214357  0.66073073  1
  In  In60  1  0.17499920  0.33678562  0.47780169  1
  In  In61  1  -0.00390328  0.83662887  0.83134847  1
  In  In62  1  0.31218529  0.14958471  0.84266726  1
  In  In63  1  0.83026951  0.16620032  0.67990350  1
  In  In64  1  0.18229910  0.67033719  0.16437178  1
  In  In65  1  0.83795750  0.36529173  0.46985288  1
  In  In66  1  -0.01127982  0.16324051  0.50213484  1
  In  In67  1  0.67368683  0.66703608  0.34391663  1
  In  In68  1  0.50238201  0.49753347  0.65037753  1
  In  In69  1  0.33185090  0.32182631  0.65130521  1
  In  In70  1  0.00380121  0.67945477  0.35062722  1
  In  In71  1  0.83627348  0.36850607  0.16930263  1
  Te  Te72  1  0.07579076  0.07256439  0.09065168  1
  Te  Te73  1  0.08555981  0.07572529  0.42518095  1
  Te  Te74  1  0.05162266  0.08485893  0.76622997  1
  Te  Te75  1  0.10069500  0.45325322  0.07224209  1
  Te  Te76  1  0.06292146  0.41854175  0.41944115  1
  Te  Te77  1  0.09489060  0.41297675  0.72038833  1
  Te  Te78  1  0.08486620  0.72630182  0.06669783  1
  Te  Te79  1  0.06915086  0.74468240  0.46891942  1
  Te  Te80  1  0.07469036  0.72365013  0.77104866  1
  Te  Te81  1  0.41620637  0.06050800  0.06463784  1
  Te  Te82  1  0.42338894  0.06369370  0.43767890  1
  Te  Te83  1  0.41997945  0.08610791  0.75612336  1
  Te  Te84  1  0.42254052  0.39912018  0.09212506  1
  Te  Te85  1  0.40888259  0.42638502  0.41330908  1
  Te  Te86  1  0.39561064  0.43310629  0.73738119  1
  Te  Te87  1  0.41591595  0.73875025  0.09015987  1
  Te  Te88  1  0.42323006  0.77069177  0.39968711  1
  Te  Te89  1  0.42716587  0.76488492  0.76881626  1
  Te  Te90  1  0.78445089  0.09222488  0.08792656  1
  Te  Te91  1  0.74307880  0.07996101  0.41199515  1
  Te  Te92  1  0.73779302  0.06678010  0.74615460  1
  Te  Te93  1  0.74538256  0.43943537  0.07251970  1
  Te  Te94  1  0.73747209  0.46576557  0.42812590  1
  Te  Te95  1  0.77705596  0.43102567  0.74537382  1
  Te  Te96  1  0.74660907  0.75243864  0.11940041  1
  Te  Te97  1  0.78044329  0.70344054  0.44723701  1
  Te  Te98  1  0.76433251  0.73683502  0.76521856  1
  Te  Te99  1  0.09553714  0.24904512  0.24619546  1
  Te  Te100  1  0.09883009  0.24329184  0.57317787  1
  Te  Te101  1  0.04428171  0.27150757  0.97164270  1
  Te  Te102  1  0.07568547  0.58607980  0.24528517  1
  Te  Te103  1  0.07371838  0.60754787  0.55210605  1
  Te  Te104  1  0.04389411  0.59394542  0.86213045  1
  Te  Te105  1  0.07066717  0.88166860  0.27103959  1
  Te  Te106  1  0.06701016  0.92647220  0.61783682  1
  Te  Te107  1  0.10247107  0.89162417  0.92588993  1
  Te  Te108  1  0.41360693  0.22932498  0.25458273  1
  Te  Te109  1  0.43860284  0.26071740  0.57290309  1
  Te  Te110  1  0.40696013  0.26689233  0.89983746  1
  Te  Te111  1  0.41021348  0.60378047  0.26427772  1
  Te  Te112  1  0.42763614  0.61129572  0.58031460  1
  Te  Te113  1  0.40285856  0.57251264  0.91896690  1
  Te  Te114  1  0.42296001  0.91065779  0.26057418  1
  Te  Te115  1  0.43942668  0.90020257  0.59419832  1
  Te  Te116  1  0.38898752  0.89503089  0.90509983  1
  Te  Te117  1  0.75999213  0.25895256  0.24343687  1
  Te  Te118  1  0.77224642  0.25845574  0.56522282  1
  Te  Te119  1  0.77256014  0.27105684  0.91314235  1
  Te  Te120  1  0.75683249  0.55585500  0.28961346  1
  Te  Te121  1  0.72745919  0.63746273  0.57992807  1
  Te  Te122  1  0.74234939  0.58718972  0.91859780  1
  Te  Te123  1  0.74987411  0.90089143  0.27548205  1
  Te  Te124  1  0.74056536  0.88171800  0.57504426  1
  Te  Te125  1  0.73622213  0.92766837  0.91682849  1
  Te  Te126  1  0.23816057  0.23731336  0.04756588  1
  Te  Te127  1  0.27088007  0.23474531  0.41946903  1
  Te  Te128  1  0.24336085  0.25108967  0.75322640  1
  Te  Te129  1  0.26362924  0.57190803  0.07711546  1
  Te  Te130  1  0.25248965  0.62312241  0.40177809  1
  Te  Te131  1  0.24367754  0.60029419  0.75833802  1
  Te  Te132  1  0.24884245  0.90406137  0.07996636  1
  Te  Te133  1  0.23790120  0.91935591  0.42058030  1
  Te  Te134  1  0.23982367  0.89476091  0.73388348  1
  Te  Te135  1  0.59877382  0.23707921  0.08542325  1
  Te  Te136  1  0.58025368  0.25505076  0.39858952  1
  Te  Te137  1  0.60987975  0.24412441  0.74283842  1
  Te  Te138  1  0.57650558  0.58776478  0.11861626  1
  Te  Te139  1  0.57220482  0.58510149  0.42590766  1
  Te  Te140  1  0.59190186  0.58773641  0.73440960  1
  Te  Te141  1  0.59642366  0.90555636  0.08541133  1
  Te  Te142  1  0.62210389  0.88956008  0.38083015  1
  Te  Te143  1  0.58431321  0.92401786  0.73941117  1
  Te  Te144  1  0.93400654  0.28550251  0.08805647  1
  Te  Te145  1  0.93145011  0.26061776  0.39870254  1
  Te  Te146  1  0.92664249  0.24000580  0.76040255  1
  Te  Te147  1  0.90241467  0.58555287  0.06491392  1
  Te  Te148  1  0.92893885  0.61045963  0.46302334  1
  Te  Te149  1  0.93514634  0.56610998  0.74326528  1
  Te  Te150  1  0.92216261  0.90819623  0.09009246  1
  Te  Te151  1  0.93308058  0.90526032  0.42805123  1
  Te  Te152  1  0.90038529  0.90232933  0.73526314  1
  Te  Te153  1  0.25312267  0.07722560  0.22665292  1
  Te  Te154  1  0.26290015  0.09072634  0.59065346  1
  Te  Te155  1  0.22165957  0.06735472  0.91950490  1
  Te  Te156  1  0.22869912  0.42666929  0.25300796  1
  Te  Te157  1  0.24901246  0.43278183  0.56923256  1
  Te  Te158  1  0.22488245  0.42873598  0.89664878  1
  Te  Te159  1  0.22585599  0.76235379  0.26945812  1
  Te  Te160  1  0.24905821  0.74461825  0.57764614  1
  Te  Te161  1  0.18998941  0.74195975  0.94788466  1
  Te  Te162  1  0.60737726  0.07849258  0.23617745  1
  Te  Te163  1  0.59283809  0.06469652  0.56978546  1
  Te  Te164  1  0.57387042  0.09347449  0.91866746  1
  Te  Te165  1  0.60469880  0.42154146  0.24096194  1
  Te  Te166  1  0.58978013  0.41407460  0.56833095  1
  Te  Te167  1  0.56457684  0.41208770  0.90329621  1
  Te  Te168  1  0.58836852  0.77558310  0.29117553  1
  Te  Te169  1  0.63220552  0.76356182  0.57749457  1
  Te  Te170  1  0.58259128  0.74293161  0.92757304  1
  Te  Te171  1  0.93577326  0.06529437  0.26726660  1
  Te  Te172  1  0.90303138  0.07320200  0.58516952  1
  Te  Te173  1  0.89906942  0.08535771  0.94266797  1
  Te  Te174  1  0.88769981  0.47096755  0.27770225  1
  Te  Te175  1  0.91672121  0.43233413  0.57903302  1
  Te  Te176  1  0.97319980  0.40451608  0.91377508  1
  Te  Te177  1  0.89949711  0.72168016  0.24952514  1
  Te  Te178  1  0.95491696  0.71712536  0.57572329  1
  Te  Te179  1  0.91429500  0.75973395  0.93524850  1
