# generated using pymatgen
data_In2Te3
_symmetry_space_group_name_H-M   'P 1'
_cell_length_a   18.76840036
_cell_length_b   18.76626402
_cell_length_c   18.75997163
_cell_angle_alpha   89.92093715
_cell_angle_beta   90.04794512
_cell_angle_gamma   89.97370751
_symmetry_Int_Tables_number   1
_chemical_formula_structural   In2Te3
_chemical_formula_sum   'In72 Te108'
_cell_volume   6607.49201290
_cell_formula_units_Z   36
loop_
 _symmetry_equiv_pos_site_id
 _symmetry_equiv_pos_as_xyz
  1  'x, y, z'
loop_
 _atom_site_type_symbol
 _atom_site_label
 _atom_site_symmetry_multiplicity
 _atom_site_fract_x
 _atom_site_fract_y
 _atom_site_fract_z
 _atom_site_occupancy
  In  In0  1  0.82317572  0.51851252  0.34067441  1
  In  In1  1  0.82260931  0.66492800  0.82338406  1
  In  In2  1  0.17293072  0.15305789  -0.00321526  1
  In  In3  1  0.67123391  0.35636562  0.34735897  1
  In  In4  1  0.50501514  0.13678027  0.66137979  1
  In  In5  1  0.67505416  -0.03479881  0.66153808  1
  In  In6  1  0.15202056  0.33052894  0.81098531  1
  In  In7  1  0.65658908  0.80445545  0.81120485  1
  In  In8  1  0.48473542  0.15470237  0.31966298  1
  In  In9  1  0.35005483  -0.01441634  0.66956501  1
  In  In10  1  0.18009809  0.83330755  0.64528308  1
  In  In11  1  0.82111380  -0.00632342  0.15941194  1
  In  In12  1  0.82812051  0.34290849  0.16536221  1
  In  In13  1  0.69349244  0.33555632  -0.01133597  1
  In  In14  1  0.34420598  0.51600362  0.81758417  1
  In  In15  1  0.49650084  0.32891034  0.83847114  1
  In  In16  1  0.82838038  0.82179834  0.00987494  1
  In  In17  1  0.15233435  0.48975587  -0.00373526  1
  In  In18  1  0.82151293  0.81586883  0.35992052  1
  In  In19  1  0.01050852  0.84197827  0.16956144  1
  In  In20  1  0.14142274  0.83951462  -0.00627780  1
  In  In21  1  0.67415845  -0.00302082  0.00199247  1
  In  In22  1  0.31989155  0.31576652  0.33478842  1
  In  In23  1  0.17295781  0.00627485  0.18393935  1
  In  In24  1  0.33730640  -0.02152045  0.34836079  1
  In  In25  1  0.65616828  0.15819524  0.16430033  1
  In  In26  1  0.35023556  0.83593810  0.19298272  1
  In  In27  1  0.00037624  0.34010120  0.33616234  1
  In  In28  1  0.15314726  0.63468025  0.84047366  1
  In  In29  1  0.13907475  0.16808773  0.66901253  1
  In  In30  1  0.00831961  0.16971445  0.50611656  1
  In  In31  1  0.68897499  0.55252170  0.51242799  1
  In  In32  1  -0.01891344  0.67031948  0.67699205  1
  In  In33  1  0.52261031  0.81285862  0.64512556  1
  In  In34  1  0.50622023  0.16560505  0.00216714  1
  In  In35  1  0.52320841  0.82498766  -0.01466026  1
  In  In36  1  0.16100332  -0.00497083  0.48880332  1
  In  In37  1  -0.00531937  0.17546213  0.16366355  1
  In  In38  1  -0.00659089  0.17038086  0.83104557  1
  In  In39  1  0.35640105  0.34506822  0.00023290  1
  In  In40  1  0.51197473  0.51391355  0.33897394  1
  In  In41  1  0.51756911  0.34307203  0.50312456  1
  In  In42  1  -0.03123677  0.36901366  -0.03106165  1
  In  In43  1  0.65940818  0.52911145  0.80206370  1
  In  In44  1  0.66393082  0.17906038  0.85677304  1
  In  In45  1  0.16176675  0.66960624  0.18074588  1
  In  In46  1  0.33926601  0.14937185  0.16999717  1
  In  In47  1  0.35375284  0.53251960  0.52285973  1
  In  In48  1  0.15275952  0.34082827  0.16377339  1
  In  In49  1  0.34390055  0.65636113  -0.02217304  1
  In  In50  1  -0.00401439  0.66818454  0.33071935  1
  In  In51  1  0.84445332  0.63381612  0.14712437  1
  In  In52  1  0.33006929  0.00604700  -0.00374912  1
  In  In53  1  -0.00955121  0.82719382  0.51357984  1
  In  In54  1  0.67480125  0.81662245  0.18335308  1
  In  In55  1  0.83497410  0.18192616  0.67593866  1
  In  In56  1  0.31690581  0.33977388  0.66828081  1
  In  In57  1  0.84608007  0.00335184  0.82028535  1
  In  In58  1  0.33854461  0.47342683  0.16075339  1
  In  In59  1  0.66472258  0.15255618  0.52598788  1
  In  In60  1  0.34937465  0.81476265  0.80539937  1
  In  In61  1  0.32198595  0.17188927  0.49076705  1
  In  In62  1  0.17053439  0.50033020  0.66698128  1
  In  In63  1  0.51526605  0.67382593  0.18110672  1
  In  In64  1  0.67310974  0.50781509  0.16636112  1
  In  In65  1  0.83106850  -0.00208800  0.50706489  1
  In  In66  1  0.35800152  0.69244555  0.35783406  1
  In  In67  1  -0.00785664  0.84999731  0.82720048  1
  In  In68  1  0.17992750  0.67753850  0.50272478  1
  In  In69  1  0.84087116  0.14969450  0.34676577  1
  In  In70  1  -0.02705360  0.47792080  0.51405416  1
  In  In71  1  0.68214019  0.35618714  0.66808253  1
  Te  Te72  1  0.07738130  0.07303227  0.08400367  1
  Te  Te73  1  0.07354220  0.08106142  0.40717671  1
  Te  Te74  1  0.07141439  0.06991286  0.75655151  1
  Te  Te75  1  0.04995917  0.42653230  0.09234335  1
  Te  Te76  1  0.07667192  0.43670161  0.41815769  1
  Te  Te77  1  0.06783430  0.43814956  0.75430247  1
  Te  Te78  1  0.06841704  0.73424739  0.07709637  1
  Te  Te79  1  0.08538921  0.76040306  0.41429558  1
  Te  Te80  1  0.09326717  0.74899922  0.74957501  1
  Te  Te81  1  0.43629556  0.06246907  0.09174165  1
  Te  Te82  1  0.42385023  0.07413199  0.43474284  1
  Te  Te83  1  0.41825238  0.07838623  0.76392730  1
  Te  Te84  1  0.44592372  0.44356514  0.06335516  1
  Te  Te85  1  0.41626689  0.41774460  0.41543348  1
  Te  Te86  1  0.42919548  0.41940191  0.73333930  1
  Te  Te87  1  0.41362464  0.75084986  0.08082625  1
  Te  Te88  1  0.43502562  0.78952267  0.44156451  1
  Te  Te89  1  0.45062111  0.71814255  0.74655518  1
  Te  Te90  1  0.76164743  0.10302159  0.06868173  1
  Te  Te91  1  0.72962785  0.07018184  0.41416511  1
  Te  Te92  1  0.73082640  0.08487693  0.74197938  1
  Te  Te93  1  0.76998293  0.44378628  0.06666538  1
  Te  Te94  1  0.76124224  0.42637209  0.44507527  1
  Te  Te95  1  0.76257111  0.41602701  0.78051380  1
  Te  Te96  1  0.73642889  0.72339302  0.07896615  1
  Te  Te97  1  0.73418181  0.73965577  0.45291665  1
  Te  Te98  1  0.73907883  0.72695164  0.71035837  1
  Te  Te99  1  0.09176312  0.24006702  0.26136481  1
  Te  Te100  1  0.07811147  0.27497352  0.58675954  1
  Te  Te101  1  0.08681913  0.26629420  0.93509433  1
  Te  Te102  1  0.08094085  0.57259284  0.25672676  1
  Te  Te103  1  0.07792068  0.59123183  0.57835643  1
  Te  Te104  1  0.04744565  0.58080155  0.93346139  1
  Te  Te105  1  0.09408102  0.91324646  0.26708751  1
  Te  Te106  1  0.07118102  0.92761067  0.59560191  1
  Te  Te107  1  0.07772857  0.94068783  0.90803095  1
  Te  Te108  1  0.42170369  0.26354103  0.23165389  1
  Te  Te109  1  0.42247599  0.25176543  0.58446005  1
  Te  Te110  1  0.40254778  0.23083842  0.90998792  1
  Te  Te111  1  0.40043953  0.58677680  0.24739992  1
  Te  Te112  1  0.44176651  0.60738587  0.61411059  1
  Te  Te113  1  0.44527688  0.57634535  0.90759033  1
  Te  Te114  1  0.44838833  0.92624144  0.25944736  1
  Te  Te115  1  0.41403606  0.89047529  0.57298903  1
  Te  Te116  1  0.41266872  0.90264464  0.91423746  1
  Te  Te117  1  0.75101894  0.24882994  0.25902310  1
  Te  Te118  1  0.75734879  0.26360736  0.57116265  1
  Te  Te119  1  0.78166026  0.25569041  0.89914736  1
  Te  Te120  1  0.73385405  0.60965678  0.26153620  1
  Te  Te121  1  0.77578145  0.60031456  0.62317817  1
  Te  Te122  1  0.72566044  0.60014835  0.91703764  1
  Te  Te123  1  0.74717747  0.91918153  0.27012838  1
  Te  Te124  1  0.73569194  0.88848467  0.54786518  1
  Te  Te125  1  0.74516972  0.90164754  0.90453835  1
  Te  Te126  1  0.25575147  0.25554168  0.08712965  1
  Te  Te127  1  0.22178104  0.26051392  0.43018547  1
  Te  Te128  1  0.25366195  0.23262666  0.75426305  1
  Te  Te129  1  0.24780596  0.57962250  0.07815009  1
  Te  Te130  1  0.26082825  0.58447319  0.41201051  1
  Te  Te131  1  0.25802650  0.60760873  0.73165448  1
  Te  Te132  1  0.24898886  0.90654572  0.08895490  1
  Te  Te133  1  0.25366852  0.89296503  0.43515814  1
  Te  Te134  1  0.24425708  0.91527575  0.75735428  1
  Te  Te135  1  0.58841816  0.26679306  0.08036597  1
  Te  Te136  1  0.58780218  0.24147067  0.41201880  1
  Te  Te137  1  0.58870762  0.25079497  0.73570045  1
  Te  Te138  1  0.57329759  0.58076444  0.08264354  1
  Te  Te139  1  0.56537864  0.60785811  0.44175634  1
  Te  Te140  1  0.56202825  0.60649384  0.71749397  1
  Te  Te141  1  0.58921416  0.90944605  0.09422971  1
  Te  Te142  1  0.54423800  0.87455017  0.38340513  1
  Te  Te143  1  0.56541215  0.91364192  0.75460288  1
  Te  Te144  1  0.91277349  0.26060747  0.06882318  1
  Te  Te145  1  0.90741445  0.25847026  0.42732870  1
  Te  Te146  1  0.93787252  0.27572042  0.73563239  1
  Te  Te147  1  0.94097938  0.57804184  0.05236912  1
  Te  Te148  1  0.90928485  0.59970506  0.43483645  1
  Te  Te149  1  0.91307075  0.56174179  0.75653561  1
  Te  Te150  1  0.92445723  0.92309042  0.07081077  1
  Te  Te151  1  0.92163894  0.91951918  0.41103843  1
  Te  Te152  1  0.89241549  0.89821068  0.72922171  1
  Te  Te153  1  0.25420087  0.09236633  0.28085116  1
  Te  Te154  1  0.25083649  0.08034198  0.59170150  1
  Te  Te155  1  0.24484003  0.07357147  0.89657568  1
  Te  Te156  1  0.23588749  0.42360604  0.26171390  1
  Te  Te157  1  0.25035702  0.42425347  0.56093272  1
  Te  Te158  1  0.25430109  0.41813549  0.90356378  1
  Te  Te159  1  0.24619579  0.75834335  0.27273862  1
  Te  Te160  1  0.28341440  0.74755192  0.58372916  1
  Te  Te161  1  0.24134106  0.74929191  0.90968731  1
  Te  Te162  1  0.58685113  0.06786539  0.25698433  1
  Te  Te163  1  0.57280181  0.03814158  0.56749309  1
  Te  Te164  1  0.57439998  0.06604162  0.90808237  1
  Te  Te165  1  0.57724222  0.41384313  0.24274561  1
  Te  Te166  1  0.59258624  0.44580743  0.58311075  1
  Te  Te167  1  0.59908385  0.41987618  0.90137314  1
  Te  Te168  1  0.58368508  0.75393332  0.28788581  1
  Te  Te169  1  0.61089736  0.73715102  0.54965718  1
  Te  Te170  1  0.59005692  0.71537265  0.91164704  1
  Te  Te171  1  0.92292582  0.06895372  0.24787964  1
  Te  Te172  1  0.91991750  0.08176392  0.59821223  1
  Te  Te173  1  0.90611262  0.09109236  0.92103574  1
  Te  Te174  1  0.91367519  0.43568303  0.25078361  1
  Te  Te175  1  0.93145638  0.39229460  0.62715805  1
  Te  Te176  1  0.88283753  0.44957462  0.87821224  1
  Te  Te177  1  0.90142609  0.75292858  0.23762262  1
  Te  Te178  1  0.89003989  0.73609285  0.57755640  1
  Te  Te179  1  0.91849228  0.74684000  0.91282736  1
