# generated using pymatgen
data_In2Te3
_symmetry_space_group_name_H-M   'P 1'
_cell_length_a   18.76066263
_cell_length_b   18.76407830
_cell_length_c   18.75984521
_cell_angle_alpha   89.99162996
_cell_angle_beta   90.05956066
_cell_angle_gamma   89.96979117
_symmetry_Int_Tables_number   1
_chemical_formula_structural   In2Te3
_chemical_formula_sum   'In72 Te108'
_cell_volume   6603.95889063
_cell_formula_units_Z   36
loop_
 _symmetry_equiv_pos_site_id
 _symmetry_equiv_pos_as_xyz
  1  'x, y, z'
loop_
 _atom_site_type_symbol
 _atom_site_label
 _atom_site_symmetry_multiplicity
 _atom_site_fract_x
 _atom_site_fract_y
 _atom_site_fract_z
 _atom_site_occupancy
  In  In0  1  0.66113422  0.31527458  0.32740026  1
  In  In1  1  0.18306000  0.67588989  0.82830517  1
  In  In2  1  0.85555666  0.36884198  0.50805448  1
  In  In3  1  0.01433931  0.15144617  0.15705306  1
  In  In4  1  0.32651155  0.49794805  0.16096260  1
  In  In5  1  0.68143081  0.51980744  0.53128385  1
  In  In6  1  0.48895046  0.85391960  0.31472626  1
  In  In7  1  0.03576065  0.00905283  0.01563872  1
  In  In8  1  0.18044903  0.15535531  0.62895494  1
  In  In9  1  0.02220800  0.67507487  0.35057902  1
  In  In10  1  0.50217962  0.82680260  0.67162515  1
  In  In11  1  0.67672130  -0.01579171  0.65422800  1
  In  In12  1  0.65261088  -0.00558310  0.32196970  1
  In  In13  1  0.17842699  0.33901654  0.49016832  1
  In  In14  1  0.47810419  0.48936228  0.67123352  1
  In  In15  1  0.50036660  0.67244227  0.52329037  1
  In  In16  1  0.61970591  0.15436882  0.85990383  1
  In  In17  1  0.85415944  0.14122357  0.68015508  1
  In  In18  1  0.83269343  0.66051503  0.16663204  1
  In  In19  1  0.83695508  0.17955128  0.32710767  1
  In  In20  1  0.82119776  0.02579752  0.16549587  1
  In  In21  1  0.18012910  0.51246051  0.32031309  1
  In  In22  1  0.16793501  -0.01180229  0.83853346  1
  In  In23  1  0.33601137  0.65281441  0.67358857  1
  In  In24  1  0.32360881  -0.01727641  0.02695900  1
  In  In25  1  0.31839108  0.83399450  0.50727420  1
  In  In26  1  0.64403942  0.85201214  0.17090185  1
  In  In27  1  0.00717497  0.49329109  0.19286574  1
  In  In28  1  0.00915583  0.67613160  0.01208747  1
  In  In29  1  0.62930672  0.30636632  0.03144003  1
  In  In30  1  0.66945672  0.30993384  0.67838589  1
  In  In31  1  0.34311164  0.17582396  0.83791341  1
  In  In32  1  0.83776565  0.66505282  0.82286625  1
  In  In33  1  0.17230846  0.50152485  0.00090900  1
  In  In34  1  0.84668024  0.83119302  0.37175226  1
  In  In35  1  0.67691426  0.66177592  0.65822585  1
  In  In36  1  0.85135588  -0.00056570  0.49648277  1
  In  In37  1  0.31174170  0.30008505  0.01676574  1
  In  In38  1  0.30455353  0.68263898  0.32514831  1
  In  In39  1  0.49945763  0.48160956  0.36160595  1
  In  In40  1  0.67788855  0.49461928  0.85679915  1
  In  In41  1  0.31752912  0.35091558  0.65405873  1
  In  In42  1  0.66890275  0.49512357  0.17387102  1
  In  In43  1  0.00470639  0.32746556  0.00257718  1
  In  In44  1  0.48660158  0.32571339  0.49004223  1
  In  In45  1  0.83808671  -0.00602092  0.80756732  1
  In  In46  1  0.84508920  0.50572397  0.64134190  1
  In  In47  1  0.48007157  0.50186862  0.00487109  1
  In  In48  1  0.85048386  0.32314706  0.83949201  1
  In  In49  1  0.34421818  0.68827359  0.00159043  1
  In  In50  1  0.33077651  0.01979916  0.65110535  1
  In  In51  1  0.15536686  0.12849453  0.34087616  1
  In  In52  1  0.35644865  0.30474957  0.30889621  1
  In  In53  1  0.02702614  0.84145265  0.16928225  1
  In  In54  1  0.00069214  -0.01592888  0.65018208  1
  In  In55  1  0.66578701  0.83828268  0.84522415  1
  In  In56  1  0.49339708  0.66696411  0.84315997  1
  In  In57  1  0.00494465  0.33094077  0.32341159  1
  In  In58  1  0.84666905  0.51356579  0.33894520  1
  In  In59  1  0.15740870  0.83770065  0.65814473  1
  In  In60  1  0.47626869  0.00866000  0.16849954  1
  In  In61  1  0.16229992  0.84455970  0.33514275  1
  In  In62  1  0.00446991  0.66685777  0.62665744  1
  In  In63  1  0.82620266  0.83577883  -0.00071529  1
  In  In64  1  0.50945576  0.16011871  0.65786710  1
  In  In65  1  0.82122493  0.48166353  -0.02038235  1
  In  In66  1  0.00855590  0.18331792  0.82626995  1
  In  In67  1  0.82765151  0.16070978  -0.00268501  1
  In  In68  1  0.14791601  0.35218135  0.82439500  1
  In  In69  1  0.65349664  0.18390530  0.49877115  1
  In  In70  1  0.48187571  0.84389277  -0.01549061  1
  In  In71  1  0.50643160  0.66638985  0.17353219  1
  Te  Te72  1  0.13963316  0.09691977  0.08566433  1
  Te  Te73  1  0.06039708  0.04698684  0.42170275  1
  Te  Te74  1  0.08826732  0.08182292  0.74269315  1
  Te  Te75  1  0.09287529  0.41118307  0.09593809  1
  Te  Te76  1  0.08365648  0.42948121  0.40753004  1
  Te  Te77  1  0.06774769  0.41929110  0.72078495  1
  Te  Te78  1  0.10873665  0.77505223  0.06334620  1
  Te  Te79  1  0.08947885  0.76985030  0.44267568  1
  Te  Te80  1  0.07343965  0.74461906  0.74277075  1
  Te  Te81  1  0.39162748  0.10555510  0.08621081  1
  Te  Te82  1  0.37921322  0.12556439  0.46924433  1
  Te  Te83  1  0.42763534  0.07596219  0.75663723  1
  Te  Te84  1  0.41423339  0.39664515  0.09107068  1
  Te  Te85  1  0.37950961  0.41140727  0.42302956  1
  Te  Te86  1  0.41052104  0.39467771  0.76078236  1
  Te  Te87  1  0.42005151  0.77199852  0.10689127  1
  Te  Te88  1  0.41808427  0.74770809  0.41532901  1
  Te  Te89  1  0.40149625  0.75892120  0.76375071  1
  Te  Te90  1  0.72245217  0.09008810  0.07553852  1
  Te  Te91  1  0.74771472  0.08514645  0.41648433  1
  Te  Te92  1  0.72649499  0.10015903  0.75281925  1
  Te  Te93  1  0.74410078  0.39859352  0.08195988  1
  Te  Te94  1  0.73780012  0.41748023  0.41847173  1
  Te  Te95  1  0.75554710  0.42314133  0.74364267  1
  Te  Te96  1  0.73705248  0.75428022  0.09251417  1
  Te  Te97  1  0.76266852  0.73232286  0.43609967  1
  Te  Te98  1  0.75446788  0.76537330  0.74400556  1
  Te  Te99  1  0.10096263  0.24513152  0.24451212  1
  Te  Te100  1  0.08667843  0.24717562  0.56188713  1
  Te  Te101  1  0.10466382  0.24065518  0.92738754  1
  Te  Te102  1  0.09649590  0.60930490  0.23331316  1
  Te  Te103  1  0.09741835  0.55371342  0.59767173  1
  Te  Te104  1  0.08233547  0.58575334  0.91249649  1
  Te  Te105  1  0.10606032  0.95373214  0.23731096  1
  Te  Te106  1  0.09845293  0.92629980  0.55252612  1
  Te  Te107  1  0.07942851  0.90319996  0.92191437  1
  Te  Te108  1  0.41113153  0.21186335  0.20354958  1
  Te  Te109  1  0.39237855  0.23134348  0.57995986  1
  Te  Te110  1  0.42653821  0.23596721  0.94493177  1
  Te  Te111  1  0.41604015  0.57655459  0.26122059  1
  Te  Te112  1  0.40097442  0.56405581  0.56393780  1
  Te  Te113  1  0.39026721  0.57427242  0.90554477  1
  Te  Te114  1  0.39277260  0.96575028  0.28644036  1
  Te  Te115  1  0.42389965  0.91899459  0.57790574  1
  Te  Te116  1  0.39280990  0.93008793  0.90553203  1
  Te  Te117  1  0.74268967  0.23909372  0.23042827  1
  Te  Te118  1  0.76820359  0.24997529  0.57685184  1
  Te  Te119  1  0.73613272  0.25611228  0.91433315  1
  Te  Te120  1  0.73826396  0.59475344  0.26754662  1
  Te  Te121  1  0.79610239  0.63215652  0.55392623  1
  Te  Te122  1  0.74797515  0.60771977  0.93241473  1
  Te  Te123  1  0.76653889  0.90631863  0.25296985  1
  Te  Te124  1  0.77872241  0.90367261  0.58352183  1
  Te  Te125  1  0.74901975  0.94237575  0.92080234  1
  Te  Te126  1  0.21594931  0.23349158  0.10722334  1
  Te  Te127  1  0.25498073  0.23432400  0.40169527  1
  Te  Te128  1  0.23841453  0.24408522  0.74276767  1
  Te  Te129  1  0.24672953  0.60354226  0.08731939  1
  Te  Te130  1  0.23642441  0.60017552  0.42528892  1
  Te  Te131  1  0.25042002  0.56495879  0.75593350  1
  Te  Te132  1  0.24380664  0.89689872  0.11829756  1
  Te  Te133  1  0.27063541  0.92835294  0.40052578  1
  Te  Te134  1  0.25938982  0.91575687  0.73987066  1
  Te  Te135  1  0.55032453  0.22694943  0.12956040  1
  Te  Te136  1  0.55162918  0.22720963  0.39206117  1
  Te  Te137  1  0.55663410  0.26082870  0.76553144  1
  Te  Te138  1  0.58904081  0.58239867  0.07590818  1
  Te  Te139  1  0.58739587  0.58688705  0.42877036  1
  Te  Te140  1  0.58344698  0.57874399  0.75015316  1
  Te  Te141  1  0.57730985  0.93925707  0.06250230  1
  Te  Te142  1  0.57769522  0.91296016  0.41851111  1
  Te  Te143  1  0.57785118  0.92797457  0.75849032  1
  Te  Te144  1  0.91164194  0.24646026  0.09242630  1
  Te  Te145  1  0.92440584  0.25486454  0.42733119  1
  Te  Te146  1  0.93164393  0.26637717  0.72405461  1
  Te  Te147  1  0.91698565  0.56374207  0.08195462  1
  Te  Te148  1  0.94685367  0.57320360  0.42854712  1
  Te  Te149  1  0.93159003  0.58155941  0.74321417  1
  Te  Te150  1  0.91725847  0.92688715  0.08559671  1
  Te  Te151  1  0.95457975  0.92841639  0.40917507  1
  Te  Te152  1  0.92781961  0.89673619  0.74469242  1
  Te  Te153  1  0.22587279  0.04963793  0.23245203  1
  Te  Te154  1  0.25156999  0.06295243  0.52678099  1
  Te  Te155  1  0.25502457  0.08101877  0.91993602  1
  Te  Te156  1  0.24896780  0.39886107  0.24592256  1
  Te  Te157  1  0.21427543  0.44603481  0.59573048  1
  Te  Te158  1  0.25663424  0.40627060  0.91699767  1
  Te  Te159  1  0.25147437  0.78158177  0.22635733  1
  Te  Te160  1  0.23839841  0.72972248  0.58368446  1
  Te  Te161  1  0.25345977  0.77056027  0.91837269  1
  Te  Te162  1  0.58214448  0.09347092  0.23571918  1
  Te  Te163  1  0.58190484  0.06466618  0.56228682  1
  Te  Te164  1  0.57341334  0.06143642  0.96133157  1
  Te  Te165  1  0.56654090  0.40708581  0.24634797  1
  Te  Te166  1  0.58410338  0.40437712  0.58254069  1
  Te  Te167  1  0.57401240  0.40864362  0.92613809  1
  Te  Te168  1  0.59327578  0.74664191  0.27028376  1
  Te  Te169  1  0.60591598  0.77043342  0.57438418  1
  Te  Te170  1  0.58720480  0.74301773  0.93540794  1
  Te  Te171  1  0.92924956  0.07687886  0.26075017  1
  Te  Te172  1  0.94454536  0.10143189  0.56586474  1
  Te  Te173  1  0.92830566  0.08263364  0.91167375  1
  Te  Te174  1  0.89446728  0.40298595  0.24486594  1
  Te  Te175  1  0.96789975  0.42746806  0.59399357  1
  Te  Te176  1  0.94175428  0.42697857  0.90268783  1
  Te  Te177  1  0.92547527  0.75219270  0.24692174  1
  Te  Te178  1  0.90265520  0.74905867  0.55518280  1
  Te  Te179  1  0.92317331  0.75638550  0.91280354  1
