# generated using pymatgen
data_In2Te3
_symmetry_space_group_name_H-M   'P 1'
_cell_length_a   18.79279999
_cell_length_b   18.79156591
_cell_length_c   18.79819919
_cell_angle_alpha   89.92404723
_cell_angle_beta   90.06294789
_cell_angle_gamma   89.93127271
_symmetry_Int_Tables_number   1
_chemical_formula_structural   In2Te3
_chemical_formula_sum   'In72 Te108'
_cell_volume   6638.49685054
_cell_formula_units_Z   36
loop_
 _symmetry_equiv_pos_site_id
 _symmetry_equiv_pos_as_xyz
  1  'x, y, z'
loop_
 _atom_site_type_symbol
 _atom_site_label
 _atom_site_symmetry_multiplicity
 _atom_site_fract_x
 _atom_site_fract_y
 _atom_site_fract_z
 _atom_site_occupancy
  In  In0  1  0.15791037  0.16726311  0.32526900  1
  In  In1  1  0.83274393  0.47584580  0.63681284  1
  In  In2  1  0.15928014  0.81762999  0.35932037  1
  In  In3  1  0.17133568  0.67635665  0.82150221  1
  In  In4  1  0.46093478  0.45351450  0.69641236  1
  In  In5  1  0.83906405  0.01697418  0.82665220  1
  In  In6  1  0.18702142  0.48514568  0.64537994  1
  In  In7  1  0.16376579  0.84629988  -0.01103574  1
  In  In8  1  0.32860255  0.02251929  -0.02349528  1
  In  In9  1  0.67955655  0.66472439  0.31476428  1
  In  In10  1  0.29659852  0.85605732  0.80994053  1
  In  In11  1  0.33905329  0.64582999  0.32441952  1
  In  In12  1  0.32793735  0.83575997  0.53561906  1
  In  In13  1  0.50595427  0.48810902  0.32536290  1
  In  In14  1  0.85957136  0.01104620  0.51280646  1
  In  In15  1  0.84033301  0.31027535  0.83100328  1
  In  In16  1  0.16915886  0.02427025  0.17339510  1
  In  In17  1  0.00595840  0.51526155  0.83454067  1
  In  In18  1  0.69414004  0.19573395  0.52873105  1
  In  In19  1  0.67483820  0.83197423  0.46965394  1
  In  In20  1  0.49070419  0.18600171  0.67998126  1
  In  In21  1  0.66712060  0.47498865  0.49823513  1
  In  In22  1  0.31671911  0.66233381  0.65793509  1
  In  In23  1  0.84604434  0.82963459  -0.00297429  1
  In  In24  1  0.32773308  0.32541546  0.31892837  1
  In  In25  1  0.66837914  -0.01480129  0.33085163  1
  In  In26  1  0.49634191  0.47363395  -0.01223055  1
  In  In27  1  0.65299058  0.01593339  0.66981244  1
  In  In28  1  0.02365128  0.16281191  0.52971899  1
  In  In29  1  0.80592498  0.03474768  0.16223124  1
  In  In30  1  0.01318722  0.67526318  0.67061751  1
  In  In31  1  0.16554218  0.65934533  0.50642887  1
  In  In32  1  -0.00868752  0.82940029  0.18238013  1
  In  In33  1  0.64689976  0.47876045  0.16393258  1
  In  In34  1  0.01251363  0.85117081  0.51948392  1
  In  In35  1  0.00553250  0.49670475  0.15540505  1
  In  In36  1  0.83021188  0.16602021  0.31868212  1
  In  In37  1  0.49092995  0.18518808  0.32897578  1
  In  In38  1  0.82583749  0.32961182  0.15201994  1
  In  In39  1  0.65901743  0.16255532  0.84385095  1
  In  In40  1  0.30103283  0.16588953  0.51160128  1
  In  In41  1  0.16863384  0.31879893  0.84327707  1
  In  In42  1  0.83438124  0.66795743  0.15927472  1
  In  In43  1  0.84979631  0.66885736  0.85671461  1
  In  In44  1  0.32449516  0.30251359  0.00849176  1
  In  In45  1  0.85178759  0.85856591  0.67676080  1
  In  In46  1  0.49082891  0.31638474  0.49654700  1
  In  In47  1  0.30111284  0.16823810  0.81494899  1
  In  In48  1  0.31112734  0.00885624  0.33985657  1
  In  In49  1  0.15515259  0.47235852  0.32950122  1
  In  In50  1  0.49970921  0.66029628  0.52824213  1
  In  In51  1  0.47906709  0.03613970  0.84071741  1
  In  In52  1  0.85767307  0.50620094  0.37298233  1
  In  In53  1  0.01234067  0.01761845  0.00132662  1
  In  In54  1  0.35690357  0.83241711  0.16587155  1
  In  In55  1  0.48835752  0.84349511  0.65319461  1
  In  In56  1  0.52298799  0.19353353  0.00298539  1
  In  In57  1  0.00063603  0.32243623  -0.01332795  1
  In  In58  1  0.50486145  0.65825194  0.18519167  1
  In  In59  1  0.68523878  0.84883787  0.84253351  1
  In  In60  1  0.68564662  0.63109739  0.67492350  1
  In  In61  1  0.82430345  0.50651621  0.02729227  1
  In  In62  1  0.16605367  0.64250529  0.15763082  1
  In  In63  1  0.51671089  0.81936232  0.34657218  1
  In  In64  1  -0.02233067  0.01451586  0.33340486  1
  In  In65  1  0.50133598  0.01160888  0.14897130  1
  In  In66  1  0.00087238  0.31811889  0.34535566  1
  In  In67  1  0.68135426  0.48463392  0.83506227  1
  In  In68  1  0.17010825  0.49925668  -0.00669385  1
  In  In69  1  0.49482193  0.66198250  0.84924748  1
  In  In70  1  0.51046860  0.84114166  0.01371792  1
  In  In71  1  -0.01613771  0.32652899  0.66072620  1
  Te  Te72  1  0.10493298  0.11612908  0.07323733  1
  Te  Te73  1  0.08617613  0.07286171  0.42157359  1
  Te  Te74  1  0.11962472  0.06621426  0.70857151  1
  Te  Te75  1  0.09507697  0.39875216  0.08011447  1
  Te  Te76  1  0.07820385  0.40563689  0.43743442  1
  Te  Te77  1  0.08203032  0.41863902  0.74872681  1
  Te  Te78  1  0.08859656  0.75735896  0.08894227  1
  Te  Te79  1  0.05300357  0.72733269  0.42048229  1
  Te  Te80  1  0.07557302  0.77269988  0.76202476  1
  Te  Te81  1  0.41275896  0.10653054  0.07072919  1
  Te  Te82  1  0.40545345  0.09797466  0.42181466  1
  Te  Te83  1  0.39297458  0.07661658  0.72542772  1
  Te  Te84  1  0.42852169  0.37889789  0.08349803  1
  Te  Te85  1  0.40786618  0.41560468  0.41551022  1
  Te  Te86  1  0.39442661  0.36927729  0.79775296  1
  Te  Te87  1  0.42159738  0.73138989  0.07570111  1
  Te  Te88  1  0.40404484  0.74518107  0.42673300  1
  Te  Te89  1  0.40990465  0.74972612  0.74561997  1
  Te  Te90  1  0.73940418  0.13138383  0.07015608  1
  Te  Te91  1  0.75105578  0.08004590  0.42619231  1
  Te  Te92  1  0.75403534  0.10760172  0.73518056  1
  Te  Te93  1  0.72319984  0.39877579  0.05746275  1
  Te  Te94  1  0.75121220  0.40875851  0.39811734  1
  Te  Te95  1  0.74613613  0.38723437  0.72921797  1
  Te  Te96  1  0.74804691  0.74808165  0.07092451  1
  Te  Te97  1  0.76904119  0.74028814  0.40501022  1
  Te  Te98  1  0.75554016  0.74897261  0.74928037  1
  Te  Te99  1  0.07758596  0.25384730  0.23738813  1
  Te  Te100  1  0.10915499  0.26404913  0.60150579  1
  Te  Te101  1  0.06146753  0.22452789  0.88899700  1
  Te  Te102  1  0.07247804  0.58499338  0.26121764  1
  Te  Te103  1  0.07155561  0.56500437  0.58267123  1
  Te  Te104  1  0.08354353  0.60622925  0.92685137  1
  Te  Te105  1  0.09334397  0.92248643  0.26244451  1
  Te  Te106  1  0.06637241  0.95823649  0.60696381  1
  Te  Te107  1  0.10412893  0.95076690  0.90128923  1
  Te  Te108  1  0.43051403  0.27141268  0.22260417  1
  Te  Te109  1  0.38476219  0.26427764  0.59692797  1
  Te  Te110  1  0.41628561  0.24228116  0.89107479  1
  Te  Te111  1  0.40436223  0.54994804  0.22702376  1
  Te  Te112  1  0.40221890  0.55862346  0.58298186  1
  Te  Te113  1  0.40563599  0.56813893  0.91694432  1
  Te  Te114  1  0.42282379  0.92394399  0.26845004  1
  Te  Te115  1  0.41693264  0.94623284  0.57619860  1
  Te  Te116  1  0.41119142  0.90824807  0.90999169  1
  Te  Te117  1  0.73308631  0.24898475  0.24024967  1
  Te  Te118  1  0.77383112  0.29344814  0.60441709  1
  Te  Te119  1  0.76060428  0.23277540  0.93096816  1
  Te  Te120  1  0.75624867  0.55500858  0.24196869  1
  Te  Te121  1  0.75997042  0.58547189  0.55224013  1
  Te  Te122  1  0.73997182  0.58993059  0.92781570  1
  Te  Te123  1  0.77231249  0.92041817  0.24957961  1
  Te  Te124  1  0.74212598  0.92262023  0.58571033  1
  Te  Te125  1  0.75920710  0.94121015  0.93508811  1
  Te  Te126  1  0.22545437  0.21642358  0.07260302  1
  Te  Te127  1  0.22921504  0.26376906  0.42015083  1
  Te  Te128  1  0.21705895  0.24866469  0.71824619  1
  Te  Te129  1  0.26722207  0.57298115  0.07851387  1
  Te  Te130  1  0.24748905  0.56841181  0.41673061  1
  Te  Te131  1  0.25503694  0.56649876  0.75861777  1
  Te  Te132  1  0.26159696  0.92614775  0.08901152  1
  Te  Te133  1  0.23779259  0.92007222  0.43932915  1
  Te  Te134  1  0.23129626  0.95217264  0.71884415  1
  Te  Te135  1  0.62203416  0.22341566  0.11065626  1
  Te  Te136  1  0.60217398  0.24959060  0.41822013  1
  Te  Te137  1  0.58276985  0.26408408  0.76531505  1
  Te  Te138  1  0.57704823  0.58068088  0.07602032  1
  Te  Te139  1  0.57542676  0.59698371  0.41248943  1
  Te  Te140  1  0.56642099  0.56890050  0.74494145  1
  Te  Te141  1  0.60368935  0.92126407  0.09498746  1
  Te  Te142  1  0.56573849  0.93311010  0.43522108  1
  Te  Te143  1  0.57416958  0.92237447  0.76335927  1
  Te  Te144  1  0.91444109  0.23962932  0.07445749  1
  Te  Te145  1  0.91692349  0.22373549  0.42973805  1
  Te  Te146  1  0.94829741  0.22678150  0.76816610  1
  Te  Te147  1  0.93699471  0.60081693  0.06701469  1
  Te  Te148  1  0.95695352  0.60139362  0.41681523  1
  Te  Te149  1  0.89959190  0.57669953  0.74086358  1
  Te  Te150  1  0.92020871  0.93182065  0.09478448  1
  Te  Te151  1  0.91069912  0.90599291  0.41535575  1
  Te  Te152  1  0.94412971  0.93326308  0.76236254  1
  Te  Te153  1  0.27611140  0.11377615  0.23638016  1
  Te  Te154  1  0.22060139  0.06651429  0.59157854  1
  Te  Te155  1  0.21507646  0.07338642  0.89476246  1
  Te  Te156  1  0.24409039  0.41006909  0.23051931  1
  Te  Te157  1  0.30214828  0.41747713  0.58577781  1
  Te  Te158  1  0.26603682  0.41458852  0.90919879  1
  Te  Te159  1  0.25134522  0.75584618  0.25093790  1
  Te  Te160  1  0.21355242  0.76403842  0.60669914  1
  Te  Te161  1  0.26300336  0.75257568  0.91926941  1
  Te  Te162  1  0.58285795  0.08651502  0.25412798  1
  Te  Te163  1  0.57538930  0.10850378  0.57788817  1
  Te  Te164  1  0.58779675  0.06502887  0.93903489  1
  Te  Te165  1  0.57678133  0.38187980  0.25215830  1
  Te  Te166  1  0.56813518  0.40865498  0.59143856  1
  Te  Te167  1  0.59035988  0.39114083  0.90458528  1
  Te  Te168  1  0.60160933  0.76831135  0.23190259  1
  Te  Te169  1  0.60036119  0.75523838  0.59201940  1
  Te  Te170  1  0.59525969  0.75183272  0.92075796  1
  Te  Te171  1  0.93216468  0.10472013  0.22158733  1
  Te  Te172  1  0.91782924  0.09981829  0.61381147  1
  Te  Te173  1  0.91543627  0.10059975  0.92425576  1
  Te  Te174  1  0.91494667  0.41566010  0.24769337  1
  Te  Te175  1  0.92409896  0.40306066  0.54613591  1
  Te  Te176  1  0.90527182  0.43067472  0.91333098  1
  Te  Te177  1  0.91046150  0.73862072  0.26490549  1
  Te  Te178  1  0.91193732  0.75223105  0.58566580  1
  Te  Te179  1  0.94429249  0.77224896  0.90153915  1
