# generated using pymatgen
data_In2Te3
_symmetry_space_group_name_H-M   'P 1'
_cell_length_a   18.73481471
_cell_length_b   18.72792242
_cell_length_c   18.73961611
_cell_angle_alpha   90.04318698
_cell_angle_beta   90.01739918
_cell_angle_gamma   90.04371082
_symmetry_Int_Tables_number   1
_chemical_formula_structural   In2Te3
_chemical_formula_sum   'In72 Te108'
_cell_volume   6575.05551324
_cell_formula_units_Z   36
loop_
 _symmetry_equiv_pos_site_id
 _symmetry_equiv_pos_as_xyz
  1  'x, y, z'
loop_
 _atom_site_type_symbol
 _atom_site_label
 _atom_site_symmetry_multiplicity
 _atom_site_fract_x
 _atom_site_fract_y
 _atom_site_fract_z
 _atom_site_occupancy
  In  In0  1  0.14885844  0.30550307  0.16445779  1
  In  In1  1  0.86172853  0.15054941  0.30409078  1
  In  In2  1  -0.01832840  0.86151864  0.83930743  1
  In  In3  1  0.15497275  0.16313768  0.66628877  1
  In  In4  1  0.14683841  0.48542134  -0.00287575  1
  In  In5  1  0.82710052  0.65354264  0.49610629  1
  In  In6  1  0.32582582  0.50472095  0.17866629  1
  In  In7  1  0.49527281  0.51451333  0.65696402  1
  In  In8  1  0.51433256  0.14808739  -0.01321430  1
  In  In9  1  0.01472433  0.67508662  0.34615068  1
  In  In10  1  0.65516434  0.87312376  0.15022591  1
  In  In11  1  0.00667036  0.48083397  0.83447210  1
  In  In12  1  0.01166956  0.65752775  0.66812016  1
  In  In13  1  0.29278222  0.67653060  0.32887021  1
  In  In14  1  0.31384017  0.15609043  0.83668072  1
  In  In15  1  0.67917849  0.49154349  0.48658736  1
  In  In16  1  0.48887538  0.32505354  0.48059256  1
  In  In17  1  0.14534143  0.01685761  0.16215490  1
  In  In18  1  0.48505404  0.83711946  0.33408514  1
  In  In19  1  0.51443912  0.34786721  0.84009268  1
  In  In20  1  0.30898292  0.34406043  0.62457338  1
  In  In21  1  0.34630275  0.69501112  0.02648337  1
  In  In22  1  0.52908957  0.01956940  0.83412669  1
  In  In23  1  0.69049194  0.15681959  0.16808960  1
  In  In24  1  0.67658602  0.84034462  0.86224432  1
  In  In25  1  0.69306675  0.48978488  0.13790095  1
  In  In26  1  0.31923568  0.15301402  0.17325523  1
  In  In27  1  0.49431501  0.68345476  0.16196662  1
  In  In28  1  -0.00490631  0.30837151  -0.00196798  1
  In  In29  1  0.84021420  0.85180732  0.66879429  1
  In  In30  1  0.69731359  0.66194218  0.32399867  1
  In  In31  1  0.83525269  0.83965384  0.33292523  1
  In  In32  1  0.33285523  0.83750213  0.81168455  1
  In  In33  1  0.67140221  -0.00061263  0.32645886  1
  In  In34  1  0.31125185  0.30974655  0.37267488  1
  In  In35  1  0.67678271  0.31218155  0.66925672  1
  In  In36  1  0.49910466  0.84055289  0.68175873  1
  In  In37  1  0.00492550  0.16277937  0.83936589  1
  In  In38  1  0.32751871  0.50518027  0.83633048  1
  In  In39  1  0.66638268  0.48385613  0.80868482  1
  In  In40  1  0.52206252  0.19487685  0.66550781  1
  In  In41  1  0.48188871  0.67052799  0.49676540  1
  In  In42  1  0.15766219  -0.01465320  0.47943149  1
  In  In43  1  0.48328400  0.01015510  0.50069327  1
  In  In44  1  0.49113251  0.47154178  0.33616574  1
  In  In45  1  0.14188463  0.84771306  0.00353094  1
  In  In46  1  0.83805973  0.16225684  0.00249906  1
  In  In47  1  0.16187071  0.50539122  0.34008803  1
  In  In48  1  0.65539021  0.17602298  0.51229460  1
  In  In49  1  0.01279279  0.14291415  0.50602980  1
  In  In50  1  -0.01228696  0.33891109  0.30791848  1
  In  In51  1  0.00873289  0.84503847  0.48317904  1
  In  In52  1  0.84373817  0.48831848  0.01512561  1
  In  In53  1  0.30967228  0.00802446  0.66712326  1
  In  In54  1  0.85015145  0.87187085  0.02723341  1
  In  In55  1  0.17218352  0.68898448  0.18058287  1
  In  In56  1  0.01706342  0.48847924  0.50631521  1
  In  In57  1  0.51974566  0.31768280  0.16605433  1
  In  In58  1  0.31638594  0.32850822  0.01948500  1
  In  In59  1  0.16759043  0.65829963  0.82700318  1
  In  In60  1  0.82525326  0.32278572  0.51087002  1
  In  In61  1  0.32387920  0.00813236  -0.00949385  1
  In  In62  1  0.84319951  0.66096535  0.15992354  1
  In  In63  1  0.84756213  0.67376517  0.84029500  1
  In  In64  1  0.50255417  0.49019003  -0.03797811  1
  In  In65  1  0.65838709  0.68204493  -0.01479800  1
  In  In66  1  0.65662480  0.66159111  0.64968898  1
  In  In67  1  0.50180904  0.15954671  0.34573356  1
  In  In68  1  0.18560522  0.82839057  0.64110189  1
  In  In69  1  0.84269449  0.00738589  0.51572941  1
  In  In70  1  0.33885301  0.82367789  0.19155846  1
  In  In71  1  0.00288523  0.32068125  0.68523033  1
  Te  Te72  1  0.03424511  0.09322079  0.08971979  1
  Te  Te73  1  0.08976087  0.08623098  0.39000330  1
  Te  Te74  1  0.07608120  0.06794498  0.74524430  1
  Te  Te75  1  0.06229584  0.41313367  0.09919216  1
  Te  Te76  1  0.08940755  0.39251118  0.41169522  1
  Te  Te77  1  0.10032740  0.42034810  0.73797598  1
  Te  Te78  1  0.07306201  0.74772187  0.08825323  1
  Te  Te79  1  0.10800979  0.74222755  0.44170464  1
  Te  Te80  1  0.07831099  0.76443809  0.75679705  1
  Te  Te81  1  0.42137504  0.07730289  0.08767776  1
  Te  Te82  1  0.39407933  0.07540569  0.40113784  1
  Te  Te83  1  0.41767494  0.08900296  0.74312527  1
  Te  Te84  1  0.42484648  0.42091800  0.08084706  1
  Te  Te85  1  0.38841618  0.43542583  0.44200209  1
  Te  Te86  1  0.41360950  0.40759384  0.73984679  1
  Te  Te87  1  0.45012514  0.80360202  0.07362208  1
  Te  Te88  1  0.38312360  0.76574449  0.42558214  1
  Te  Te89  1  0.40614929  0.73557164  0.73371322  1
  Te  Te90  1  0.75964311  0.05835509  0.08005238  1
  Te  Te91  1  0.75167036  0.09664635  0.41271155  1
  Te  Te92  1  0.74003446  0.13051174  0.74932712  1
  Te  Te93  1  0.77781718  0.37680317  0.08974518  1
  Te  Te94  1  0.76487728  0.40573849  0.40243225  1
  Te  Te95  1  0.76891446  0.39997939  0.74526647  1
  Te  Te96  1  0.74645739  0.75743961  0.08634317  1
  Te  Te97  1  0.74377146  0.76379874  0.43013458  1
  Te  Te98  1  0.74860491  0.74591785  0.74782196  1
  Te  Te99  1  0.08222704  0.22814547  0.27183836  1
  Te  Te100  1  0.08912250  0.26226681  0.56990424  1
  Te  Te101  1  0.10054621  0.25347822  0.91072336  1
  Te  Te102  1  0.07752969  0.58106590  0.24046030  1
  Te  Te103  1  0.10609255  0.57606270  0.58825362  1
  Te  Te104  1  0.06736734  0.59352222  0.92223635  1
  Te  Te105  1  0.04958619  0.92653996  0.23576735  1
  Te  Te106  1  0.07535405  0.92426030  0.59555647  1
  Te  Te107  1  0.06771620  0.95132191  0.92496295  1
  Te  Te108  1  0.40761387  0.25982470  0.25261455  1
  Te  Te109  1  0.40788499  0.23619065  0.57266334  1
  Te  Te110  1  0.41344164  0.25253117  0.92020317  1
  Te  Te111  1  0.42051655  0.59852286  0.26822264  1
  Te  Te112  1  0.39251043  0.60875189  0.60067369  1
  Te  Te113  1  0.41242377  0.60447746  0.91755434  1
  Te  Te114  1  0.40798848  0.93684248  0.25762854  1
  Te  Te115  1  0.40057516  0.91426485  0.58767929  1
  Te  Te116  1  0.41831891  0.93087453  0.89752811  1
  Te  Te117  1  0.76834523  0.25227223  0.25078918  1
  Te  Te118  1  0.77454335  0.20888607  0.60611809  1
  Te  Te119  1  0.75590881  0.20518602  0.87627131  1
  Te  Te120  1  0.78465586  0.55374770  0.25622463  1
  Te  Te121  1  0.75954604  0.56075332  0.59780157  1
  Te  Te122  1  0.75048894  0.57967984  0.91626100  1
  Te  Te123  1  0.77146702  0.93419477  0.23017678  1
  Te  Te124  1  0.74306734  0.91960994  0.57986145  1
  Te  Te125  1  0.76751409  0.94150709  0.92385242  1
  Te  Te126  1  0.22624676  0.21492468  0.06764589  1
  Te  Te127  1  0.23482443  0.22235134  0.46088754  1
  Te  Te128  1  0.25086622  0.25705883  0.73963367  1
  Te  Te129  1  0.24618384  0.58334971  0.07122607  1
  Te  Te130  1  0.25109442  0.57691722  0.43705530  1
  Te  Te131  1  0.24497670  0.57409290  0.73433279  1
  Te  Te132  1  0.25298492  0.91258685  0.09100662  1
  Te  Te133  1  0.24083760  0.88223628  0.41359002  1
  Te  Te134  1  0.22191776  0.92726892  0.76094453  1
  Te  Te135  1  0.60496427  0.24506413  0.06611784  1
  Te  Te136  1  0.60137769  0.26398716  0.39849555  1
  Te  Te137  1  0.60301990  0.22991267  0.79067101  1
  Te  Te138  1  0.57641997  0.58094798  0.08242951  1
  Te  Te139  1  0.58578272  0.58931544  0.41101898  1
  Te  Te140  1  0.57391990  0.59588214  0.76141852  1
  Te  Te141  1  0.55344211  0.92019178  0.05727299  1
  Te  Te142  1  0.58138901  0.92023028  0.42111912  1
  Te  Te143  1  0.61146357  0.92305186  0.74785872  1
  Te  Te144  1  0.91471756  0.24215840  0.10464171  1
  Te  Te145  1  0.91959690  0.23925599  0.42199524  1
  Te  Te146  1  0.90186780  0.24310189  0.76438442  1
  Te  Te147  1  0.93742753  0.58675027  0.07359373  1
  Te  Te148  1  0.92421496  0.57062595  0.41420948  1
  Te  Te149  1  0.91398155  0.57210428  0.74860990  1
  Te  Te150  1  0.96369435  0.93668206  0.10552186  1
  Te  Te151  1  0.92500954  0.94297898  0.40276523  1
  Te  Te152  1  0.89462714  0.95397831  0.76049668  1
  Te  Te153  1  0.23551955  0.07613910  0.26769694  1
  Te  Te154  1  0.24920417  0.09453621  0.55534028  1
  Te  Te155  1  0.21591373  0.07741797  0.91485471  1
  Te  Te156  1  0.24593708  0.39932021  0.25277417  1
  Te  Te157  1  0.24456705  0.44877879  0.54339717  1
  Te  Te158  1  0.23922104  0.40146032  0.90856769  1
  Te  Te159  1  0.20886664  0.80617653  0.27904905  1
  Te  Te160  1  0.26482558  0.73673736  0.56048439  1
  Te  Te161  1  0.24907266  0.75749143  0.92141769  1
  Te  Te162  1  0.57549392  0.07974340  0.23807688  1
  Te  Te163  1  0.58536765  0.07175101  0.59877752  1
  Te  Te164  1  0.62644846  0.05790485  0.94268547  1
  Te  Te165  1  0.60155171  0.41990051  0.24688259  1
  Te  Te166  1  0.58054993  0.40890472  0.58160770  1
  Te  Te167  1  0.62447467  0.40309679  0.93345054  1
  Te  Te168  1  0.60144926  0.75995166  0.25215329  1
  Te  Te169  1  0.57832934  0.76474577  0.57074028  1
  Te  Te170  1  0.56151856  0.75631176  0.90264085  1
  Te  Te171  1  0.94427387  0.06150002  0.21282347  1
  Te  Te172  1  0.93309922  0.07570813  0.61294639  1
  Te  Te173  1  0.93246874  0.06703665  0.93155730  1
  Te  Te174  1  0.88821948  0.43289314  0.25536698  1
  Te  Te175  1  0.91651023  0.41293328  0.59371580  1
  Te  Te176  1  0.90466639  0.39505802  0.90867319  1
  Te  Te177  1  0.92901245  0.75534845  0.24693947  1
  Te  Te178  1  0.92068704  0.74681754  0.57699406  1
  Te  Te179  1  0.91870485  0.76401041  0.94032471  1
