# generated using pymatgen
data_In2Te3
_symmetry_space_group_name_H-M   'P 1'
_cell_length_a   18.77925827
_cell_length_b   18.77275305
_cell_length_c   18.77452631
_cell_angle_alpha   90.06963617
_cell_angle_beta   90.00559671
_cell_angle_gamma   89.99573943
_symmetry_Int_Tables_number   1
_chemical_formula_structural   In2Te3
_chemical_formula_sum   'In72 Te108'
_cell_volume   6618.73611290
_cell_formula_units_Z   36
loop_
 _symmetry_equiv_pos_site_id
 _symmetry_equiv_pos_as_xyz
  1  'x, y, z'
loop_
 _atom_site_type_symbol
 _atom_site_label
 _atom_site_symmetry_multiplicity
 _atom_site_fract_x
 _atom_site_fract_y
 _atom_site_fract_z
 _atom_site_occupancy
  In  In0  1  0.84777144  -0.00982486  0.19085027  1
  In  In1  1  0.35774988  0.50302946  0.13699048  1
  In  In2  1  0.64400035  0.17303682  0.13824992  1
  In  In3  1  0.32816579  0.81736097  0.49941504  1
  In  In4  1  0.49660321  0.18067799  -0.00337896  1
  In  In5  1  0.64084094  0.64961720  -0.00001542  1
  In  In6  1  0.84219500  0.50165518  0.67442979  1
  In  In7  1  0.31734302  0.17814591  0.49579280  1
  In  In8  1  0.33090630  0.34070176  0.35203025  1
  In  In9  1  0.83162219  0.49502079  0.00045689  1
  In  In10  1  0.82335862  0.66175008  0.82373856  1
  In  In11  1  0.84696424  0.34982528  0.17167994  1
  In  In12  1  0.17445350  0.51841027  0.33437628  1
  In  In13  1  0.33139567  -0.00247805  0.68541115  1
  In  In14  1  0.64056837  0.15981696  0.81057656  1
  In  In15  1  0.32826998  -0.00339034  0.31928914  1
  In  In16  1  0.65915566  -0.00757586  0.65849789  1
  In  In17  1  0.03097814  0.18667688  0.48201374  1
  In  In18  1  0.17006767  0.36852699  0.81308699  1
  In  In19  1  -0.00111840  0.18150166  0.82416921  1
  In  In20  1  0.01767605  -0.00865721  0.66710332  1
  In  In21  1  0.83534573  0.34084464  0.82959086  1
  In  In22  1  0.32652099  0.81401594  0.83945820  1
  In  In23  1  0.81723821  0.36332360  0.50126601  1
  In  In24  1  0.47391278  0.65604181  0.49082080  1
  In  In25  1  0.85426341  0.66248306  0.47475185  1
  In  In26  1  0.49093510  0.68584122  0.17586435  1
  In  In27  1  0.49769212  -0.02177697  0.17396998  1
  In  In28  1  0.66040857  0.66945408  0.67425011  1
  In  In29  1  0.31283486  0.53013685  0.82759622  1
  In  In30  1  0.03559460  -0.01521024  0.33214123  1
  In  In31  1  0.65438745  0.50322758  0.48646132  1
  In  In32  1  0.64985734  -0.02391200  0.02941815  1
  In  In33  1  0.51638508  -0.00597359  0.46885934  1
  In  In34  1  0.65442800  -0.01532993  0.32395993  1
  In  In35  1  -0.00315686  0.64152340  0.32268026  1
  In  In36  1  0.67056825  0.20705807  0.48277590  1
  In  In37  1  0.02310565  0.65995024  0.65344998  1
  In  In38  1  0.17937863  0.50807194  0.00857718  1
  In  In39  1  0.83480828  0.00222288  0.52737383  1
  In  In40  1  0.02838815  0.65892260  -0.00079949  1
  In  In41  1  0.16553666  0.32364269  0.16851333  1
  In  In42  1  0.32525838  -0.01627170  -0.00123151  1
  In  In43  1  0.01321132  0.35035326  0.33243706  1
  In  In44  1  0.03073867  0.00527397  0.01038427  1
  In  In45  1  0.48925794  0.82386790  0.67386548  1
  In  In46  1  0.15731455  0.17220042  0.66736348  1
  In  In47  1  0.19447985  0.80862838  0.31067021  1
  In  In48  1  0.49140958  0.65641580  0.84791461  1
  In  In49  1  0.82184971  0.83322476  0.01695213  1
  In  In50  1  0.83102409  0.15754874  0.32610451  1
  In  In51  1  0.83992735  0.20090368  0.02463757  1
  In  In52  1  0.47594954  -0.01652203  0.83425527  1
  In  In53  1  0.18145919  0.81609032  0.01244790  1
  In  In54  1  0.49188671  0.18512366  0.66293700  1
  In  In55  1  0.82612145  0.82896515  0.33483910  1
  In  In56  1  0.65636708  0.34015870  0.00003688  1
  In  In57  1  0.49913845  0.50792936  0.64311625  1
  In  In58  1  0.33334688  0.17604613  0.18697442  1
  In  In59  1  0.17369545  0.65874274  0.50361907  1
  In  In60  1  0.85623723  -0.01623204  0.84813325  1
  In  In61  1  0.00931153  0.82674952  0.51730978  1
  In  In62  1  0.64834669  0.34752934  0.32894585  1
  In  In63  1  0.84201176  0.18856209  0.68270493  1
  In  In64  1  0.48503539  0.48237527  0.33336229  1
  In  In65  1  0.01776791  0.80958674  0.82710644  1
  In  In66  1  0.30411650  0.35940903  0.65196665  1
  In  In67  1  0.66608105  0.84724716  0.47204850  1
  In  In68  1  0.19262903  0.15835197  0.00646220  1
  In  In69  1  0.00142178  0.34024819  0.00536895  1
  In  In70  1  0.48890428  0.33996802  0.85029183  1
  In  In71  1  0.82706755  0.64329744  0.18864805  1
  Te  Te72  1  0.10630733  0.08908534  0.10618308  1
  Te  Te73  1  0.10469578  0.06975608  0.43124826  1
  Te  Te74  1  0.09344627  0.07501153  0.77029882  1
  Te  Te75  1  0.08128076  0.43082759  0.09816499  1
  Te  Te76  1  0.11316008  0.41469414  0.42603955  1
  Te  Te77  1  0.06312792  0.40031992  0.71861434  1
  Te  Te78  1  0.07871619  0.75264458  0.10160408  1
  Te  Te79  1  0.08166892  0.74817333  0.40786592  1
  Te  Te80  1  0.12015465  0.72766405  0.75139639  1
  Te  Te81  1  0.42057325  0.08073876  0.08591474  1
  Te  Te82  1  0.41199980  0.08823052  0.40984118  1
  Te  Te83  1  0.41131726  0.10309196  0.76319166  1
  Te  Te84  1  0.44982077  0.41705611  0.05896382  1
  Te  Te85  1  0.39946454  0.43460459  0.44592799  1
  Te  Te86  1  0.40541353  0.42837257  0.74782843  1
  Te  Te87  1  0.38287138  0.77312500  0.11642978  1
  Te  Te88  1  0.40301356  0.74523689  0.39478994  1
  Te  Te89  1  0.40243114  0.72154679  0.73979631  1
  Te  Te90  1  0.76005412  0.07709369  0.09016092  1
  Te  Te91  1  0.74220936  0.07054224  0.42363251  1
  Te  Te92  1  0.76306556  0.07325641  0.74787201  1
  Te  Te93  1  0.73673271  0.42716852  0.09851970  1
  Te  Te94  1  0.76198919  0.44319910  0.37995510  1
  Te  Te95  1  0.74231970  0.42599662  0.75386797  1
  Te  Te96  1  0.74378083  0.72518029  0.08916243  1
  Te  Te97  1  0.73514577  0.72735891  0.40228233  1
  Te  Te98  1  0.73817646  0.76233242  0.75827831  1
  Te  Te99  1  0.10309111  0.24325753  0.27833120  1
  Te  Te100  1  0.09738282  0.27861887  0.58004112  1
  Te  Te101  1  0.09491259  0.25654858  0.91803169  1
  Te  Te102  1  0.10471220  0.59943487  0.23084954  1
  Te  Te103  1  0.11223111  0.55010417  0.59385058  1
  Te  Te104  1  0.09991919  0.57439366  0.90042675  1
  Te  Te105  1  0.09466791  0.89063622  0.23482504  1
  Te  Te106  1  0.10960972  0.90561684  0.59033190  1
  Te  Te107  1  0.09631547  0.90813297  0.91391572  1
  Te  Te108  1  0.42513368  0.26014742  0.26745014  1
  Te  Te109  1  0.40790134  0.27397597  0.57283178  1
  Te  Te110  1  0.39572296  0.24206347  0.90939190  1
  Te  Te111  1  0.40288546  0.58669428  0.25649206  1
  Te  Te112  1  0.38357868  0.56936773  0.57187322  1
  Te  Te113  1  0.39036743  0.59500406  0.93922068  1
  Te  Te114  1  0.38271024  0.89152346  0.22283411  1
  Te  Te115  1  0.42825239  0.92964298  0.57927832  1
  Te  Te116  1  0.42612715  0.88455546  0.93642430  1
  Te  Te117  1  0.74181123  0.24561731  0.23843729  1
  Te  Te118  1  0.74316698  0.27224130  0.60045981  1
  Te  Te119  1  0.74036493  0.23999816  0.91114497  1
  Te  Te120  1  0.75067822  0.57296960  0.29045227  1
  Te  Te121  1  0.74888078  0.58994307  0.57495753  1
  Te  Te122  1  0.73640573  0.56851126  0.90787289  1
  Te  Te123  1  0.73560763  0.89469197  0.22975694  1
  Te  Te124  1  0.75290862  0.89086020  0.59164579  1
  Te  Te125  1  0.73964005  0.91413635  0.91685251  1
  Te  Te126  1  0.27454760  0.26698709  0.07795400  1
  Te  Te127  1  0.22506486  0.24475840  0.39884014  1
  Te  Te128  1  0.25435111  0.25470235  0.75183048  1
  Te  Te129  1  0.25335300  0.60741513  0.09659895  1
  Te  Te130  1  0.27414708  0.59824576  0.41142314  1
  Te  Te131  1  0.20889285  0.59554665  0.74608563  1
  Te  Te132  1  0.24082246  0.92078988  0.10273169  1
  Te  Te133  1  0.24280548  0.91214071  0.41536738  1
  Te  Te134  1  0.24333030  0.90345012  0.75577331  1
  Te  Te135  1  0.54427893  0.28389235  0.10028914  1
  Te  Te136  1  0.55851626  0.25128869  0.39869437  1
  Te  Te137  1  0.58262837  0.28113131  0.74112530  1
  Te  Te138  1  0.57379141  0.57767953  0.11244039  1
  Te  Te139  1  0.57512299  0.59409642  0.39492111  1
  Te  Te140  1  0.58116854  0.56972532  0.75647231  1
  Te  Te141  1  0.57749376  0.86934662  0.10491479  1
  Te  Te142  1  0.54874901  0.87420140  0.37095832  1
  Te  Te143  1  0.58565249  0.90545215  0.76004153  1
  Te  Te144  1  0.94960973  0.24761335  0.11725730  1
  Te  Te145  1  0.90097315  0.25571574  0.42029202  1
  Te  Te146  1  0.94991571  0.29184909  0.72673421  1
  Te  Te147  1  0.92230826  0.58168624  0.08521727  1
  Te  Te148  1  0.95133740  0.55670772  0.43772091  1
  Te  Te149  1  0.93835463  0.58555217  0.75902587  1
  Te  Te150  1  0.93030761  0.91457654  0.08704685  1
  Te  Te151  1  0.91253927  0.92070686  0.42240933  1
  Te  Te152  1  0.92261736  0.89724859  0.74236308  1
  Te  Te153  1  0.23361723  0.07896690  0.23798156  1
  Te  Te154  1  0.24602009  0.07689011  0.58509127  1
  Te  Te155  1  0.25379616  0.07155356  0.90391712  1
  Te  Te156  1  0.26269195  0.42363431  0.23539585  1
  Te  Te157  1  0.20621569  0.42668486  0.56159169  1
  Te  Te158  1  0.26426734  0.41481943  0.92295177  1
  Te  Te159  1  0.26303835  0.72306228  0.20492624  1
  Te  Te160  1  0.24706286  0.74659960  0.59971829  1
  Te  Te161  1  0.26283043  0.71668388  0.93388524  1
  Te  Te162  1  0.57441959  0.09040051  0.24768284  1
  Te  Te163  1  0.58175903  0.09487620  0.57497415  1
  Te  Te164  1  0.58299525  0.06905333  0.92318215  1
  Te  Te165  1  0.58462945  0.43904956  0.23005515  1
  Te  Te166  1  0.57854784  0.40783688  0.56815178  1
  Te  Te167  1  0.55850869  0.43892352  0.94077041  1
  Te  Te168  1  0.58445502  0.77725684  0.24758771  1
  Te  Te169  1  0.57724539  0.75413166  0.56754876  1
  Te  Te170  1  0.57749798  0.75507738  0.91738232  1
  Te  Te171  1  0.94523652  0.08797412  0.25451534  1
  Te  Te172  1  0.93310708  0.10244198  0.58839058  1
  Te  Te173  1  0.91994999  0.09639711  0.93197284  1
  Te  Te174  1  0.93069670  0.44159519  0.25101931  1
  Te  Te175  1  0.92688630  0.44040793  0.56615622  1
  Te  Te176  1  0.93297021  0.43164791  0.90493908  1
  Te  Te177  1  0.92082320  0.75200371  0.24526413  1
  Te  Te178  1  0.90810812  0.74260865  0.59414276  1
  Te  Te179  1  0.91325393  0.74842967  0.92505038  1
