# generated using pymatgen
data_In2Te3
_symmetry_space_group_name_H-M   'P 1'
_cell_length_a   19.07456259
_cell_length_b   19.04866017
_cell_length_c   19.07988060
_cell_angle_alpha   89.94480172
_cell_angle_beta   90.06335263
_cell_angle_gamma   90.09645112
_symmetry_Int_Tables_number   1
_chemical_formula_structural   In2Te3
_chemical_formula_sum   'In72 Te108'
_cell_volume   6932.55929081
_cell_formula_units_Z   36
loop_
 _symmetry_equiv_pos_site_id
 _symmetry_equiv_pos_as_xyz
  1  'x, y, z'
loop_
 _atom_site_type_symbol
 _atom_site_label
 _atom_site_symmetry_multiplicity
 _atom_site_fract_x
 _atom_site_fract_y
 _atom_site_fract_z
 _atom_site_occupancy
  In  In0  1  0.50698575  -0.01210672  0.49336018  1
  In  In1  1  0.13456861  0.48109422  0.01640979  1
  In  In2  1  0.33092880  0.82325054  0.48791775  1
  In  In3  1  0.32701620  0.49558350  0.83482567  1
  In  In4  1  0.83773048  0.82744305  0.32025374  1
  In  In5  1  0.85464436  0.00703644  0.17454795  1
  In  In6  1  0.81933935  0.15142290  0.66380972  1
  In  In7  1  0.67064483  0.15815115  0.47487549  1
  In  In8  1  0.84529156  0.33499282  0.86968414  1
  In  In9  1  0.51018829  0.17557964  0.64529596  1
  In  In10  1  0.34611385  0.49552529  0.15961831  1
  In  In11  1  0.14687637  0.66886977  0.16753675  1
  In  In12  1  0.33053872  0.50321192  0.50544064  1
  In  In13  1  0.16809663  0.17358072  0.32854522  1
  In  In14  1  -0.00661186  0.81596870  0.86707844  1
  In  In15  1  0.13621717  0.00739302  0.84228320  1
  In  In16  1  0.52315183  0.16818506  0.01648958  1
  In  In17  1  0.36118503  0.33340070  0.30137601  1
  In  In18  1  0.30918043  0.82542174  0.83749934  1
  In  In19  1  0.65741347  0.68312263  0.69543998  1
  In  In20  1  -0.07034040  -0.02505677  0.63786375  1
  In  In21  1  0.49636139  0.34920946  0.82476356  1
  In  In22  1  0.51212043  0.84220920  0.33792821  1
  In  In23  1  0.67322409  0.49266541  0.49455223  1
  In  In24  1  0.83774609  0.63935193  0.15733315  1
  In  In25  1  0.69489650  0.33555066  0.30343605  1
  In  In26  1  0.82797033  0.66821545  0.48751266  1
  In  In27  1  0.49650179  0.67770512  0.15947257  1
  In  In28  1  -0.00833811  0.16788592  0.83328594  1
  In  In29  1  0.65938848  -0.00503629  -0.00877792  1
  In  In30  1  0.01944719  0.02398586  0.30826498  1
  In  In31  1  -0.00256917  0.69246655  0.68913573  1
  In  In32  1  0.16522114  0.01625920  0.14610071  1
  In  In33  1  0.85898684  0.50588391  0.64971082  1
  In  In34  1  0.49936187  0.47603333  0.00885829  1
  In  In35  1  0.66611433  0.16471684  0.18124665  1
  In  In36  1  0.51875717  0.85182138  0.66621968  1
  In  In37  1  0.83285764  0.66499296  0.85752129  1
  In  In38  1  0.32784600  0.16898920  0.16311573  1
  In  In39  1  0.33179860  0.65932933  0.64955889  1
  In  In40  1  -0.01087965  0.83106052  0.50180621  1
  In  In41  1  0.47789304  0.83063534  -0.00716577  1
  In  In42  1  -0.00778476  0.43383749  0.47372599  1
  In  In43  1  0.13538193  0.50639634  0.68121703  1
  In  In44  1  0.51126288  0.32661192  0.50194772  1
  In  In45  1  0.65418732  0.83884277  0.84069428  1
  In  In46  1  0.31479151  -0.02705987  -0.00928603  1
  In  In47  1  0.17349234  0.66579575  0.50884339  1
  In  In48  1  0.13659061  0.23930738  0.05966785  1
  In  In49  1  0.15952003  0.34864661  0.82911725  1
  In  In50  1  0.53211787  0.50215550  0.32319197  1
  In  In51  1  0.49839877  0.00671263  0.17707315  1
  In  In52  1  0.16409241  0.84532883  0.30970045  1
  In  In53  1  0.34784657  -0.01480793  0.35657465  1
  In  In54  1  0.85341127  0.47982636  0.30634954  1
  In  In55  1  0.68893481  0.50329935  0.16865652  1
  In  In56  1  0.83089265  0.20468578  0.03097890  1
  In  In57  1  0.34038309  0.16439517  0.84601186  1
  In  In58  1  0.31581047  0.01921882  0.67571267  1
  In  In59  1  0.69115136  0.82071777  0.15937173  1
  In  In60  1  0.13886390  0.67379972  0.92248547  1
  In  In61  1  0.67234418  0.51647971  0.83950982  1
  In  In62  1  -0.01483754  -0.01076686  0.00305582  1
  In  In63  1  0.15552167  0.50375469  0.33993847  1
  In  In64  1  -0.01205147  0.66160158  0.32235375  1
  In  In65  1  0.15935077  0.34275638  0.48064229  1
  In  In66  1  0.82500712  0.00905168  0.48403283  1
  In  In67  1  0.81501119  -0.00019617  0.84188837  1
  In  In68  1  0.18624010  0.19477778  0.65702218  1
  In  In69  1  0.34571112  0.16022513  0.50146785  1
  In  In70  1  0.48170633  0.66094804  0.83790090  1
  In  In71  1  0.68371564  0.33671521  0.67295428  1
  Te  Te72  1  0.06970927  0.09653061  0.06541444  1
  Te  Te73  1  0.07956080  0.10077178  0.41684568  1
  Te  Te74  1  0.08924962  0.10562697  0.73811343  1
  Te  Te75  1  0.08502351  0.37445668  0.10912450  1
  Te  Te76  1  0.06590467  0.37573052  0.34926412  1
  Te  Te77  1  0.05145752  0.41239878  0.75436856  1
  Te  Te78  1  0.06851224  0.71038793  0.04834921  1
  Te  Te79  1  0.08121002  0.74176958  0.41000416  1
  Te  Te80  1  0.09722611  0.74466545  0.78572957  1
  Te  Te81  1  0.40856877  0.06771987  0.07063894  1
  Te  Te82  1  0.44053563  0.09366688  0.40690302  1
  Te  Te83  1  0.42583893  0.09341589  0.74395243  1
  Te  Te84  1  0.41124120  0.38594957  0.08585213  1
  Te  Te85  1  0.42767881  0.42065422  0.41370030  1
  Te  Te86  1  0.41280526  0.43006260  0.73813702  1
  Te  Te87  1  0.39480968  0.74381273  0.07593606  1
  Te  Te88  1  0.42776832  0.74810571  0.41314089  1
  Te  Te89  1  0.41638206  0.75882337  0.74222763  1
  Te  Te90  1  0.74917587  0.07725213  0.07933237  1
  Te  Te91  1  0.77315669  0.10428873  0.38399065  1
  Te  Te92  1  0.72970152  0.07913785  0.75461804  1
  Te  Te93  1  0.78189205  0.42867654  0.07714060  1
  Te  Te94  1  0.76789084  0.41033768  0.41218870  1
  Te  Te95  1  0.76728841  0.43090314  0.75796686  1
  Te  Te96  1  0.74437580  0.71595830  0.07113425  1
  Te  Te97  1  0.74909613  0.76896113  0.41993036  1
  Te  Te98  1  0.76280231  0.76369903  0.76547237  1
  Te  Te99  1  0.11242728  0.24164794  0.21180352  1
  Te  Te100  1  0.08565818  0.26146838  0.57553904  1
  Te  Te101  1  0.07662942  0.25816373  0.91663775  1
  Te  Te102  1  0.05965001  0.56056132  0.23854689  1
  Te  Te103  1  0.06335063  0.60011362  0.58694317  1
  Te  Te104  1  0.07259455  0.54505776  0.90056756  1
  Te  Te105  1  0.07147852  0.91536886  0.21649431  1
  Te  Te106  1  0.05751062  0.91422497  0.59878912  1
  Te  Te107  1  0.09313910  0.90329349  0.94186200  1
  Te  Te108  1  0.43697641  0.22645491  0.24098360  1
  Te  Te109  1  0.40357066  0.26740056  0.59050670  1
  Te  Te110  1  0.43227577  0.25420017  0.92273738  1
  Te  Te111  1  0.42462935  0.58278984  0.25396918  1
  Te  Te112  1  0.42843679  0.59204406  0.56615661  1
  Te  Te113  1  0.40900517  0.57320284  0.93583860  1
  Te  Te114  1  0.40897659  0.90540096  0.24495826  1
  Te  Te115  1  0.40132714  0.92885895  0.58560644  1
  Te  Te116  1  0.41471425  0.92072576  0.88984095  1
  Te  Te117  1  0.78026171  0.22532245  0.25544756  1
  Te  Te118  1  0.74755056  0.24874096  0.57011052  1
  Te  Te119  1  0.74190057  0.24843493  0.92386371  1
  Te  Te120  1  0.75563716  0.58954564  0.27404308  1
  Te  Te121  1  0.74469954  0.59032640  0.59820679  1
  Te  Te122  1  0.73394118  0.59850051  0.94473076  1
  Te  Te123  1  0.74849863  0.92657178  0.24922807  1
  Te  Te124  1  0.79343482  0.93316575  0.60286236  1
  Te  Te125  1  0.75808006  0.89568508  0.93591697  1
  Te  Te126  1  0.28229725  0.27213308  0.07078421  1
  Te  Te127  1  0.27227390  0.26041998  0.41212046  1
  Te  Te128  1  0.26744963  0.26618159  0.76111324  1
  Te  Te129  1  0.23573491  0.56933660  0.09048814  1
  Te  Te130  1  0.25709790  0.59281206  0.40767004  1
  Te  Te131  1  0.24368777  0.58838876  0.74868212  1
  Te  Te132  1  0.23870614  0.90231066  0.09222273  1
  Te  Te133  1  0.23028250  0.91741252  0.42399656  1
  Te  Te134  1  0.22916456  0.92563910  0.75509071  1
  Te  Te135  1  0.61587059  0.25966364  0.08117871  1
  Te  Te136  1  0.59430213  0.26289213  0.39738835  1
  Te  Te137  1  0.58758284  0.25098111  0.75016386  1
  Te  Te138  1  0.58104412  0.57529737  0.08762543  1
  Te  Te139  1  0.59902337  0.58993630  0.41705906  1
  Te  Te140  1  0.56644670  0.57456220  0.74846307  1
  Te  Te141  1  0.57648377  0.90381329  0.08833602  1
  Te  Te142  1  0.60857275  0.91309357  0.42252168  1
  Te  Te143  1  0.60121578  0.93881783  0.74826233  1
  Te  Te144  1  0.93618837  0.29535604  0.07945115  1
  Te  Te145  1  0.94729676  0.30814672  0.41019375  1
  Te  Te146  1  0.89592109  0.24875502  0.75204814  1
  Te  Te147  1  0.90954214  0.52778191  0.08910064  1
  Te  Te148  1  0.92358568  0.56882512  0.42430679  1
  Te  Te149  1  0.92082438  0.58510253  0.76257481  1
  Te  Te150  1  0.89994979  0.90294871  0.08288357  1
  Te  Te151  1  0.93182323  0.92187165  0.39480362  1
  Te  Te152  1  0.93087420  0.92396693  0.78305620  1
  Te  Te153  1  0.25975418  0.06503738  0.26064179  1
  Te  Te154  1  0.23509347  0.08188623  0.56538491  1
  Te  Te155  1  0.23808857  0.08517555  0.92323783  1
  Te  Te156  1  0.25057335  0.42105810  0.25282498  1
  Te  Te157  1  0.22725690  0.42961506  0.58498785  1
  Te  Te158  1  0.24667225  0.41507560  0.93165685  1
  Te  Te159  1  0.24138128  0.73541340  0.25726554  1
  Te  Te160  1  0.23966982  0.76701680  0.59683424  1
  Te  Te161  1  0.27390829  0.73200009  0.94376341  1
  Te  Te162  1  0.59282079  0.07045351  0.26578859  1
  Te  Te163  1  0.59847488  0.07477559  0.57776385  1
  Te  Te164  1  0.57175563  0.07881605  0.91258461  1
  Te  Te165  1  0.58669805  0.40414518  0.22371029  1
  Te  Te166  1  0.58532394  0.42005770  0.59386721  1
  Te  Te167  1  0.59996627  0.41005424  0.91843754  1
  Te  Te168  1  0.59501737  0.74751170  0.24893658  1
  Te  Te169  1  0.59765715  0.76012189  0.58775233  1
  Te  Te170  1  0.57656281  0.73943591  0.92427385  1
  Te  Te171  1  0.93183160  0.11570586  0.23494186  1
  Te  Te172  1  0.91758589  0.10516426  0.56066910  1
  Te  Te173  1  0.89836396  0.09744339  0.92927476  1
  Te  Te174  1  0.88524840  0.38997611  0.19193299  1
  Te  Te175  1  0.90685458  0.38586801  0.58344521  1
  Te  Te176  1  0.89014282  0.44384756  0.95883969  1
  Te  Te177  1  0.92257716  0.75098901  0.22213885  1
  Te  Te178  1  0.89710866  0.75279498  0.59299379  1
  Te  Te179  1  0.92422335  0.72401995  0.95930003  1
