# generated using pymatgen
data_In2Te3
_symmetry_space_group_name_H-M   'P 1'
_cell_length_a   19.05253208
_cell_length_b   19.02950205
_cell_length_c   19.06322771
_cell_angle_alpha   89.85385253
_cell_angle_beta   90.15772610
_cell_angle_gamma   89.73943874
_symmetry_Int_Tables_number   1
_chemical_formula_structural   In2Te3
_chemical_formula_sum   'In72 Te108'
_cell_volume   6911.44725286
_cell_formula_units_Z   36
loop_
 _symmetry_equiv_pos_site_id
 _symmetry_equiv_pos_as_xyz
  1  'x, y, z'
loop_
 _atom_site_type_symbol
 _atom_site_label
 _atom_site_symmetry_multiplicity
 _atom_site_fract_x
 _atom_site_fract_y
 _atom_site_fract_z
 _atom_site_occupancy
  In  In0  1  0.16706606  0.85498208  0.32272194  1
  In  In1  1  0.21621107  0.68268724  0.51834204  1
  In  In2  1  -0.00282027  0.49641410  0.52051726  1
  In  In3  1  0.32812223  0.68275317  -0.02306243  1
  In  In4  1  0.67365824  0.67526107  -0.01831139  1
  In  In5  1  0.63232982  0.65052027  0.62879879  1
  In  In6  1  0.50165882  0.84845900  -0.03574324  1
  In  In7  1  0.16692208  0.19897574  0.01638900  1
  In  In8  1  0.34064342  0.81714155  0.51304725  1
  In  In9  1  0.02087484  0.69194073  0.65612478  1
  In  In10  1  0.67340808  0.01565345  0.35027074  1
  In  In11  1  0.00310832  0.67844794  0.32110373  1
  In  In12  1  -0.00060849  0.67593009  -0.02572318  1
  In  In13  1  0.66903954  0.81418677  0.82727133  1
  In  In14  1  0.18511750  0.83236259  0.66391133  1
  In  In15  1  -0.00663514  -0.08438749  0.70008881  1
  In  In16  1  0.32111830  0.52276964  0.16813127  1
  In  In17  1  0.83405976  0.65698973  0.81458754  1
  In  In18  1  0.00506081  0.03327491  0.32241999  1
  In  In19  1  0.33945557  0.02099080  0.66783373  1
  In  In20  1  0.84368237  0.32717129  0.16143859  1
  In  In21  1  0.47747564  0.47568608  0.61499858  1
  In  In22  1  0.16760169  0.37232052  0.17313207  1
  In  In23  1  0.36145007  0.08750757  0.00865820  1
  In  In24  1  0.84262302  0.47796221  -0.00628495  1
  In  In25  1  0.32983810  0.69192836  0.33358035  1
  In  In26  1  0.15883536  0.82894147  -0.00261441  1
  In  In27  1  0.35012776  0.85895225  0.17171797  1
  In  In28  1  0.51001211  0.00443488  0.81211191  1
  In  In29  1  0.18196976  -0.00616835  0.16654586  1
  In  In30  1  0.68806909  0.50397912  0.14896573  1
  In  In31  1  0.15385611  0.16778116  0.68373517  1
  In  In32  1  0.66993040  -0.00158161  0.00247678  1
  In  In33  1  0.82071653  0.31088216  0.82574793  1
  In  In34  1  0.33952362  -0.00738685  0.34385245  1
  In  In35  1  0.32076423  0.32359930  0.65832261  1
  In  In36  1  0.17141439  0.51811327  0.36061914  1
  In  In37  1  0.66547709  0.32450847  0.35373944  1
  In  In38  1  -0.03763330  0.12879603  0.82319878  1
  In  In39  1  0.67127654  0.15626835  0.82104037  1
  In  In40  1  0.83725440  0.86131622  -0.00673910  1
  In  In41  1  0.66889335  -0.02696867  0.66585333  1
  In  In42  1  -0.00130593  0.81748638  0.49181187  1
  In  In43  1  0.65633146  0.15511323  0.17314945  1
  In  In44  1  0.17044157  0.50187433  -0.02604132  1
  In  In45  1  -0.00611742  0.17338711  0.15933159  1
  In  In46  1  0.62985219  0.49313644  0.81628056  1
  In  In47  1  0.82398343  -0.00139954  0.50138731  1
  In  In48  1  -0.00139052  0.33387154  -0.05205036  1
  In  In49  1  0.66160645  0.48915222  0.49030104  1
  In  In50  1  0.83134602  0.49985097  0.66414326  1
  In  In51  1  0.13243160  0.45618290  0.70638682  1
  In  In52  1  0.50338963  0.41191825  0.38000142  1
  In  In53  1  0.36467542  0.31417264  0.00870276  1
  In  In54  1  0.84177172  0.51283873  0.31832114  1
  In  In55  1  0.31945453  0.16714746  0.50814859  1
  In  In56  1  0.50891218  -0.03056829  0.48940607  1
  In  In57  1  0.16210253  -0.01100951  0.85928912  1
  In  In58  1  0.52202353  0.32772998  0.17983764  1
  In  In59  1  -0.00783342  0.29843888  0.34426934  1
  In  In60  1  -0.00301629  0.14898933  0.50329393  1
  In  In61  1  0.37253644  0.18868211  0.21408617  1
  In  In62  1  0.66123608  0.65332822  0.35213903  1
  In  In63  1  0.67768894  0.86905977  0.17502901  1
  In  In64  1  0.52709070  0.69201805  0.16497259  1
  In  In65  1  0.82691450  0.82346060  0.33714572  1
  In  In66  1  0.51492635  0.16156198  0.66372235  1
  In  In67  1  0.48998779  0.48847277  -0.02607859  1
  In  In68  1  0.81341406  0.17333622  0.63775981  1
  In  In69  1  0.00130677  0.53684272  0.14169025  1
  In  In70  1  0.17327049  0.32469286  0.50852541  1
  In  In71  1  0.31226916  0.47788982  0.81358495  1
  Te  Te72  1  0.09314014  0.08661526  0.08492273  1
  Te  Te73  1  0.09857310  0.09539310  0.41312620  1
  Te  Te74  1  0.07076801  0.04976711  0.74740003  1
  Te  Te75  1  0.07039257  0.41863844  0.06377129  1
  Te  Te76  1  0.07325715  0.41192728  0.40947109  1
  Te  Te77  1  0.06339055  0.38503797  0.81513361  1
  Te  Te78  1  0.06493244  0.75175068  0.07860930  1
  Te  Te79  1  0.11412427  0.74248890  0.41460418  1
  Te  Te80  1  0.07150071  0.79314626  0.75434249  1
  Te  Te81  1  0.44164218  0.09055903  0.13128195  1
  Te  Te82  1  0.42165805  0.08122573  0.43343248  1
  Te  Te83  1  0.41037579  0.11356448  0.76083880  1
  Te  Te84  1  0.41869735  0.42717030  0.10083334  1
  Te  Te85  1  0.41563207  0.40299972  0.49562534  1
  Te  Te86  1  0.41849100  0.40125258  0.74189127  1
  Te  Te87  1  0.42198170  0.75529305  0.07559903  1
  Te  Te88  1  0.43341635  0.76540795  0.40940643  1
  Te  Te89  1  0.38609076  0.80742091  0.87397163  1
  Te  Te90  1  0.75685953  0.08008323  0.09039389  1
  Te  Te91  1  0.74627745  0.11003374  0.43987699  1
  Te  Te92  1  0.76005121  0.07049257  0.73484665  1
  Te  Te93  1  0.74226345  0.39249564  0.06440734  1
  Te  Te94  1  0.77096855  0.41808564  0.41018432  1
  Te  Te95  1  0.74105859  0.41414838  0.74874102  1
  Te  Te96  1  0.74037195  0.77383722  0.07070566  1
  Te  Te97  1  0.76197488  0.72807512  0.42650050  1
  Te  Te98  1  0.73017727  0.72156279  0.72620671  1
  Te  Te99  1  0.09288061  0.25861467  0.24133263  1
  Te  Te100  1  0.07146218  0.25419532  0.59097921  1
  Te  Te101  1  0.06749898  0.20903143  0.90128342  1
  Te  Te102  1  0.09933205  0.58820696  0.24537689  1
  Te  Te103  1  0.09903512  0.59651212  0.56884747  1
  Te  Te104  1  0.08786749  0.59284777  0.89116021  1
  Te  Te105  1  0.06746418  0.92151500  0.23200525  1
  Te  Te106  1  0.08475485  0.90706776  0.57719849  1
  Te  Te107  1  0.05717661  0.92517635  0.94083367  1
  Te  Te108  1  0.44600641  0.28629321  0.30270955  1
  Te  Te109  1  0.42873822  0.24861029  0.57318213  1
  Te  Te110  1  0.41715195  0.20309317  0.93314985  1
  Te  Te111  1  0.42037930  0.61149147  0.23848257  1
  Te  Te112  1  0.42577170  0.61053128  0.57379228  1
  Te  Te113  1  0.39804204  0.57537410  0.89426460  1
  Te  Te114  1  0.43779366  0.90771289  0.27627012  1
  Te  Te115  1  0.42045396  0.91438957  0.59906474  1
  Te  Te116  1  0.40772893  0.96144445  0.91784654  1
  Te  Te117  1  0.74980045  0.25267981  0.25078679  1
  Te  Te118  1  0.70867399  0.27132483  0.59211080  1
  Te  Te119  1  0.76624089  0.21352058  0.91769358  1
  Te  Te120  1  0.75432679  0.60511468  0.23646293  1
  Te  Te121  1  0.75224734  0.58351596  0.56554646  1
  Te  Te122  1  0.74320286  0.56685674  0.90361713  1
  Te  Te123  1  0.77369765  0.94422166  0.26000140  1
  Te  Te124  1  0.74212271  0.89351305  0.56525666  1
  Te  Te125  1  0.74424206  0.92910716  0.88844792  1
  Te  Te126  1  0.26570645  0.26286083  0.11707736  1
  Te  Te127  1  0.25013875  0.25117348  0.41075020  1
  Te  Te128  1  0.24249401  0.25416510  0.75864008  1
  Te  Te129  1  0.23692243  0.59805450  0.06871510  1
  Te  Te130  1  0.28931354  0.58160395  0.43052187  1
  Te  Te131  1  0.20565193  0.56980833  0.76522135  1
  Te  Te132  1  0.26330660  0.92018653  0.06398555  1
  Te  Te133  1  0.24969818  0.91234512  0.43428764  1
  Te  Te134  1  0.25595446  0.93039320  0.75473514  1
  Te  Te135  1  0.58100581  0.24174017  0.08079012  1
  Te  Te136  1  0.63406980  0.23212793  0.46345428  1
  Te  Te137  1  0.60012496  0.25499382  0.73785195  1
  Te  Te138  1  0.58158375  0.58089238  0.06855027  1
  Te  Te139  1  0.55743708  0.55703908  0.40505320  1
  Te  Te140  1  0.54589100  0.57689787  0.72620688  1
  Te  Te141  1  0.56953081  0.92084819  0.08328587  1
  Te  Te142  1  0.62879725  0.90231842  0.43574801  1
  Te  Te143  1  0.56796192  0.88571096  0.73776749  1
  Te  Te144  1  0.91708940  0.25128286  0.05514863  1
  Te  Te145  1  0.89946393  0.23745872  0.43547851  1
  Te  Te146  1  0.91340161  0.23996649  0.73098638  1
  Te  Te147  1  0.89243053  0.60201541  0.06137097  1
  Te  Te148  1  0.92933181  0.58736136  0.41555363  1
  Te  Te149  1  0.93686982  0.58768614  0.72989167  1
  Te  Te150  1  0.88259480  0.97952354  0.06851015  1
  Te  Te151  1  0.92928448  0.92564299  0.41193825  1
  Te  Te152  1  0.87676477  0.89210832  0.78297427  1
  Te  Te153  1  0.26291795  0.08540152  0.25217770  1
  Te  Te154  1  0.22673458  0.07794737  0.58578733  1
  Te  Te155  1  0.23730714  0.10503002  0.91888821  1
  Te  Te156  1  0.26370795  0.43133069  0.27377577  1
  Te  Te157  1  0.23221941  0.43183678  0.59579844  1
  Te  Te158  1  0.25990657  0.38992320  0.92613479  1
  Te  Te159  1  0.24634992  0.76539748  0.23048487  1
  Te  Te160  1  0.29596578  0.73306052  0.63813100  1
  Te  Te161  1  0.23422370  0.75863707  0.88934508  1
  Te  Te162  1  0.57202330  0.08834417  0.27172541  1
  Te  Te163  1  0.58976433  0.06579044  0.57708992  1
  Te  Te164  1  0.57926759  0.08604142  0.91853763  1
  Te  Te165  1  0.60102466  0.43632455  0.25122427  1
  Te  Te166  1  0.60550169  0.39753394  0.59147556  1
  Te  Te167  1  0.57868161  0.39376494  0.91078221  1
  Te  Te168  1  0.60565960  0.76952760  0.26432383  1
  Te  Te169  1  0.52621405  0.71260315  0.54291403  1
  Te  Te170  1  0.56553525  0.72529177  0.89262349  1
  Te  Te171  1  0.90357479  0.11505687  0.25741637  1
  Te  Te172  1  0.91788891  0.06293551  0.59914426  1
  Te  Te173  1  0.93216759  0.03241247  0.93169207  1
  Te  Te174  1  0.93270764  0.42980542  0.22909718  1
  Te  Te175  1  0.90901553  0.40325062  0.58633945  1
  Te  Te176  1  0.91843967  0.43824090  0.87260336  1
  Te  Te177  1  0.91340327  0.75774630  0.23909792  1
  Te  Te178  1  0.90831277  0.75393717  0.58550793  1
  Te  Te179  1  0.90292267  0.77179895  0.88486320  1
