# generated using pymatgen
data_In2Te3
_symmetry_space_group_name_H-M   'P 1'
_cell_length_a   18.77881212
_cell_length_b   18.78342471
_cell_length_c   18.77495007
_cell_angle_alpha   90.00928457
_cell_angle_beta   90.03215814
_cell_angle_gamma   89.98429926
_symmetry_Int_Tables_number   1
_chemical_formula_structural   In2Te3
_chemical_formula_sum   'In72 Te108'
_cell_volume   6622.49433634
_cell_formula_units_Z   36
loop_
 _symmetry_equiv_pos_site_id
 _symmetry_equiv_pos_as_xyz
  1  'x, y, z'
loop_
 _atom_site_type_symbol
 _atom_site_label
 _atom_site_symmetry_multiplicity
 _atom_site_fract_x
 _atom_site_fract_y
 _atom_site_fract_z
 _atom_site_occupancy
  In  In0  1  -0.01247642  0.52838436  0.82199194  1
  In  In1  1  0.48908357  0.69568032  0.80245933  1
  In  In2  1  0.67195268  0.17261794  0.16655457  1
  In  In3  1  -0.00979530  0.29542157  0.02020221  1
  In  In4  1  0.13965354  0.14473962  -0.00336776  1
  In  In5  1  -0.01407549  -0.01804313  0.01045685  1
  In  In6  1  0.66591596  0.34157928  0.02960538  1
  In  In7  1  0.84824751  0.16208602  0.00727251  1
  In  In8  1  0.51064592  0.68534938  0.50195300  1
  In  In9  1  0.50336426  0.49892747  0.00892833  1
  In  In10  1  0.31555668  0.14456824  0.49954908  1
  In  In11  1  0.15932785  0.84472548  0.63206904  1
  In  In12  1  0.66027471  0.83848253  0.51171552  1
  In  In13  1  0.85759101  0.16133618  0.64240841  1
  In  In14  1  0.84502019  0.68016439  0.19593958  1
  In  In15  1  0.32255601  -0.01215326  -0.01231355  1
  In  In16  1  0.85973201  0.84134892  0.34289008  1
  In  In17  1  0.85496045  0.82499367  0.63603844  1
  In  In18  1  0.67999731  0.80955121  0.18185379  1
  In  In19  1  0.15159542  0.68796062  0.18939285  1
  In  In20  1  0.48057405  0.15538756  0.33532407  1
  In  In21  1  0.17509328  0.82798970  -0.01419692  1
  In  In22  1  0.00921395  0.51832410  0.49326557  1
  In  In23  1  0.34902867  0.50714608  0.19279084  1
  In  In24  1  0.83466736  0.34014892  0.84095986  1
  In  In25  1  0.68060551  0.65301706  0.00212043  1
  In  In26  1  0.02252659  0.15486483  0.49223413  1
  In  In27  1  0.68731979  0.14912106  0.47820097  1
  In  In28  1  0.50084502  0.66543059  0.18160962  1
  In  In29  1  -0.00643379  0.82921638  0.85373355  1
  In  In30  1  0.83290156  0.50118961  0.34646265  1
  In  In31  1  0.33764814  0.30533977  -0.00696812  1
  In  In32  1  0.63984569  0.14967228  0.84378997  1
  In  In33  1  0.48400694  -0.00765961  0.16012459  1
  In  In34  1  0.48747076  0.84654347  -0.00213791  1
  In  In35  1  0.15205374  0.52200976  0.64602235  1
  In  In36  1  0.02439381  0.33343949  0.65689147  1
  In  In37  1  0.32446925  -0.01131686  0.64345465  1
  In  In38  1  0.66801295  0.67121029  0.34310225  1
  In  In39  1  0.83161476  0.35045595  0.47204982  1
  In  In40  1  0.01843633  0.33668897  0.35742309  1
  In  In41  1  0.81076161  0.50297507  0.00316423  1
  In  In42  1  0.04529745  0.14394490  0.79341639  1
  In  In43  1  0.34061430  0.32839165  0.32972421  1
  In  In44  1  0.19671227  0.30223246  0.79726539  1
  In  In45  1  0.34002403  0.83147027  0.50399564  1
  In  In46  1  0.67059126  0.84216226  0.82491095  1
  In  In47  1  0.45945743  0.33492743  0.83928077  1
  In  In48  1  0.31372049  -0.00540402  0.34140594  1
  In  In49  1  0.00427092  0.53087964  0.18286114  1
  In  In50  1  0.68976460  0.50400245  0.49985526  1
  In  In51  1  0.49149228  0.51291354  0.67838508  1
  In  In52  1  0.18152442  0.15870833  0.31680893  1
  In  In53  1  0.66586903  -0.02019676  0.66675682  1
  In  In54  1  0.48969776  0.15319548  0.65580503  1
  In  In55  1  0.83628165  0.54097830  0.65173728  1
  In  In56  1  0.67142491  0.34793699  0.67508376  1
  In  In57  1  0.67969220  -0.01549635  0.35254260  1
  In  In58  1  0.30704748  0.52060361  0.48236782  1
  In  In59  1  0.16732323  0.66212109  0.82824626  1
  In  In60  1  0.31503074  0.81550905  0.18832450  1
  In  In61  1  0.15089181  0.51419633  -0.01195049  1
  In  In62  1  0.31757592  0.50718888  0.82551573  1
  In  In63  1  0.52946698  0.32845447  0.19372391  1
  In  In64  1  0.67091616  0.00997273  -0.01646061  1
  In  In65  1  -0.02814874  0.12794023  0.19485348  1
  In  In66  1  0.00224809  0.70086710  0.34980951  1
  In  In67  1  0.66176111  0.53566825  0.86441639  1
  In  In68  1  0.83220900  0.00155054  0.82708751  1
  In  In69  1  0.30536403  0.65947411  -0.01550987  1
  In  In70  1  0.49794002  0.31037565  0.48744380  1
  In  In71  1  0.17859354  0.33703451  0.16678320  1
  Te  Te72  1  0.07636748  0.05966700  0.10933612  1
  Te  Te73  1  0.08265471  0.06531355  0.38379448  1
  Te  Te74  1  0.12548850  0.05422292  0.70679040  1
  Te  Te75  1  0.07556404  0.42081301  0.08636520  1
  Te  Te76  1  0.10463896  0.41081107  0.45341619  1
  Te  Te77  1  0.09175913  0.43241390  0.76153977  1
  Te  Te78  1  0.07998918  0.76229110  0.08119237  1
  Te  Te79  1  0.10141334  0.80638649  0.40367525  1
  Te  Te80  1  0.09210482  0.76750416  0.75221691  1
  Te  Te81  1  0.40420340  0.07900916  0.07436560  1
  Te  Te82  1  0.42209197  0.05763801  0.43463617  1
  Te  Te83  1  0.38644947  0.08837429  0.74431685  1
  Te  Te84  1  0.40752290  0.40986229  0.08761267  1
  Te  Te85  1  0.41759801  0.42126277  0.42010202  1
  Te  Te86  1  0.38854484  0.41061161  0.72803401  1
  Te  Te87  1  0.40660985  0.73868122  0.08160399  1
  Te  Te88  1  0.41280244  0.74356403  0.40583938  1
  Te  Te89  1  0.36492708  0.75115871  0.74966728  1
  Te  Te90  1  0.76268323  0.06754084  0.08989433  1
  Te  Te91  1  0.79399292  0.06954109  0.40871314  1
  Te  Te92  1  0.74860364  0.10052724  0.74305355  1
  Te  Te93  1  0.75819483  0.41854671  0.11327797  1
  Te  Te94  1  0.71597150  0.40157856  0.37999362  1
  Te  Te95  1  0.75942952  0.44293259  0.75580064  1
  Te  Te96  1  0.77179774  0.75093809  0.07716396  1
  Te  Te97  1  0.76117282  0.75813194  0.42612636  1
  Te  Te98  1  0.75549067  0.76642463  0.73057805  1
  Te  Te99  1  0.07416009  0.24760104  0.23735255  1
  Te  Te100  1  0.10625504  0.23199003  0.58988560  1
  Te  Te101  1  0.08418832  0.25821984  0.90411964  1
  Te  Te102  1  0.09051589  0.58368134  0.29598983  1
  Te  Te103  1  0.08262059  0.63036333  0.56463580  1
  Te  Te104  1  0.05855438  0.61784429  0.92861027  1
  Te  Te105  1  0.06649193  0.92312194  0.31536334  1
  Te  Te106  1  0.04421920  0.91974230  0.57248638  1
  Te  Te107  1  0.09290130  0.93380592  0.91192061  1
  Te  Te108  1  0.41037940  0.23889884  0.22853036  1
  Te  Te109  1  0.39468522  0.24997956  0.58181980  1
  Te  Te110  1  0.41388032  0.21277581  0.90724376  1
  Te  Te111  1  0.41595315  0.60033075  0.28558891  1
  Te  Te112  1  0.41297069  0.59005481  0.57571768  1
  Te  Te113  1  0.42562929  0.58223975  0.90627879  1
  Te  Te114  1  0.41343651  0.90492541  0.26240774  1
  Te  Te115  1  0.43700380  0.90224066  0.59528266  1
  Te  Te116  1  0.41540913  0.91835415  0.89153128  1
  Te  Te117  1  0.77198937  0.25220675  0.23616947  1
  Te  Te118  1  0.74933227  0.25806869  0.57886799  1
  Te  Te119  1  0.74410623  0.24601302  0.92127910  1
  Te  Te120  1  0.74409471  0.57995724  0.24770752  1
  Te  Te121  1  0.73109368  0.61812810  0.58342397  1
  Te  Te122  1  0.79200026  0.61833775  0.89012210  1
  Te  Te123  1  0.76795537  0.91701159  0.24510377  1
  Te  Te124  1  0.77000037  0.93384482  0.56745522  1
  Te  Te125  1  0.76731768  0.90609874  0.92623803  1
  Te  Te126  1  0.23997169  0.22810136  0.08150442  1
  Te  Te127  1  0.24221409  0.25317533  0.41882036  1
  Te  Te128  1  0.28344891  0.20738642  0.73086849  1
  Te  Te129  1  0.23879159  0.58111736  0.10095139  1
  Te  Te130  1  0.22463797  0.61649366  0.40500468  1
  Te  Te131  1  0.26259267  0.60303301  0.72191189  1
  Te  Te132  1  0.24046166  0.90986513  0.09834725  1
  Te  Te133  1  0.23000102  0.91014361  0.43183885  1
  Te  Te134  1  0.22429863  0.92974486  0.74119511  1
  Te  Te135  1  0.56832606  0.23495964  0.07181417  1
  Te  Te136  1  0.59547785  0.23837365  0.39468744  1
  Te  Te137  1  0.57294631  0.25452180  0.74488164  1
  Te  Te138  1  0.59548139  0.57241583  0.10375367  1
  Te  Te139  1  0.57969556  0.57354332  0.41854316  1
  Te  Te140  1  0.59677036  0.60369721  0.74241278  1
  Te  Te141  1  0.59808560  0.90575051  0.09002142  1
  Te  Te142  1  0.57090875  0.91455700  0.42093144  1
  Te  Te143  1  0.56564762  0.92554242  0.76118679  1
  Te  Te144  1  0.88475902  0.25323216  0.12904499  1
  Te  Te145  1  0.91493399  0.23878599  0.41252909  1
  Te  Te146  1  0.92176987  0.25321122  0.74975791  1
  Te  Te147  1  0.91008122  0.59387225  0.08494948  1
  Te  Te148  1  0.90259954  0.60732347  0.42737336  1
  Te  Te149  1  0.94250687  0.62692504  0.71627755  1
  Te  Te150  1  0.92722613  0.88231877  0.09814812  1
  Te  Te151  1  0.95845574  0.89338414  0.44342991  1
  Te  Te152  1  0.92357597  0.91546606  0.74521716  1
  Te  Te153  1  0.26679209  0.07758002  0.22819032  1
  Te  Te154  1  0.21165144  0.05975994  0.56818330  1
  Te  Te155  1  0.23075427  0.07405757  0.90586054  1
  Te  Te156  1  0.24005161  0.42956936  0.26944336  1
  Te  Te157  1  0.23857524  0.42345280  0.57384894  1
  Te  Te158  1  0.24674382  0.41282019  0.92385465  1
  Te  Te159  1  0.25191928  0.72841615  0.29666041  1
  Te  Te160  1  0.24615707  0.73856379  0.57517383  1
  Te  Te161  1  0.27782147  0.76896474  0.87855475  1
  Te  Te162  1  0.58555968  0.07135707  0.25522018  1
  Te  Te163  1  0.59067163  0.07536665  0.57121501  1
  Te  Te164  1  0.54925135  0.05677978  0.91432371  1
  Te  Te165  1  0.58960023  0.42520419  0.28143076  1
  Te  Te166  1  0.57501914  0.41719739  0.57886845  1
  Te  Te167  1  0.58415077  0.40942289  0.90511370  1
  Te  Te168  1  0.56909284  0.76711171  0.27525104  1
  Te  Te169  1  0.56201487  0.77772406  0.60791345  1
  Te  Te170  1  0.57928692  0.74286136  0.92639705  1
  Te  Te171  1  0.88897388  0.04613618  0.28331990  1
  Te  Te172  1  0.94624622  0.06000285  0.58268402  1
  Te  Te173  1  0.93378352  0.09200491  0.90115673  1
  Te  Te174  1  0.93171568  0.42130575  0.26227831  1
  Te  Te175  1  0.91357178  0.41893752  0.58473568  1
  Te  Te176  1  0.92707088  0.42375217  0.92848366  1
  Te  Te177  1  0.95242773  0.78842249  0.22197204  1
  Te  Te178  1  0.95277956  0.72095154  0.58652853  1
  Te  Te179  1  0.90193484  0.72990053  0.90818963  1
