# generated using pymatgen
data_In2Te3
_symmetry_space_group_name_H-M   'P 1'
_cell_length_a   19.01284612
_cell_length_b   19.00896172
_cell_length_c   18.97467924
_cell_angle_alpha   89.64662313
_cell_angle_beta   90.03347289
_cell_angle_gamma   90.15219222
_symmetry_Int_Tables_number   1
_chemical_formula_structural   In2Te3
_chemical_formula_sum   'In72 Te108'
_cell_volume   6857.56780082
_cell_formula_units_Z   36
loop_
 _symmetry_equiv_pos_site_id
 _symmetry_equiv_pos_as_xyz
  1  'x, y, z'
loop_
 _atom_site_type_symbol
 _atom_site_label
 _atom_site_symmetry_multiplicity
 _atom_site_fract_x
 _atom_site_fract_y
 _atom_site_fract_z
 _atom_site_occupancy
  In  In0  1  0.34310114  0.82562629  0.51826729  1
  In  In1  1  0.15699436  -0.00045495  0.84020817  1
  In  In2  1  0.01786837  0.01137744  0.33141821  1
  In  In3  1  0.49852665  0.30732540  0.15794026  1
  In  In4  1  0.84195558  0.01080995  0.54247499  1
  In  In5  1  0.14460111  0.33804086  0.81138691  1
  In  In6  1  0.85056213  0.50948715  0.64601699  1
  In  In7  1  0.34557132  0.84756705  0.84375037  1
  In  In8  1  0.68487686  0.49743771  0.85120862  1
  In  In9  1  0.85342501  0.68402600  0.15772931  1
  In  In10  1  0.70030039  0.15656602  0.18171490  1
  In  In11  1  -0.01462219  0.51157606  0.19119096  1
  In  In12  1  0.16744650  0.31453716  0.17368521  1
  In  In13  1  0.29545383  0.64288773  0.64984331  1
  In  In14  1  0.51791105  0.46484717  0.66693313  1
  In  In15  1  0.66822010  0.32440296  -0.02687837  1
  In  In16  1  0.66055126  0.66531021  0.00405992  1
  In  In17  1  0.34431474  0.48181065  0.14869804  1
  In  In18  1  0.34233120  0.66655118  -0.03213001  1
  In  In19  1  0.48664165  0.14761123  -0.05187485  1
  In  In20  1  0.50919947  0.82706387  0.31340980  1
  In  In21  1  0.16912601  0.83888756  0.32288609  1
  In  In22  1  0.12399442  0.70498990  0.14461270  1
  In  In23  1  0.14772625  0.49319354  0.35592737  1
  In  In24  1  0.81961259  0.50912836  0.01356937  1
  In  In25  1  0.18517569  0.49356387  0.00199814  1
  In  In26  1  0.00284115  0.49944658  0.84849573  1
  In  In27  1  0.52238351  0.67399389  0.16270748  1
  In  In28  1  0.64509532  -0.02076260  0.34618173  1
  In  In29  1  0.15169150  0.68929039  0.83370775  1
  In  In30  1  0.50945799  0.00465998  0.14239010  1
  In  In31  1  0.32291673  0.46864679  0.82148666  1
  In  In32  1  0.83045501  0.16746841  0.35474662  1
  In  In33  1  0.14465714  0.16501070  0.66849946  1
  In  In34  1  0.15245042  0.65291800  0.49569515  1
  In  In35  1  0.48518616  0.65124766  0.50360061  1
  In  In36  1  0.01211035  0.31872585  0.00736176  1
  In  In37  1  0.84319191  0.16163111  0.67162223  1
  In  In38  1  0.49074688  0.49495575  0.35260063  1
  In  In39  1  0.82698069  0.31523728  0.83095753  1
  In  In40  1  0.00727191  0.67218327  0.67818035  1
  In  In41  1  -0.01509361  0.01157344  0.00131710  1
  In  In42  1  0.66669147  -0.00377783  0.68142777  1
  In  In43  1  0.36275168  0.00136474  0.31320175  1
  In  In44  1  0.50517696  0.83854532  0.68127603  1
  In  In45  1  0.49467538  0.85744794  -0.01080765  1
  In  In46  1  0.16856201  -0.02149785  0.12361336  1
  In  In47  1  0.30542242  0.66313307  0.30944060  1
  In  In48  1  0.48583995  0.64898608  0.81543417  1
  In  In49  1  0.65653091  0.18027182  0.50427520  1
  In  In50  1  0.81764466  0.17830441  -0.01978774  1
  In  In51  1  0.16247760  -0.02251629  0.51505928  1
  In  In52  1  0.29277041  0.31474565  0.63769861  1
  In  In53  1  0.53236410  0.16868482  0.70610305  1
  In  In54  1  0.82939902  0.01360887  0.18127144  1
  In  In55  1  0.33083014  0.15902773  0.48395864  1
  In  In56  1  0.84435138  0.83593786  -0.02046903  1
  In  In57  1  0.34919284  0.02149394  0.70720232  1
  In  In58  1  0.16850324  0.16878879  0.00276050  1
  In  In59  1  0.66852870  0.84281540  0.82147763  1
  In  In60  1  0.83547541  0.82512782  0.32928127  1
  In  In61  1  0.50240501  0.31570033  0.50983861  1
  In  In62  1  0.83177325  0.48560457  0.35601066  1
  In  In63  1  0.68986863  0.68756905  0.66852720  1
  In  In64  1  0.65250260  0.51365383  0.19763197  1
  In  In65  1  0.83831539  0.34636627  0.18118814  1
  In  In66  1  -0.00377867  0.83819801  0.50161457  1
  In  In67  1  0.86620743  0.87263577  0.68274451  1
  In  In68  1  0.18121861  0.16450029  0.31559981  1
  In  In69  1  0.83764274  0.65415351  0.47943688  1
  In  In70  1  0.36423021  0.34048484  0.31816830  1
  In  In71  1  0.82756154  0.32570734  0.50947940  1
  Te  Te72  1  0.07413545  0.09378789  0.09349661  1
  Te  Te73  1  0.10587674  0.08638106  0.42706954  1
  Te  Te74  1  0.06458415  0.06778449  0.74633102  1
  Te  Te75  1  0.07716557  0.42567396  0.09301626  1
  Te  Te76  1  0.10747526  0.40639897  0.46810499  1
  Te  Te77  1  0.03342318  0.40562157  0.73963629  1
  Te  Te78  1  0.05799195  0.78233449  0.03692998  1
  Te  Te79  1  0.07746379  0.75190253  0.40790193  1
  Te  Te80  1  0.05633054  0.78129470  0.76712492  1
  Te  Te81  1  0.42752091  0.10955706  0.07887594  1
  Te  Te82  1  0.43305366  0.08913626  0.40606603  1
  Te  Te83  1  0.42207026  0.11746681  0.79445859  1
  Te  Te84  1  0.41880229  0.39078338  0.06081863  1
  Te  Te85  1  0.40387580  0.41332730  0.44530857  1
  Te  Te86  1  0.40225733  0.38632248  0.72350611  1
  Te  Te87  1  0.42939488  0.74484378  0.06664160  1
  Te  Te88  1  0.39855945  0.74147950  0.40421074  1
  Te  Te89  1  0.39357849  0.73883332  0.73892182  1
  Te  Te90  1  0.74777055  0.07314544  0.06519724  1
  Te  Te91  1  0.74255779  0.06951066  0.43425740  1
  Te  Te92  1  0.77732373  0.05740046  0.76077821  1
  Te  Te93  1  0.73402292  0.41322965  0.09064501  1
  Te  Te94  1  0.73226717  0.40672410  0.42961393  1
  Te  Te95  1  0.76537844  0.42592809  0.74792338  1
  Te  Te96  1  0.75077899  0.76001930  0.07783744  1
  Te  Te97  1  0.74784892  0.75117227  0.41849099  1
  Te  Te98  1  0.78371056  0.76783819  0.75679904  1
  Te  Te99  1  0.07507677  0.25505862  0.26881259  1
  Te  Te100  1  0.12976202  0.28034103  0.57341901  1
  Te  Te101  1  0.07445575  0.23511720  0.90249162  1
  Te  Te102  1  0.09652672  0.59535142  0.24747319  1
  Te  Te103  1  0.09285093  0.57703950  0.60654587  1
  Te  Te104  1  0.09034367  0.59053923  0.93299453  1
  Te  Te105  1  0.07541735  0.91500563  0.23150913  1
  Te  Te106  1  0.06102772  0.92054561  0.60306854  1
  Te  Te107  1  0.07680228  0.91285164  0.93613154  1
  Te  Te108  1  0.39219487  0.23063368  0.22634345  1
  Te  Te109  1  0.41218560  0.22404672  0.59401377  1
  Te  Te110  1  0.46511579  0.29265184  0.93560405  1
  Te  Te111  1  0.41896191  0.58636845  0.24262692  1
  Te  Te112  1  0.41285256  0.56251243  0.60345707  1
  Te  Te113  1  0.41909292  0.54931576  0.90783730  1
  Te  Te114  1  0.42038033  0.90139788  0.21708199  1
  Te  Te115  1  0.41686151  0.93046815  0.59905865  1
  Te  Te116  1  0.38750974  0.95365109  0.94324267  1
  Te  Te117  1  0.74803968  0.26633704  0.27449514  1
  Te  Te118  1  0.73589127  0.24955362  0.61032015  1
  Te  Te119  1  0.70703723  0.22279402  0.86802172  1
  Te  Te120  1  0.77726879  0.57801012  0.24408378  1
  Te  Te121  1  0.73882310  0.58339165  0.57351693  1
  Te  Te122  1  0.76843553  0.61056980  0.91274418  1
  Te  Te123  1  0.73950284  0.91295954  0.24915009  1
  Te  Te124  1  0.74360467  0.90502773  0.59074748  1
  Te  Te125  1  0.75253063  0.92593416  0.90705855  1
  Te  Te126  1  0.26113565  0.24887771  0.08551350  1
  Te  Te127  1  0.26057474  0.26218142  0.40136023  1
  Te  Te128  1  0.24269688  0.23482274  0.75794130  1
  Te  Te129  1  0.26255229  0.59498852  0.08228238  1
  Te  Te130  1  0.25838927  0.57442580  0.42328502  1
  Te  Te131  1  0.22763683  0.57437430  0.76520703  1
  Te  Te132  1  0.27357780  0.92224361  0.04191756  1
  Te  Te133  1  0.26562551  0.91529510  0.41352173  1
  Te  Te134  1  0.25017708  0.91371163  0.74921462  1
  Te  Te135  1  0.61261375  0.23780881  0.08618600  1
  Te  Te136  1  0.56115698  0.23069279  0.40539885  1
  Te  Te137  1  0.59310512  0.28262646  0.77381168  1
  Te  Te138  1  0.57756642  0.56112536  0.07366771  1
  Te  Te139  1  0.58051514  0.59413329  0.40951987  1
  Te  Te140  1  0.60065375  0.57861333  0.74399492  1
  Te  Te141  1  0.59887063  0.91159176  0.07348489  1
  Te  Te142  1  0.55508427  0.90125473  0.43040476  1
  Te  Te143  1  0.55391413  0.94086990  0.78580178  1
  Te  Te144  1  0.90358502  0.24827008  0.08619472  1
  Te  Te145  1  0.92473998  0.23025817  0.44789962  1
  Te  Te146  1  0.92905948  0.26123217  0.74118156  1
  Te  Te147  1  0.93360349  0.59010120  0.07168024  1
  Te  Te148  1  0.93751595  0.56806694  0.41777933  1
  Te  Te149  1  0.91333878  0.58820842  0.76365850  1
  Te  Te150  1  0.90784215  0.92063965  0.09511659  1
  Te  Te151  1  0.91440710  0.93864529  0.41892356  1
  Te  Te152  1  0.91089536  0.98223364  0.77219574  1
  Te  Te153  1  0.24771277  0.05752836  0.23328022  1
  Te  Te154  1  0.25342608  0.07420049  0.59518070  1
  Te  Te155  1  0.25048831  0.08264684  0.91722255  1
  Te  Te156  1  0.24621687  0.42806027  0.25224647  1
  Te  Te157  1  0.20623632  0.42389374  0.58619864  1
  Te  Te158  1  0.24457814  0.38239492  0.91860031  1
  Te  Te159  1  0.24460733  0.76654877  0.21282856  1
  Te  Te160  1  0.22530234  0.76023717  0.58432286  1
  Te  Te161  1  0.24377048  0.77224637  0.92852367  1
  Te  Te162  1  0.58829581  0.08073344  0.24985914  1
  Te  Te163  1  0.57851109  0.07902659  0.59311318  1
  Te  Te164  1  0.58158364  0.06023869  0.88166255  1
  Te  Te165  1  0.56713906  0.40595952  0.25721223  1
  Te  Te166  1  0.60361664  0.40975290  0.56245663  1
  Te  Te167  1  0.56996097  0.40458159  0.88432896  1
  Te  Te168  1  0.61182309  0.74082682  0.25516279  1
  Te  Te169  1  0.57488569  0.74627344  0.58750345  1
  Te  Te170  1  0.57504762  0.74075664  0.89647049  1
  Te  Te171  1  0.92503578  0.10414258  0.25538152  1
  Te  Te172  1  0.94371625  0.11195820  0.57302739  1
  Te  Te173  1  0.91238655  0.09662870  0.90146205  1
  Te  Te174  1  0.93825028  0.39966195  0.28069887  1
  Te  Te175  1  0.92557243  0.43237089  0.54702361  1
  Te  Te176  1  0.90435809  0.40829280  0.93717571  1
  Te  Te177  1  0.93741342  0.75942005  0.24923747  1
  Te  Te178  1  0.90777880  0.74684989  0.58741779  1
  Te  Te179  1  0.96267146  0.77664132  0.91319146  1
