# generated using pymatgen
data_In2Te3
_symmetry_space_group_name_H-M   'P 1'
_cell_length_a   19.03275903
_cell_length_b   18.99338307
_cell_length_c   19.01997641
_cell_angle_alpha   89.93809101
_cell_angle_beta   90.05686525
_cell_angle_gamma   90.19936259
_symmetry_Int_Tables_number   1
_chemical_formula_structural   In2Te3
_chemical_formula_sum   'In72 Te108'
_cell_volume   6875.60558446
_cell_formula_units_Z   36
loop_
 _symmetry_equiv_pos_site_id
 _symmetry_equiv_pos_as_xyz
  1  'x, y, z'
loop_
 _atom_site_type_symbol
 _atom_site_label
 _atom_site_symmetry_multiplicity
 _atom_site_fract_x
 _atom_site_fract_y
 _atom_site_fract_z
 _atom_site_occupancy
  In  In0  1  0.33799581  0.35028099  0.67261835  1
  In  In1  1  0.47466550  0.16961846  0.66390390  1
  In  In2  1  0.84381149  0.68146408  0.85006479  1
  In  In3  1  0.01848342  0.68710624  0.66683949  1
  In  In4  1  0.34321702  -0.01401654  0.00562424  1
  In  In5  1  0.32557081  0.52971046  0.83190102  1
  In  In6  1  0.33405390  0.53728446  0.49474436  1
  In  In7  1  0.84746516  0.50935916  -0.01212391  1
  In  In8  1  0.15802562  0.34565817  0.49199783  1
  In  In9  1  0.17161725  0.32077794  0.15000582  1
  In  In10  1  0.51415231  0.14333812  0.02455815  1
  In  In11  1  0.48565136  0.66646916  0.18029430  1
  In  In12  1  0.16034257  0.68749896  0.83723570  1
  In  In13  1  0.82266787  -0.01287783  0.88394218  1
  In  In14  1  0.48165144  0.53879336  -0.02242884  1
  In  In15  1  0.81653704  0.17032230  -0.01518025  1
  In  In16  1  0.00840198  -0.01753936  0.66051026  1
  In  In17  1  0.33986416  0.79815755  0.82684055  1
  In  In18  1  0.52380554  0.33824140  0.51123338  1
  In  In19  1  0.16167812  0.14665432  0.32086860  1
  In  In20  1  0.49710601  0.49482678  0.30006003  1
  In  In21  1  0.31825963  0.15908014  0.81658941  1
  In  In22  1  0.00626077  0.84991130  0.48770728  1
  In  In23  1  0.84215177  0.50691997  0.34491472  1
  In  In24  1  0.63480785  0.56241699  0.82948569  1
  In  In25  1  0.01268618  0.14915358  0.83689787  1
  In  In26  1  0.16576232  0.50168630  0.33585568  1
  In  In27  1  0.32572077  -0.01379038  0.66294529  1
  In  In28  1  0.68803240  0.79600862  0.12331975  1
  In  In29  1  0.15917887  0.65975739  0.17991938  1
  In  In30  1  0.49963657  0.82070075  -0.00302376  1
  In  In31  1  0.33816948  0.32315512  0.33948809  1
  In  In32  1  0.85827277  -0.02246814  0.13000615  1
  In  In33  1  0.01447642  0.33084114  0.00956134  1
  In  In34  1  0.15028608  0.14755203  0.01177985  1
  In  In35  1  0.65861384  0.52655286  0.49591880  1
  In  In36  1  0.33342087  0.51285507  0.13733661  1
  In  In37  1  0.67540726  0.68261014  0.35062280  1
  In  In38  1  0.67773169  0.35475374  0.67024354  1
  In  In39  1  0.14214435  -0.03721676  0.84710379  1
  In  In40  1  0.49283875  -0.01770901  0.51258403  1
  In  In41  1  0.00806525  0.67255955  0.00774300  1
  In  In42  1  0.14417608  0.85252554  0.32257725  1
  In  In43  1  0.01742874  0.50112058  0.80118591  1
  In  In44  1  0.84079693  0.80359738  0.29742160  1
  In  In45  1  0.48143401  0.34606605  0.84579194  1
  In  In46  1  0.50822748  0.15211853  0.33077556  1
  In  In47  1  0.67313397  0.51033756  0.15336384  1
  In  In48  1  0.69555059  0.19781597  0.19025646  1
  In  In49  1  0.49988058  0.83463704  0.35578242  1
  In  In50  1  0.17451822  -0.00192936  0.49910161  1
  In  In51  1  -0.00649672  0.50846238  0.51303099  1
  In  In52  1  0.50490581  0.69062674  0.52507559  1
  In  In53  1  0.83909866  0.33315828  0.80077193  1
  In  In54  1  0.85243515  0.33636541  0.48634131  1
  In  In55  1  0.65387507  0.16704018  0.83640247  1
  In  In56  1  0.32411166  0.79764643  0.55039811  1
  In  In57  1  -0.05863848  0.31625674  0.30968563  1
  In  In58  1  -0.00580375  0.15077746  0.15717320  1
  In  In59  1  0.82703340  0.13593677  0.64082936  1
  In  In60  1  0.32262231  0.00501566  0.34396494  1
  In  In61  1  0.34758075  0.33851354  0.00207027  1
  In  In62  1  0.51437624  0.30870840  0.18047505  1
  In  In63  1  0.82931674  -0.01322414  0.48103731  1
  In  In64  1  0.80185181  0.53110188  0.64652028  1
  In  In65  1  0.84009263  0.84549893  0.67724140  1
  In  In66  1  0.65227255  -0.02686246  0.70346906  1
  In  In67  1  0.02323346  0.33210758  0.65885996  1
  In  In68  1  0.66308608  0.14484946  0.49008370  1
  In  In69  1  0.67025399  -0.02702580  0.00050476  1
  In  In70  1  0.00033972  0.49966439  0.17654569  1
  In  In71  1  0.32624349  0.85235560  0.17391219  1
  Te  Te72  1  0.10478327  0.05870834  0.12073615  1
  Te  Te73  1  0.08405266  0.04758540  0.39452837  1
  Te  Te74  1  0.09942534  0.07172326  0.74305577  1
  Te  Te75  1  0.09755991  0.43504519  0.08127640  1
  Te  Te76  1  0.05795557  0.41863113  0.40384577  1
  Te  Te77  1  0.11358573  0.41002134  0.74160507  1
  Te  Te78  1  0.08259483  0.76348134  0.10129364  1
  Te  Te79  1  0.09643987  0.75602209  0.42066046  1
  Te  Te80  1  0.05723706  0.77619943  0.77748153  1
  Te  Te81  1  0.42296080  0.06174739  0.10199295  1
  Te  Te82  1  0.41780579  0.08570104  0.43276290  1
  Te  Te83  1  0.42096527  0.06627341  0.75737090  1
  Te  Te84  1  0.44234328  0.41794140  0.09124320  1
  Te  Te85  1  0.42757022  0.41973401  0.41501614  1
  Te  Te86  1  0.42497611  0.44696442  0.75011202  1
  Te  Te87  1  0.40144636  0.74951979  0.08846025  1
  Te  Te88  1  0.40352351  0.74483954  0.42659908  1
  Te  Te89  1  0.41939470  0.70489089  0.74105820  1
  Te  Te90  1  0.74106603  0.08206921  0.08071332  1
  Te  Te91  1  0.75187612  0.07826059  0.39696475  1
  Te  Te92  1  0.75653632  0.08075738  0.76738431  1
  Te  Te93  1  0.75119750  0.42670313  0.06116477  1
  Te  Te94  1  0.74419098  0.42193042  0.42570851  1
  Te  Te95  1  0.74006873  0.45386969  0.76830082  1
  Te  Te96  1  0.78868982  0.70296996  0.07720109  1
  Te  Te97  1  0.75563286  0.78498418  0.41584733  1
  Te  Te98  1  0.75776680  0.75037425  0.75327181  1
  Te  Te99  1  0.07296799  0.25978400  0.24525808  1
  Te  Te100  1  0.07894722  0.24218394  0.56088646  1
  Te  Te101  1  0.09702657  0.25167234  0.91186817  1
  Te  Te102  1  0.05473492  0.59386757  0.27869183  1
  Te  Te103  1  0.09270330  0.58990003  0.58547729  1
  Te  Te104  1  0.08147885  0.57862059  0.91333599  1
  Te  Te105  1  0.03680620  0.86819639  0.21927974  1
  Te  Te106  1  0.10818173  0.89628367  0.59140687  1
  Te  Te107  1  0.04241675  0.95001342  0.95473759  1
  Te  Te108  1  0.40495505  0.22725191  0.24473260  1
  Te  Te109  1  0.40644935  0.26117334  0.56715093  1
  Te  Te110  1  0.42141360  0.22729378  0.91775297  1
  Te  Te111  1  0.38366202  0.58715870  0.25927545  1
  Te  Te112  1  0.41794152  0.59659299  0.60009537  1
  Te  Te113  1  0.41033313  0.63790533  0.89472030  1
  Te  Te114  1  0.42547997  0.92755785  0.26325283  1
  Te  Te115  1  0.43218596  0.88958624  0.61288737  1
  Te  Te116  1  0.41868419  0.90671127  0.90248586  1
  Te  Te117  1  0.80177343  0.26653239  0.26311606  1
  Te  Te118  1  0.74411761  0.25069123  0.58331690  1
  Te  Te119  1  0.74183024  0.27238817  0.90067479  1
  Te  Te120  1  0.75078148  0.59182987  0.25756131  1
  Te  Te121  1  0.72546114  0.63449759  0.57397025  1
  Te  Te122  1  0.74017699  0.60439639  0.93210260  1
  Te  Te123  1  0.75751179  0.89639018  0.21255182  1
  Te  Te124  1  0.74293509  0.92608577  0.59302836  1
  Te  Te125  1  0.73912073  0.86824446  0.91907794  1
  Te  Te126  1  0.26534289  0.23346078  0.07372472  1
  Te  Te127  1  0.23783848  0.23960833  0.41356688  1
  Te  Te128  1  0.24523690  0.25757652  0.73907568  1
  Te  Te129  1  0.24121238  0.60241767  0.07211859  1
  Te  Te130  1  0.22219721  0.60147925  0.42667492  1
  Te  Te131  1  0.23118891  0.60010265  0.73735419  1
  Te  Te132  1  0.24259495  0.89059306  0.05723713  1
  Te  Te133  1  0.27517688  0.89956043  0.44083262  1
  Te  Te134  1  0.24652930  0.89862821  0.75668909  1
  Te  Te135  1  0.60416300  0.25317696  0.07422416  1
  Te  Te136  1  0.59378676  0.25375996  0.40998896  1
  Te  Te137  1  0.57266453  0.26590288  0.74473629  1
  Te  Te138  1  0.57538105  0.60147498  0.07801260  1
  Te  Te139  1  0.55948860  0.59297195  0.40045982  1
  Te  Te140  1  0.56658745  0.65442422  0.73486497  1
  Te  Te141  1  0.57753712  0.90357464  0.09672224  1
  Te  Te142  1  0.59295283  0.92051216  0.42798401  1
  Te  Te143  1  0.59067427  0.87375498  0.78908688  1
  Te  Te144  1  0.90889021  0.24988043  0.07670367  1
  Te  Te145  1  0.92211642  0.22575330  0.42353184  1
  Te  Te146  1  0.91729436  0.21991890  0.73839935  1
  Te  Te147  1  0.90434646  0.60030254  0.09889336  1
  Te  Te148  1  0.89994829  0.59680686  0.44410090  1
  Te  Te149  1  0.91068288  0.58917090  0.74056341  1
  Te  Te150  1  0.92980172  0.88556971  0.04012637  1
  Te  Te151  1  0.91452363  0.90993384  0.38482892  1
  Te  Te152  1  0.91443626  0.93941379  0.76921176  1
  Te  Te153  1  0.23698138  0.05486697  0.23368426  1
  Te  Te154  1  0.25633041  0.08553369  0.58381348  1
  Te  Te155  1  0.24014256  0.06939935  0.91223504  1
  Te  Te156  1  0.25439716  0.40977964  0.24534386  1
  Te  Te157  1  0.25607360  0.42958997  0.57052141  1
  Te  Te158  1  0.26704906  0.42632827  0.91942755  1
  Te  Te159  1  0.24465119  0.75900488  0.26062227  1
  Te  Te160  1  0.23734361  0.70789470  0.62580126  1
  Te  Te161  1  0.23627114  0.77353848  0.93125035  1
  Te  Te162  1  0.61116438  0.09263377  0.24704759  1
  Te  Te163  1  0.58781363  0.08499676  0.60877864  1
  Te  Te164  1  0.57969865  0.06294027  0.91426070  1
  Te  Te165  1  0.60688364  0.40634743  0.25038287  1
  Te  Te166  1  0.58069129  0.44706298  0.60018673  1
  Te  Te167  1  0.57670879  0.44214784  0.91253185  1
  Te  Te168  1  0.58727097  0.75577766  0.24782863  1
  Te  Te169  1  0.60819857  0.74670392  0.61146878  1
  Te  Te170  1  0.60707607  0.77474502  0.90604033  1
  Te  Te171  1  0.90181458  0.06981419  0.23447596  1
  Te  Te172  1  0.93316713  0.06730138  0.56065415  1
  Te  Te173  1  0.93385850  0.08035178  0.94609168  1
  Te  Te174  1  0.88006790  0.42181089  0.21802232  1
  Te  Te175  1  0.90039323  0.41494011  0.60741348  1
  Te  Te176  1  0.93072619  0.40358691  0.89940149  1
  Te  Te177  1  0.96354844  0.74026126  0.24313244  1
  Te  Te178  1  0.92113681  0.76302984  0.57961813  1
  Te  Te179  1  0.94726630  0.77040313  0.91140777  1
