# generated using pymatgen
data_In2Te3
_symmetry_space_group_name_H-M   'P 1'
_cell_length_a   18.95157083
_cell_length_b   18.94733709
_cell_length_c   18.94750154
_cell_angle_alpha   90.02828379
_cell_angle_beta   89.86177942
_cell_angle_gamma   90.01558140
_symmetry_Int_Tables_number   1
_chemical_formula_structural   In2Te3
_chemical_formula_sum   'In72 Te108'
_cell_volume   6803.68209626
_cell_formula_units_Z   36
loop_
 _symmetry_equiv_pos_site_id
 _symmetry_equiv_pos_as_xyz
  1  'x, y, z'
loop_
 _atom_site_type_symbol
 _atom_site_label
 _atom_site_symmetry_multiplicity
 _atom_site_fract_x
 _atom_site_fract_y
 _atom_site_fract_z
 _atom_site_occupancy
  In  In0  1  0.16895014  0.32071365  0.15469561  1
  In  In1  1  0.15712091  -0.02613293  0.19891161  1
  In  In2  1  0.34491612  0.69879324  0.03582843  1
  In  In3  1  0.00799484  0.84406875  0.48909742  1
  In  In4  1  0.83866975  0.50382095  0.00121497  1
  In  In5  1  0.33827305  0.32350105  0.34032676  1
  In  In6  1  0.86064150  0.50448312  0.68577705  1
  In  In7  1  0.85943096  0.65812169  0.50266701  1
  In  In8  1  0.50368155  0.00726620  0.48423875  1
  In  In9  1  0.82758970  0.83683163  0.00363075  1
  In  In10  1  0.51659371  0.64744574  0.85248342  1
  In  In11  1  0.15415355  -0.02289054  0.85487232  1
  In  In12  1  0.64481552  0.69038576  0.30636243  1
  In  In13  1  0.84749538  0.17131105  0.64215120  1
  In  In14  1  0.34162131  0.50039218  0.79896583  1
  In  In15  1  0.14622718  0.84222836  0.02695255  1
  In  In16  1  0.16957972  0.67785950  0.47784387  1
  In  In17  1  0.85530652  0.81852443  0.32831008  1
  In  In18  1  0.63803787  0.18926990  0.16106844  1
  In  In19  1  0.31928168  0.19167748  0.83440966  1
  In  In20  1  0.18399210  0.68447133  0.23006538  1
  In  In21  1  0.13933741  0.81418914  0.65145795  1
  In  In22  1  0.67631572  0.49444192  0.16944192  1
  In  In23  1  -0.00355268  0.33852455  0.33232847  1
  In  In24  1  0.01675082  0.16116999  0.47882455  1
  In  In25  1  0.32000107  0.84271103  0.84527509  1
  In  In26  1  0.63611196  0.15812099  0.50541585  1
  In  In27  1  0.13073281  0.36043157  0.78570485  1
  In  In28  1  0.46861130  0.68593380  0.49976772  1
  In  In29  1  0.49216338  0.35737264  0.84127161  1
  In  In30  1  0.66085063  0.83284177  0.50620095  1
  In  In31  1  0.84564566  0.67805901  0.16238257  1
  In  In32  1  0.32318579  0.01473136  0.03559122  1
  In  In33  1  0.83174559  0.32424064  0.84230403  1
  In  In34  1  0.83886631  0.16895892  -0.00918911  1
  In  In35  1  0.84856626  -0.01024097  0.17358566  1
  In  In36  1  0.64114038  0.49182299  0.50701058  1
  In  In37  1  0.33384771  0.66133125  0.67049555  1
  In  In38  1  0.16305825  0.66372793  0.81669227  1
  In  In39  1  -0.00083382  0.51983075  0.49840759  1
  In  In40  1  0.15803874  0.15231280  0.67191236  1
  In  In41  1  0.17286016  0.17353980  0.33244018  1
  In  In42  1  0.17719676  0.50847637  -0.00840039  1
  In  In43  1  0.34442758  0.00410798  0.65044684  1
  In  In44  1  0.80899369  0.15345890  0.30857901  1
  In  In45  1  0.67822427  -0.02641360  0.34953989  1
  In  In46  1  0.68026057  0.64570234  0.00341445  1
  In  In47  1  0.49628854  0.18233031  0.66887674  1
  In  In48  1  0.83727331  -0.02643698  0.52342980  1
  In  In49  1  0.80836001  0.33290571  0.49718719  1
  In  In50  1  0.86602138  -0.01913662  0.81264926  1
  In  In51  1  0.49445608  0.32298434  0.49543437  1
  In  In52  1  0.85667200  0.50374592  0.35173393  1
  In  In53  1  0.66996351  0.00247050  0.00033139  1
  In  In54  1  0.50902556  0.82016333  0.00657490  1
  In  In55  1  0.67011210  0.49651469  0.81325651  1
  In  In56  1  0.00673311  0.16002539  0.84675679  1
  In  In57  1  0.32275701  0.85316359  0.42017561  1
  In  In58  1  0.67391594  0.15330158  0.83562050  1
  In  In59  1  0.51965523  -0.01030293  0.82986010  1
  In  In60  1  0.34891146  0.49439652  0.18681765  1
  In  In61  1  0.00199358  0.32898552  -0.00696440  1
  In  In62  1  0.47626989  0.49989965  0.00998887  1
  In  In63  1  0.48100541  -0.02592905  0.19624789  1
  In  In64  1  0.70301759  0.67664666  0.68754132  1
  In  In65  1  0.33705109  0.36361299  0.00829101  1
  In  In66  1  -0.00513539  0.67666784  -0.00168182  1
  In  In67  1  0.49112415  0.16006001  0.33171607  1
  In  In68  1  0.16893410  0.36080090  0.54338625  1
  In  In69  1  0.15158377  0.15257940  0.03407475  1
  In  In70  1  0.50094394  0.84722680  0.67591105  1
  In  In71  1  0.50511158  0.49923969  0.33031769  1
  Te  Te72  1  0.08544238  0.03179188  0.08269371  1
  Te  Te73  1  0.10089086  0.06310334  0.40591670  1
  Te  Te74  1  0.07129263  0.05720479  0.75583257  1
  Te  Te75  1  0.08745925  0.42317434  0.07957174  1
  Te  Te76  1  0.08483633  0.41717883  0.42608423  1
  Te  Te77  1  0.03176129  0.44652371  0.71782835  1
  Te  Te78  1  0.10284077  0.71805550  0.09734217  1
  Te  Te79  1  0.10507092  0.78360469  0.39020180  1
  Te  Te80  1  0.06880268  0.77072396  0.77338802  1
  Te  Te81  1  0.43401832  0.07906971  0.10506640  1
  Te  Te82  1  0.40401050  0.10678868  0.44038787  1
  Te  Te83  1  0.41013313  0.08735218  0.76620858  1
  Te  Te84  1  0.44697445  0.39104888  0.11603864  1
  Te  Te85  1  0.40943763  0.42778621  0.42418904  1
  Te  Te86  1  0.41513636  0.39952890  0.72319326  1
  Te  Te87  1  0.45465945  0.74698019  0.12776842  1
  Te  Te88  1  0.38463286  0.72375052  0.38456682  1
  Te  Te89  1  0.41788802  0.75163579  0.76867104  1
  Te  Te90  1  0.75321070  0.08726014  0.09327653  1
  Te  Te91  1  0.74764976  0.07719379  0.43872473  1
  Te  Te92  1  0.77468090  0.08500411  0.74598692  1
  Te  Te93  1  0.75602402  0.41161548  0.07828697  1
  Te  Te94  1  0.73451340  0.42701188  0.40575730  1
  Te  Te95  1  0.75770802  0.40194001  0.73487193  1
  Te  Te96  1  0.73438206  0.75406132  0.09345563  1
  Te  Te97  1  0.75545605  0.74785910  0.42336212  1
  Te  Te98  1  0.81178622  0.75063971  0.75169518  1
  Te  Te99  1  0.07239463  0.24179344  0.24129173  1
  Te  Te100  1  0.07244887  0.24856516  0.58858081  1
  Te  Te101  1  0.10774218  0.25105066  0.91382179  1
  Te  Te102  1  0.08483476  0.58454841  0.27590184  1
  Te  Te103  1  0.07500850  0.62010539  0.57938516  1
  Te  Te104  1  0.07414753  0.57904953  0.90736522  1
  Te  Te105  1  0.07753247  0.86638218  0.26118445  1
  Te  Te106  1  0.09687914  0.92784854  0.57137751  1
  Te  Te107  1  0.06035206  0.87806355  0.91146656  1
  Te  Te108  1  0.40324739  0.23607215  0.24270836  1
  Te  Te109  1  0.40348805  0.22574526  0.56324369  1
  Te  Te110  1  0.41715655  0.25811053  0.92787392  1
  Te  Te111  1  0.41854364  0.59945899  0.26320870  1
  Te  Te112  1  0.39940200  0.57418467  0.56966302  1
  Te  Te113  1  0.39114325  0.59142431  0.91710406  1
  Te  Te114  1  0.37285345  0.92370466  0.29048885  1
  Te  Te115  1  0.41516939  0.90076902  0.56231518  1
  Te  Te116  1  0.41984990  0.92052815  0.92826805  1
  Te  Te117  1  0.74648003  0.25942702  0.23200991  1
  Te  Te118  1  0.72622667  0.24725199  0.59124955  1
  Te  Te119  1  0.73055573  0.25674222  0.93261705  1
  Te  Te120  1  0.76011759  0.59860347  0.26236754  1
  Te  Te121  1  0.75618993  0.57642633  0.58022385  1
  Te  Te122  1  0.76425081  0.58298199  0.89336108  1
  Te  Te123  1  0.75218863  0.89465341  0.24489356  1
  Te  Te124  1  0.72348756  0.92430659  0.60199013  1
  Te  Te125  1  0.75360611  0.92444188  0.90296061  1
  Te  Te126  1  0.26798013  0.24013827  0.07454594  1
  Te  Te127  1  0.23226572  0.26900473  0.43370222  1
  Te  Te128  1  0.24186403  0.26672543  0.73017165  1
  Te  Te129  1  0.26493636  0.57993870  0.09329131  1
  Te  Te130  1  0.21047839  0.59542179  0.35814023  1
  Te  Te131  1  0.22181664  0.55889839  0.71556310  1
  Te  Te132  1  0.27627096  0.88442769  0.09614433  1
  Te  Te133  1  0.23696333  0.96668417  0.37916966  1
  Te  Te134  1  0.24795581  0.92091564  0.73962569  1
  Te  Te135  1  0.55646051  0.28210967  0.08753676  1
  Te  Te136  1  0.59054119  0.25439660  0.39943577  1
  Te  Te137  1  0.58465086  0.25489954  0.76745316  1
  Te  Te138  1  0.57616949  0.58156529  0.09242674  1
  Te  Te139  1  0.58398891  0.60716767  0.42042666  1
  Te  Te140  1  0.57907496  0.58474897  0.73159283  1
  Te  Te141  1  0.58509105  0.91977967  0.09281426  1
  Te  Te142  1  0.56349970  0.88991891  0.40502011  1
  Te  Te143  1  0.60973857  0.89721465  0.76127980  1
  Te  Te144  1  0.93421876  0.23370329  0.08044105  1
  Te  Te145  1  0.89991825  0.24389713  0.41535672  1
  Te  Te146  1  0.92473471  0.24519632  0.75183490  1
  Te  Te147  1  0.93309195  0.57445019  0.09573408  1
  Te  Te148  1  0.95441532  0.61853021  0.38571191  1
  Te  Te149  1  0.97677575  0.59159004  0.70834644  1
  Te  Te150  1  0.92963106  0.89844194  0.09068751  1
  Te  Te151  1  0.91818474  0.93435569  0.40131553  1
  Te  Te152  1  0.89419015  0.87673167  0.71064429  1
  Te  Te153  1  0.24986196  0.07973122  0.24493335  1
  Te  Te154  1  0.24659655  0.08306648  0.57652931  1
  Te  Te155  1  0.24883085  0.07880584  0.91803662  1
  Te  Te156  1  0.24354662  0.40832884  0.25280152  1
  Te  Te157  1  0.25518082  0.46886278  0.59058357  1
  Te  Te158  1  0.24774122  0.41542427  0.89398905  1
  Te  Te159  1  0.27716838  0.80140972  0.22858551  1
  Te  Te160  1  0.25878990  0.75529175  0.57858630  1
  Te  Te161  1  0.23821849  0.74415149  0.92491848  1
  Te  Te162  1  0.59569589  0.06766105  0.26283912  1
  Te  Te163  1  0.57330781  0.06624899  0.60846708  1
  Te  Te164  1  0.57069172  0.09218628  0.92938505  1
  Te  Te165  1  0.59171413  0.40850395  0.25505848  1
  Te  Te166  1  0.56994872  0.40102811  0.59541760  1
  Te  Te167  1  0.58963125  0.43651035  0.92621004  1
  Te  Te168  1  0.55260180  0.78327274  0.24425802  1
  Te  Te169  1  0.58214136  0.73735093  0.59716960  1
  Te  Te170  1  0.60746948  0.74961610  0.91326777  1
  Te  Te171  1  0.92480146  0.07789918  0.26293033  1
  Te  Te172  1  0.93989601  0.07004724  0.57970208  1
  Te  Te173  1  0.92646020  0.06165125  0.92875564  1
  Te  Te174  1  0.91171662  0.42008778  0.24571237  1
  Te  Te175  1  0.91064666  0.41509571  0.57096035  1
  Te  Te176  1  0.92662722  0.42465052  0.90350184  1
  Te  Te177  1  0.94902558  0.77124184  0.22073426  1
  Te  Te178  1  0.90942705  0.77429881  0.58149753  1
  Te  Te179  1  0.89239478  0.73915523  0.91115893  1
