# generated using pymatgen
data_In2Te3
_symmetry_space_group_name_H-M   'P 1'
_cell_length_a   18.93570333
_cell_length_b   18.93650230
_cell_length_c   18.93395219
_cell_angle_alpha   90.19686132
_cell_angle_beta   89.77699957
_cell_angle_gamma   89.93320418
_symmetry_Int_Tables_number   1
_chemical_formula_structural   In2Te3
_chemical_formula_sum   'In72 Te108'
_cell_volume   6789.16443014
_cell_formula_units_Z   36
loop_
 _symmetry_equiv_pos_site_id
 _symmetry_equiv_pos_as_xyz
  1  'x, y, z'
loop_
 _atom_site_type_symbol
 _atom_site_label
 _atom_site_symmetry_multiplicity
 _atom_site_fract_x
 _atom_site_fract_y
 _atom_site_fract_z
 _atom_site_occupancy
  In  In0  1  0.55666957  0.82355348  0.25645976  1
  In  In1  1  0.49408196  0.14629256  0.64612158  1
  In  In2  1  -0.02050491  -0.01672957  -0.01603738  1
  In  In3  1  0.48897741  0.32898718  0.82017148  1
  In  In4  1  0.38546182  -0.01073438  -0.01319054  1
  In  In5  1  0.34103885  0.80995987  0.16106823  1
  In  In6  1  -0.02365602  0.53130180  0.14760798  1
  In  In7  1  0.00065797  0.81983839  0.52225314  1
  In  In8  1  -0.00736360  0.35177603  0.30062751  1
  In  In9  1  0.14819615  0.51358811  0.32522133  1
  In  In10  1  0.16378829  0.01518218  0.84120321  1
  In  In11  1  0.15966740  0.19062436  0.00389084  1
  In  In12  1  0.67983695  0.16424086  0.17464048  1
  In  In13  1  0.63571758  -0.01634014  0.01390642  1
  In  In14  1  0.49845994  0.53081633  0.32110021  1
  In  In15  1  0.32695205  0.00801359  0.65369680  1
  In  In16  1  0.33520141  0.66985523  -0.00773240  1
  In  In17  1  0.82522525  -0.00331483  0.82782083  1
  In  In18  1  0.68877390  0.14531397  0.53008625  1
  In  In19  1  0.65807412  0.67867801  -0.01332422  1
  In  In20  1  0.34060258  0.35187174  -0.01446065  1
  In  In21  1  0.32534438  0.12961042  0.14989536  1
  In  In22  1  0.32403646  0.49355588  0.50585046  1
  In  In23  1  0.02029218  0.35965958  0.68474980  1
  In  In24  1  -0.00309889  0.68262313  -0.01623726  1
  In  In25  1  0.13770274  -0.01601366  0.50583140  1
  In  In26  1  0.82065066  -0.03101997  0.16040084  1
  In  In27  1  0.82793424  0.81589608  0.01630263  1
  In  In28  1  0.32818970  -0.01743484  0.33694228  1
  In  In29  1  0.82415025  0.67041631  0.49457035  1
  In  In30  1  0.65774946  0.32907553  0.66573746  1
  In  In31  1  -0.00800524  0.16404847  0.13641249  1
  In  In32  1  0.66704720  0.50588523  0.51259364  1
  In  In33  1  0.01994152  0.52421162  0.52373422  1
  In  In34  1  0.83646874  0.16975042  0.31795101  1
  In  In35  1  0.69762546  0.54786954  0.17466524  1
  In  In36  1  0.86889877  0.53553880  0.69575010  1
  In  In37  1  0.50026740  0.68705132  0.52210324  1
  In  In38  1  0.53762847  -0.00082387  0.48020316  1
  In  In39  1  0.49392070  0.52146611  -0.04074711  1
  In  In40  1  0.17910770  0.82867006  -0.00038280  1
  In  In41  1  0.16026070  -0.02581432  0.18296509  1
  In  In42  1  0.32115116  0.66011975  0.32082075  1
  In  In43  1  0.30188342  0.65701280  0.68224273  1
  In  In44  1  0.35096212  0.20505372  0.48225257  1
  In  In45  1  0.16800576  0.16065371  0.66659686  1
  In  In46  1  0.33211275  0.83848498  0.50492979  1
  In  In47  1  0.51225673  0.16375725  0.30695290  1
  In  In48  1  0.84260893  0.18573808  -0.01694608  1
  In  In49  1  0.52873980  0.82923544  0.67691780  1
  In  In50  1  0.31296157  0.35240139  0.33391496  1
  In  In51  1  0.34302098  0.83748278  0.84753840  1
  In  In52  1  0.81231480  0.82680678  0.68199235  1
  In  In53  1  0.16024976  0.32831038  0.52364197  1
  In  In54  1  0.14328008  0.80636925  0.69337350  1
  In  In55  1  -0.02597155  0.69654243  0.34563395  1
  In  In56  1  0.52084076  -0.02986130  0.82951602  1
  In  In57  1  0.68504828  0.52988651  0.84200618  1
  In  In58  1  0.16282376  0.34985228  0.18483944  1
  In  In59  1  -0.01728589  -0.04047846  0.34310230  1
  In  In60  1  0.69777535  -0.03442598  0.34471642  1
  In  In61  1  0.82524441  0.34552609  0.49092690  1
  In  In62  1  0.68079919  0.34204282  0.00975821  1
  In  In63  1  0.32403333  0.18602124  0.83144213  1
  In  In64  1  0.66940414  0.32939896  0.33011014  1
  In  In65  1  0.52679346  0.51846083  0.69852634  1
  In  In66  1  0.84102469  0.34374099  0.82729127  1
  In  In67  1  0.17532981  0.51747609  -0.01882383  1
  In  In68  1  0.47795894  0.29275515  0.49583076  1
  In  In69  1  0.01414327  0.35334118  -0.03755480  1
  In  In70  1  -0.03781778  0.11306111  0.53229318  1
  In  In71  1  0.49169504  0.34703969  0.14534617  1
  Te  Te72  1  0.09155832  0.06521730  0.07290166  1
  Te  Te73  1  0.05613009  0.07200236  0.41433605  1
  Te  Te74  1  0.07604065  0.07197570  0.73904993  1
  Te  Te75  1  0.08316887  0.42788574  0.08511431  1
  Te  Te76  1  0.07949122  0.41603665  0.41990855  1
  Te  Te77  1  0.07566184  0.47386580  0.76226831  1
  Te  Te78  1  0.10133405  0.73087703  0.07878468  1
  Te  Te79  1  0.08259252  0.73055671  0.43813852  1
  Te  Te80  1  0.04840756  0.70369261  0.74226471  1
  Te  Te81  1  0.44544000  0.06881010  0.09430289  1
  Te  Te82  1  0.42667965  0.08100589  0.41323519  1
  Te  Te83  1  0.41384895  0.07169233  0.76170829  1
  Te  Te84  1  0.41022994  0.45105831  0.07352269  1
  Te  Te85  1  0.42374516  0.42148442  0.41304033  1
  Te  Te86  1  0.41756766  0.44302200  0.76190998  1
  Te  Te87  1  0.43572471  0.72153659  0.08825626  1
  Te  Te88  1  0.41020087  0.74537389  0.41504806  1
  Te  Te89  1  0.40624488  0.75926723  0.73322368  1
  Te  Te90  1  0.76930736  0.08874965  0.07664046  1
  Te  Te91  1  0.76883209  0.07821373  0.41787976  1
  Te  Te92  1  0.76609941  0.08610649  0.72896678  1
  Te  Te93  1  0.75505075  0.43495911  0.09578265  1
  Te  Te94  1  0.74825802  0.43897339  0.40065171  1
  Te  Te95  1  0.74381870  0.43402639  0.73699213  1
  Te  Te96  1  0.70987742  0.76824353  0.09824754  1
  Te  Te97  1  0.75983564  0.74598578  0.38560713  1
  Te  Te98  1  0.71356915  0.75810410  0.77154914  1
  Te  Te99  1  0.07673586  0.23788126  0.24085630  1
  Te  Te100  1  0.05669920  0.23168553  0.57800157  1
  Te  Te101  1  0.08352950  0.24417029  0.89173533  1
  Te  Te102  1  0.06163623  0.60789871  0.24838007  1
  Te  Te103  1  0.08804138  0.58729231  0.64057664  1
  Te  Te104  1  0.05720765  0.56857376  0.90553763  1
  Te  Te105  1  0.07584123  0.88179433  0.25847447  1
  Te  Te106  1  0.06598027  0.91851994  0.62046256  1
  Te  Te107  1  0.08415204  0.90355526  0.90624499  1
  Te  Te108  1  0.41368722  0.26438187  0.25243718  1
  Te  Te109  1  0.39353345  0.25698020  0.61958698  1
  Te  Te110  1  0.42719560  0.24133699  0.92885809  1
  Te  Te111  1  0.42337745  0.61027829  0.22292854  1
  Te  Te112  1  0.41440661  0.58523772  0.59607639  1
  Te  Te113  1  0.39181495  0.58907204  0.88021230  1
  Te  Te114  1  0.42307911  0.90553892  0.25063101  1
  Te  Te115  1  0.43266406  0.92655940  0.57804805  1
  Te  Te116  1  0.46622219  0.86361141  0.93514878  1
  Te  Te117  1  0.77015846  0.27328108  0.22961365  1
  Te  Te118  1  0.77212661  0.25264886  0.59818189  1
  Te  Te119  1  0.73964486  0.25316471  0.89736012  1
  Te  Te120  1  0.77323323  0.63022654  0.27687783  1
  Te  Te121  1  0.75306765  0.58735211  0.60380310  1
  Te  Te122  1  0.77436814  0.59625657  0.93948770  1
  Te  Te123  1  0.78692540  0.86807118  0.26920848  1
  Te  Te124  1  0.78569749  0.91293066  0.56170836  1
  Te  Te125  1  0.74778034  0.91846028  0.93695775  1
  Te  Te126  1  0.25984703  0.25819000  0.09868377  1
  Te  Te127  1  0.22679397  0.25319101  0.40714210  1
  Te  Te128  1  0.22381737  0.26317320  0.75722645  1
  Te  Te129  1  0.22808778  0.61408250  0.08019454  1
  Te  Te130  1  0.23501237  0.58661944  0.42845570  1
  Te  Te131  1  0.20900646  0.55807997  0.74075463  1
  Te  Te132  1  0.26925756  0.92486925  0.07647396  1
  Te  Te133  1  0.22687383  0.90023834  0.41367314  1
  Te  Te134  1  0.25009606  0.91620700  0.74667648  1
  Te  Te135  1  0.58820852  0.24522065  0.08486578  1
  Te  Te136  1  0.60453420  0.22685190  0.42284398  1
  Te  Te137  1  0.57738822  0.22861816  0.74438107  1
  Te  Te138  1  0.58983199  0.56607145  0.06460144  1
  Te  Te139  1  0.58428166  0.59949748  0.42459908  1
  Te  Te140  1  0.59721232  0.63032957  0.77061707  1
  Te  Te141  1  0.60346736  0.89053879  0.12480641  1
  Te  Te142  1  0.58399146  0.87999161  0.40045718  1
  Te  Te143  1  0.63430593  0.89216344  0.76521527  1
  Te  Te144  1  0.92415457  0.27884543  0.06958781  1
  Te  Te145  1  0.91922928  0.26127777  0.40572304  1
  Te  Te146  1  0.93275888  0.26063193  0.74739613  1
  Te  Te147  1  0.88753642  0.61740982  0.06429604  1
  Te  Te148  1  0.92023019  0.57282789  0.42456528  1
  Te  Te149  1  0.90866364  0.64502249  0.78696665  1
  Te  Te150  1  0.93590976  0.89206201  0.09531767  1
  Te  Te151  1  0.89550236  0.90130236  0.45031104  1
  Te  Te152  1  0.91252018  0.88629624  0.77721237  1
  Te  Te153  1  0.23960433  0.08185745  0.26341096  1
  Te  Te154  1  0.24728822  0.08300027  0.55052693  1
  Te  Te155  1  0.26274424  0.08757198  0.93154015  1
  Te  Te156  1  0.26036338  0.45500551  0.23709572  1
  Te  Te157  1  0.24785985  0.41413854  0.60234088  1
  Te  Te158  1  0.23489420  0.40649813  0.90336594  1
  Te  Te159  1  0.23735441  0.75721335  0.25002206  1
  Te  Te160  1  0.23458994  0.75114509  0.58349821  1
  Te  Te161  1  0.23722666  0.73906223  0.89158224  1
  Te  Te162  1  0.60926966  0.05900746  0.25659521  1
  Te  Te163  1  0.60579216  0.04641422  0.60800153  1
  Te  Te164  1  0.58720179  0.07320473  0.90966964  1
  Te  Te165  1  0.57934239  0.42040555  0.24717765  1
  Te  Te166  1  0.56511283  0.41140304  0.57855308  1
  Te  Te167  1  0.59226546  0.41249844  0.90204010  1
  Te  Te168  1  0.62909001  0.69388037  0.22751189  1
  Te  Te169  1  0.61330876  0.76137319  0.57844542  1
  Te  Te170  1  0.56724836  0.74479357  0.89222235  1
  Te  Te171  1  0.91840393  0.06949641  0.23523443  1
  Te  Te172  1  0.86421635  0.03786111  0.62058538  1
  Te  Te173  1  0.92828494  0.09450928  0.89753340  1
  Te  Te174  1  0.90002924  0.44707905  0.24235890  1
  Te  Te175  1  0.91247360  0.42580308  0.58874840  1
  Te  Te176  1  0.90804305  0.44142018  0.91334469  1
  Te  Te177  1  0.88024572  0.74025635  0.23972171  1
  Te  Te178  1  0.90887745  0.73224142  0.60393328  1
  Te  Te179  1  0.90946972  0.77229804  0.89555688  1
