# generated using pymatgen
data_In2Te3
_symmetry_space_group_name_H-M   'P 1'
_cell_length_a   18.79772295
_cell_length_b   18.80447223
_cell_length_c   18.79687689
_cell_angle_alpha   89.96243465
_cell_angle_beta   89.95243941
_cell_angle_gamma   89.95378554
_symmetry_Int_Tables_number   1
_chemical_formula_structural   In2Te3
_chemical_formula_sum   'In72 Te108'
_cell_volume   6644.33783498
_cell_formula_units_Z   36
loop_
 _symmetry_equiv_pos_site_id
 _symmetry_equiv_pos_as_xyz
  1  'x, y, z'
loop_
 _atom_site_type_symbol
 _atom_site_label
 _atom_site_symmetry_multiplicity
 _atom_site_fract_x
 _atom_site_fract_y
 _atom_site_fract_z
 _atom_site_occupancy
  In  In0  1  0.84176412  0.00578662  0.84794978  1
  In  In1  1  0.68431650  -0.02209159  0.34070790  1
  In  In2  1  0.49452759  -0.00534070  0.50718225  1
  In  In3  1  0.67668628  0.14497339  0.49148623  1
  In  In4  1  0.65895362  0.31757759  -0.00766050  1
  In  In5  1  0.00266861  0.50595354  0.50764349  1
  In  In6  1  0.18359045  0.32946697  0.17975592  1
  In  In7  1  0.82987173  0.34218954  0.48651683  1
  In  In8  1  0.31746533  0.65391444  0.37532796  1
  In  In9  1  0.15001062  -0.00459638  0.82520178  1
  In  In10  1  0.69778249  0.13672663  0.14564988  1
  In  In11  1  0.49385668  0.50995132  0.00615112  1
  In  In12  1  0.49950345  0.82107676  0.65375912  1
  In  In13  1  0.68971435  0.83418323  0.17141480  1
  In  In14  1  0.69848758  -0.02174980  0.62643987  1
  In  In15  1  0.34104963  0.82826760  0.17511966  1
  In  In16  1  0.50536592  0.83933131  0.00849747  1
  In  In17  1  0.50821904  0.35899831  0.52498775  1
  In  In18  1  0.17094564  0.82543868  -0.00759373  1
  In  In19  1  0.33164456  0.50197924  0.15439901  1
  In  In20  1  0.64374409  0.64388138  0.34453458  1
  In  In21  1  0.67224232  0.67669704  0.67255679  1
  In  In22  1  0.84048624  0.67848133  0.50281931  1
  In  In23  1  0.50239424  0.33724763  0.80913246  1
  In  In24  1  0.15332738  0.16689418  0.33199862  1
  In  In25  1  0.83472213  0.17920348  0.67471968  1
  In  In26  1  0.16400260  0.17829464  0.01135046  1
  In  In27  1  0.30293329  0.51649995  0.80951317  1
  In  In28  1  0.83575678  0.33374278  0.82419351  1
  In  In29  1  0.34582353  0.82184083  0.84393703  1
  In  In30  1  0.31303643  0.35679647  0.63818445  1
  In  In31  1  0.80930948  0.50825817  -0.00950261  1
  In  In32  1  0.00304315  0.50653465  0.19824018  1
  In  In33  1  0.82232184  0.66957312  0.16590883  1
  In  In34  1  0.85662277  0.84008812  0.34967492  1
  In  In35  1  0.01278005  0.15700204  0.49776999  1
  In  In36  1  0.51160873  0.50079504  0.35122590  1
  In  In37  1  0.17784489  0.81046618  0.65079608  1
  In  In38  1  -0.03117134  0.12319856  0.17571842  1
  In  In39  1  0.01170915  0.67332958  -0.00611171  1
  In  In40  1  0.65200815  0.17960546  0.82802321  1
  In  In41  1  0.16146727  0.35536439  0.83976360  1
  In  In42  1  0.33191247  0.16508617  0.84533285  1
  In  In43  1  0.49712108  0.65783710  0.15274897  1
  In  In44  1  -0.01710651  0.85913512  0.14715170  1
  In  In45  1  0.67546719  0.52282054  0.81263846  1
  In  In46  1  0.84360955  0.32776142  0.17797228  1
  In  In47  1  0.50539154  0.64930974  0.82304759  1
  In  In48  1  0.15432948  0.82883995  0.34723896  1
  In  In49  1  0.49808017  0.01855205  0.15831906  1
  In  In50  1  0.02523288  0.65903352  0.34935417  1
  In  In51  1  0.33840016  0.01990701  0.66610826  1
  In  In52  1  0.32301674  0.16994658  0.50407357  1
  In  In53  1  0.01320629  -0.02046682  0.65141758  1
  In  In54  1  0.00982968  0.49824216  0.80346263  1
  In  In55  1  0.49228441  0.18043823  0.32515349  1
  In  In56  1  0.34132673  0.33507212  0.34467009  1
  In  In57  1  0.68381697  0.83926543  0.81896786  1
  In  In58  1  0.63665964  0.50582002  0.17557864  1
  In  In59  1  0.01273212  0.33547546  0.35112149  1
  In  In60  1  0.15919544  0.16342733  0.66415138  1
  In  In61  1  0.84347959  0.50031644  0.66940256  1
  In  In62  1  0.29459219  -0.00791805  0.32633678  1
  In  In63  1  0.67876776  0.34062790  0.32906668  1
  In  In64  1  0.48544379  0.81539802  0.35981090  1
  In  In65  1  -0.00392952  0.68401127  0.67081403  1
  In  In66  1  -0.01771103  0.82944631  0.83592933  1
  In  In67  1  0.50235187  0.00349482  0.84198869  1
  In  In68  1  0.17955939  0.50723355  0.00092639  1
  In  In69  1  0.00687264  0.32159687  -0.00072257  1
  In  In70  1  0.16436478  -0.01187692  0.19118297  1
  In  In71  1  0.50432581  0.15776993  0.00182148  1
  Te  Te72  1  0.08522897  0.07255764  0.08985768  1
  Te  Te73  1  0.08521354  0.06189978  0.40864973  1
  Te  Te74  1  0.05689865  0.08849341  0.75097238  1
  Te  Te75  1  0.08359490  0.41974560  0.08776165  1
  Te  Te76  1  0.09919240  0.43804913  0.41305498  1
  Te  Te77  1  0.10141933  0.41799850  0.72080649  1
  Te  Te78  1  0.08581888  0.75542002  0.09951240  1
  Te  Te79  1  0.06725242  0.76080388  0.44867019  1
  Te  Te80  1  0.09444244  0.75268907  0.76600717  1
  Te  Te81  1  0.39836303  0.08372436  0.07337481  1
  Te  Te82  1  0.40903608  0.08040010  0.41096102  1
  Te  Te83  1  0.43448427  0.10423980  0.74885280  1
  Te  Te84  1  0.43124185  0.41083957  0.09453636  1
  Te  Te85  1  0.40610378  0.43429561  0.44089031  1
  Te  Te86  1  0.40598326  0.42999995  0.73539115  1
  Te  Te87  1  0.40342223  0.74031494  0.06597432  1
  Te  Te88  1  0.43053268  0.71423826  0.45289476  1
  Te  Te89  1  0.40879684  0.73191698  0.73743381  1
  Te  Te90  1  0.79318243  0.06382856  0.05739347  1
  Te  Te91  1  0.77954403  0.07259317  0.41014162  1
  Te  Te92  1  0.74086303  0.07688858  0.74428154  1
  Te  Te93  1  0.74355341  0.41019159  0.09269617  1
  Te  Te94  1  0.73136955  0.43542947  0.42738907  1
  Te  Te95  1  0.73859544  0.40791321  0.73454413  1
  Te  Te96  1  0.76195248  0.75937284  0.06540051  1
  Te  Te97  1  0.74736732  0.74618400  0.39965297  1
  Te  Te98  1  0.77603330  0.76153344  0.73398344  1
  Te  Te99  1  0.06237991  0.24729244  0.23044121  1
  Te  Te100  1  0.09109355  0.25747024  0.57352051  1
  Te  Te101  1  0.08109192  0.23809787  0.89618352  1
  Te  Te102  1  0.11089594  0.59085313  0.24998761  1
  Te  Te103  1  0.08616687  0.58503345  0.60450907  1
  Te  Te104  1  0.09369133  0.58379180  0.90007730  1
  Te  Te105  1  0.05484766  0.91868336  0.26966624  1
  Te  Te106  1  0.09600120  0.89628582  0.55948245  1
  Te  Te107  1  0.06827674  0.91812542  0.92687567  1
  Te  Te108  1  0.39726324  0.24928149  0.23724042  1
  Te  Te109  1  0.41587553  0.25204175  0.58991738  1
  Te  Te110  1  0.42693081  0.26019756  0.91768534  1
  Te  Te111  1  0.41743363  0.59143526  0.26375375  1
  Te  Te112  1  0.33997715  0.57851729  0.59752624  1
  Te  Te113  1  0.40025002  0.58444640  0.91227745  1
  Te  Te114  1  0.43059792  0.92134134  0.25978188  1
  Te  Te115  1  0.39418095  0.90581242  0.57907840  1
  Te  Te116  1  0.40605622  0.93021440  0.93392087  1
  Te  Te117  1  0.75455066  0.23076583  0.25460558  1
  Te  Te118  1  0.74321806  0.25286586  0.57693079  1
  Te  Te119  1  0.76387739  0.23642203  0.91752971  1
  Te  Te120  1  0.74755542  0.57100387  0.25609752  1
  Te  Te121  1  0.75215862  0.58076933  0.57927771  1
  Te  Te122  1  0.75297854  0.61085830  0.90158867  1
  Te  Te123  1  0.78980535  0.93218735  0.23515534  1
  Te  Te124  1  0.78783248  0.88909026  0.54533434  1
  Te  Te125  1  0.75021601  0.91726478  0.92563539  1
  Te  Te126  1  0.26208900  0.27076062  0.07015459  1
  Te  Te127  1  0.23228558  0.26094379  0.42345259  1
  Te  Te128  1  0.25572735  0.25384602  0.74675269  1
  Te  Te129  1  0.24801145  0.60365088  0.08835775  1
  Te  Te130  1  0.21630368  0.57216956  0.44760444  1
  Te  Te131  1  0.23099768  0.59305823  0.70085652  1
  Te  Te132  1  0.25170121  0.91576250  0.08851206  1
  Te  Te133  1  0.26760235  0.88713985  0.42452319  1
  Te  Te134  1  0.25583944  0.91604598  0.74791975  1
  Te  Te135  1  0.59001889  0.23776483  0.10148854  1
  Te  Te136  1  0.58008311  0.25424175  0.42609068  1
  Te  Te137  1  0.59235301  0.26119777  0.72114263  1
  Te  Te138  1  0.60527685  0.60127790  0.06125040  1
  Te  Te139  1  0.56598268  0.58847231  0.45930319  1
  Te  Te140  1  0.56059495  0.56373916  0.70767096  1
  Te  Te141  1  0.59988113  0.92865857  0.08782856  1
  Te  Te142  1  0.59034951  0.90125400  0.43361043  1
  Te  Te143  1  0.57979280  0.92323352  0.73683291  1
  Te  Te144  1  0.91069581  0.23557890  0.07840779  1
  Te  Te145  1  0.91285231  0.23868104  0.41101696  1
  Te  Te146  1  0.93589809  0.25786501  0.74832110  1
  Te  Te147  1  0.92181113  0.57359472  0.08396784  1
  Te  Te148  1  0.91002246  0.57907589  0.41034957  1
  Te  Te149  1  0.90508556  0.60186026  0.76465922  1
  Te  Te150  1  0.90810276  0.95386744  0.05787856  1
  Te  Te151  1  0.90134520  0.93281213  0.45603095  1
  Te  Te152  1  0.90401223  0.91711999  0.73932622  1
  Te  Te153  1  0.25550996  0.10627057  0.23520716  1
  Te  Te154  1  0.23073586  0.06707165  0.56841712  1
  Te  Te155  1  0.23887987  0.07321295  0.92165178  1
  Te  Te156  1  0.25132473  0.43338634  0.26625579  1
  Te  Te157  1  0.24613503  0.45197353  0.54531506  1
  Te  Te158  1  0.27289560  0.41367983  0.92327718  1
  Te  Te159  1  0.25302365  0.74352373  0.26438336  1
  Te  Te160  1  0.25732249  0.71103739  0.57138995  1
  Te  Te161  1  0.24487677  0.73317511  0.90404788  1
  Te  Te162  1  0.59493789  0.08094380  0.26379728  1
  Te  Te163  1  0.58311259  0.08123967  0.59328925  1
  Te  Te164  1  0.60669125  0.07246695  0.92837366  1
  Te  Te165  1  0.56050881  0.39733644  0.24944487  1
  Te  Te166  1  0.59172101  0.44884843  0.60456724  1
  Te  Te167  1  0.59152893  0.42774889  0.90930711  1
  Te  Te168  1  0.57944216  0.75423172  0.24430440  1
  Te  Te169  1  0.59705958  0.75094299  0.56841619  1
  Te  Te170  1  0.57862706  0.75806590  0.90167971  1
  Te  Te171  1  0.88368088  0.05751996  0.27649642  1
  Te  Te172  1  0.91372909  0.08119929  0.58805918  1
  Te  Te173  1  0.92245073  0.07292992  0.95432164  1
  Te  Te174  1  0.90574929  0.42162017  0.27918277  1
  Te  Te175  1  0.92659872  0.40050989  0.58953808  1
  Te  Te176  1  0.92272833  0.42588951  0.92142969  1
  Te  Te177  1  0.92841556  0.74500414  0.24702442  1
  Te  Te178  1  0.91510470  0.77805942  0.58549307  1
  Te  Te179  1  0.90274288  0.75529363  0.93773801  1
