# generated using pymatgen
data_In2Te3
_symmetry_space_group_name_H-M   'P 1'
_cell_length_a   18.98786184
_cell_length_b   18.95996632
_cell_length_c   18.97732137
_cell_angle_alpha   90.13368249
_cell_angle_beta   90.02515293
_cell_angle_gamma   90.01672524
_symmetry_Int_Tables_number   1
_chemical_formula_structural   In2Te3
_chemical_formula_sum   'In72 Te108'
_cell_volume   6831.99113621
_cell_formula_units_Z   36
loop_
 _symmetry_equiv_pos_site_id
 _symmetry_equiv_pos_as_xyz
  1  'x, y, z'
loop_
 _atom_site_type_symbol
 _atom_site_label
 _atom_site_symmetry_multiplicity
 _atom_site_fract_x
 _atom_site_fract_y
 _atom_site_fract_z
 _atom_site_occupancy
  In  In0  1  0.19590032  0.65175305  0.46866169  1
  In  In1  1  -0.00946434  0.50454495  0.16996404  1
  In  In2  1  0.83340171  0.82784150  0.65308137  1
  In  In3  1  -0.00313642  0.32967429  0.66572804  1
  In  In4  1  0.17190978  0.50495331  -0.00941454  1
  In  In5  1  0.81694745  0.34150627  0.50735166  1
  In  In6  1  0.01726875  0.18744134  0.17510036  1
  In  In7  1  0.49263049  0.36725062  0.48806917  1
  In  In8  1  0.67759554  0.14507239  0.50326350  1
  In  In9  1  0.50851973  0.65833986  0.84387031  1
  In  In10  1  0.49944691  0.34987405  0.17526618  1
  In  In11  1  0.16561722  0.63670986  0.82421877  1
  In  In12  1  0.47556289  0.83706968  0.32237916  1
  In  In13  1  0.31828211  0.82124181  0.80583561  1
  In  In14  1  0.33177268  0.14534404  0.49546665  1
  In  In15  1  0.68076450  0.84503523  0.79890145  1
  In  In16  1  0.66202760  0.65776862  0.00513938  1
  In  In17  1  0.82266818  0.80493962  0.00508404  1
  In  In18  1  0.34123783  0.67245003  0.00722909  1
  In  In19  1  0.16243272  -0.02201094  0.48436361  1
  In  In20  1  0.66421576  0.50202352  0.48746703  1
  In  In21  1  -0.02690917  0.83858044  0.84338918  1
  In  In22  1  0.35268742  0.35960068  0.34255494  1
  In  In23  1  0.48403388  0.65428742  0.18392633  1
  In  In24  1  0.16155891  0.81392382  0.62799373  1
  In  In25  1  0.83236275  0.66245681  0.48793846  1
  In  In26  1  -0.02264496  0.00749775  0.34841629  1
  In  In27  1  0.47684794  0.00928011  0.86792524  1
  In  In28  1  0.20247354  0.32318550  0.18233171  1
  In  In29  1  0.02037594  0.31523472  0.01007814  1
  In  In30  1  0.50022792  0.84220179  0.66597837  1
  In  In31  1  0.51310295  -0.00845861  0.51897486  1
  In  In32  1  0.46268004  0.64903730  0.49595324  1
  In  In33  1  0.50300675  0.81041463  0.02077928  1
  In  In34  1  0.82507313  0.51379900  0.00543381  1
  In  In35  1  0.17536581  0.36052565  0.50762879  1
  In  In36  1  0.82953056  0.80182518  0.32575339  1
  In  In37  1  0.79934804  0.16308470  -0.05481232  1
  In  In38  1  0.01171015  0.50931129  0.50208368  1
  In  In39  1  0.66358045  0.34472877  0.31845989  1
  In  In40  1  0.65272787  -0.01041309  -0.01074497  1
  In  In41  1  0.16161476  0.16071151  -0.01794200  1
  In  In42  1  0.83314644  0.33501822  0.83006218  1
  In  In43  1  -0.01338897  0.16412182  0.51821816  1
  In  In44  1  0.82398201  0.19668118  0.34703793  1
  In  In45  1  -0.01694694  0.65677056  0.68468468  1
  In  In46  1  0.00261287  0.50031587  0.83248500  1
  In  In47  1  0.51261400  0.19248128  0.33947105  1
  In  In48  1  0.16647304  0.65902183  0.17730419  1
  In  In49  1  0.33051430  -0.00776226  0.65933873  1
  In  In50  1  0.19127902  0.15594955  0.31388865  1
  In  In51  1  0.32932154  0.35591760  0.64717406  1
  In  In52  1  0.63627439  -0.00391144  0.31643818  1
  In  In53  1  0.32199478  0.16658643  0.85064905  1
  In  In54  1  0.16862443  0.81920804  0.34253080  1
  In  In55  1  0.65990008  0.82884626  0.15767132  1
  In  In56  1  0.14944237  0.27208800  0.81599682  1
  In  In57  1  0.18513857  -0.00722383  0.16834029  1
  In  In58  1  -0.02170096  -0.00029418  -0.01156155  1
  In  In59  1  0.84315119  -0.01273800  0.51671367  1
  In  In60  1  0.64934311  0.65914501  0.66790970  1
  In  In61  1  0.49932533  0.19223949  0.00670974  1
  In  In62  1  0.33283229  -0.00021330  0.01731898  1
  In  In63  1  0.50500765  0.21083199  0.69326814  1
  In  In64  1  0.69985463  0.02728222  0.69690289  1
  In  In65  1  0.83118194  0.34697969  0.14892274  1
  In  In66  1  0.19915076  0.48115359  0.65791444  1
  In  In67  1  0.35212492  0.49026238  0.84214752  1
  In  In68  1  0.83345392  0.00859763  0.13993495  1
  In  In69  1  0.33338448  0.33411356  0.01667918  1
  In  In70  1  0.67419769  0.34528771  0.67195228  1
  In  In71  1  0.02049322  0.80490914  0.18571635  1
  Te  Te72  1  0.07823126  0.07963509  0.08652677  1
  Te  Te73  1  0.08220354  0.10035366  0.40801129  1
  Te  Te74  1  0.09914872  0.13955364  0.77788849  1
  Te  Te75  1  0.10956219  0.40665146  0.09040395  1
  Te  Te76  1  0.09934861  0.43494609  0.40908985  1
  Te  Te77  1  0.09967813  0.41062997  0.75731270  1
  Te  Te78  1  0.09618913  0.74326221  0.07826543  1
  Te  Te79  1  0.08351033  0.73098791  0.42076192  1
  Te  Te80  1  0.08669722  0.74448168  0.75285183  1
  Te  Te81  1  0.42783661  0.08809843  0.08161632  1
  Te  Te82  1  0.44311984  0.07997524  0.41769385  1
  Te  Te83  1  0.41213143  0.08511897  0.74812323  1
  Te  Te84  1  0.39459878  0.43011054  0.10761797  1
  Te  Te85  1  0.46458097  0.45665281  0.37181620  1
  Te  Te86  1  0.43403859  0.40891650  0.74497166  1
  Te  Te87  1  0.39793274  0.76349226  0.11691706  1
  Te  Te88  1  0.39219919  0.73387498  0.39221631  1
  Te  Te89  1  0.42482236  0.73448094  0.74178775  1
  Te  Te90  1  0.73314796  0.09208265  0.06848422  1
  Te  Te91  1  0.76227059  0.06821888  0.40497025  1
  Te  Te92  1  0.75452670  0.10868756  0.80528219  1
  Te  Te93  1  0.72998909  0.42577761  0.07707721  1
  Te  Te94  1  0.76302471  0.42906916  0.39621959  1
  Te  Te95  1  0.77256663  0.43428903  0.73839525  1
  Te  Te96  1  0.75284460  0.71953620  0.10976648  1
  Te  Te97  1  0.73698145  0.77244730  0.44361141  1
  Te  Te98  1  0.76068480  0.73070091  0.74564070  1
  Te  Te99  1  0.09436434  0.26878058  0.27477652  1
  Te  Te100  1  0.09683724  0.25394693  0.58038775  1
  Te  Te101  1  0.03442408  0.20523597  0.89958650  1
  Te  Te102  1  0.08409750  0.57129371  0.26204228  1
  Te  Te103  1  0.09353439  0.57894145  0.60944935  1
  Te  Te104  1  0.06665776  0.59557161  0.93216645  1
  Te  Te105  1  0.07333040  0.93459689  0.25632736  1
  Te  Te106  1  0.06751683  0.90901991  0.56950149  1
  Te  Te107  1  0.07410915  0.91872325  0.91461086  1
  Te  Te108  1  0.40732349  0.25188649  0.25062632  1
  Te  Te109  1  0.42106567  0.25065867  0.56672436  1
  Te  Te110  1  0.41577608  0.26986998  0.90623957  1
  Te  Te111  1  0.39271140  0.60484351  0.29208278  1
  Te  Te112  1  0.41119027  0.54910429  0.58924476  1
  Te  Te113  1  0.43420794  0.57039513  0.94170533  1
  Te  Te114  1  0.40025888  0.94960536  0.27058115  1
  Te  Te115  1  0.40167968  0.89872055  0.56443794  1
  Te  Te116  1  0.41032078  0.88267847  0.91503233  1
  Te  Te117  1  0.74158448  0.24751583  0.23362696  1
  Te  Te118  1  0.75718558  0.23470842  0.59577488  1
  Te  Te119  1  0.74187643  0.30009550  0.94175208  1
  Te  Te120  1  0.76820282  0.66032104  0.34407672  1
  Te  Te121  1  0.74790398  0.57931802  0.58620234  1
  Te  Te122  1  0.73152479  0.57318765  0.90886011  1
  Te  Te123  1  0.75204161  0.92211503  0.23718959  1
  Te  Te124  1  0.72730433  0.92329138  0.59216584  1
  Te  Te125  1  0.75521743  0.90838199  0.91452116  1
  Te  Te126  1  0.25714626  0.22053509  0.08398378  1
  Te  Te127  1  0.25931908  0.25380184  0.41780129  1
  Te  Te128  1  0.26982220  0.24217701  0.72616653  1
  Te  Te129  1  0.26491911  0.57110171  0.08807907  1
  Te  Te130  1  0.25638184  0.57229879  0.35799630  1
  Te  Te131  1  0.27974078  0.57987856  0.74332422  1
  Te  Te132  1  0.24587842  0.89792119  0.07576468  1
  Te  Te133  1  0.26395031  0.91974859  0.39726508  1
  Te  Te134  1  0.22586956  0.91450728  0.73420607  1
  Te  Te135  1  0.58671126  0.28977889  0.07292561  1
  Te  Te136  1  0.60543894  0.26507979  0.44333293  1
  Te  Te137  1  0.60751845  0.27017129  0.78553865  1
  Te  Te138  1  0.56808547  0.58181565  0.08764834  1
  Te  Te139  1  0.57275876  0.59132372  0.41372924  1
  Te  Te140  1  0.59319867  0.55994342  0.76807438  1
  Te  Te141  1  0.56311793  0.92842995  0.09586815  1
  Te  Te142  1  0.58313637  0.90209146  0.41885112  1
  Te  Te143  1  0.57039921  0.94175603  0.75763067  1
  Te  Te144  1  0.91201305  0.23234462  0.07631673  1
  Te  Te145  1  0.92765657  0.26998713  0.42749390  1
  Te  Te146  1  0.90534660  0.24404611  0.73971530  1
  Te  Te147  1  0.91746763  0.59646613  0.08392536  1
  Te  Te148  1  0.91401397  0.56735161  0.40857005  1
  Te  Te149  1  0.89505329  0.56035040  0.75335759  1
  Te  Te150  1  0.91854714  0.89312819  0.09028464  1
  Te  Te151  1  0.91360572  0.89434211  0.42028159  1
  Te  Te152  1  0.90854221  0.91970646  0.73966577  1
  Te  Te153  1  0.28946482  0.06004903  0.25495031  1
  Te  Te154  1  0.23065190  0.07639234  0.58206995  1
  Te  Te155  1  0.24032994  0.05353508  0.90813378  1
  Te  Te156  1  0.25258804  0.43760000  0.26376835  1
  Te  Te157  1  0.29756435  0.46269224  0.53547760  1
  Te  Te158  1  0.24600976  0.40230244  0.90754765  1
  Te  Te159  1  0.25093947  0.76712795  0.23352085  1
  Te  Te160  1  0.26607919  0.73069051  0.57067572  1
  Te  Te161  1  0.24552338  0.73638192  0.90872256  1
  Te  Te162  1  0.58961367  0.11191036  0.24360926  1
  Te  Te163  1  0.57906406  0.09779759  0.60924109  1
  Te  Te164  1  0.58305810  0.10353428  0.91382070  1
  Te  Te165  1  0.58932916  0.44695345  0.24530830  1
  Te  Te166  1  0.57684666  0.43339297  0.59304109  1
  Te  Te167  1  0.56386790  0.41626370  0.82705147  1
  Te  Te168  1  0.58249891  0.74771990  0.25637762  1
  Te  Te169  1  0.56603511  0.74204867  0.57469228  1
  Te  Te170  1  0.59474126  0.77001210  0.90584499  1
  Te  Te171  1  0.90890112  0.09911957  0.24713192  1
  Te  Te172  1  0.91377584  0.07696349  0.60908933  1
  Te  Te173  1  0.88951070  0.05835187  0.88568278  1
  Te  Te174  1  0.92224380  0.40075105  0.24818587  1
  Te  Te175  1  0.91381749  0.42683447  0.58665587  1
  Te  Te176  1  0.93182242  0.41170831  0.93534122  1
  Te  Te177  1  0.92489648  0.71645322  0.25138559  1
  Te  Te178  1  0.93139188  0.74446412  0.57478701  1
  Te  Te179  1  0.90254409  0.72938930  0.90946377  1
