# generated using pymatgen
data_In2Te3
_symmetry_space_group_name_H-M   'P 1'
_cell_length_a   18.99453632
_cell_length_b   18.97269587
_cell_length_c   19.00835923
_cell_angle_alpha   90.09031607
_cell_angle_beta   89.90424578
_cell_angle_gamma   90.09308309
_symmetry_Int_Tables_number   1
_chemical_formula_structural   In2Te3
_chemical_formula_sum   'In72 Te108'
_cell_volume   6850.15904776
_cell_formula_units_Z   36
loop_
 _symmetry_equiv_pos_site_id
 _symmetry_equiv_pos_as_xyz
  1  'x, y, z'
loop_
 _atom_site_type_symbol
 _atom_site_label
 _atom_site_symmetry_multiplicity
 _atom_site_fract_x
 _atom_site_fract_y
 _atom_site_fract_z
 _atom_site_occupancy
  In  In0  1  0.32387014  0.18567088  0.47337162  1
  In  In1  1  0.83186939  0.50126546  0.69792949  1
  In  In2  1  -0.00981986  0.82476098  0.18561203  1
  In  In3  1  0.14235865  0.15614073  -0.00624233  1
  In  In4  1  0.15381594  0.16742473  0.66699164  1
  In  In5  1  0.84261587  -0.00853272  0.82568080  1
  In  In6  1  0.13502380  0.17440144  0.30281190  1
  In  In7  1  0.08186867  0.50267705  0.52132901  1
  In  In8  1  0.30563432  0.16835695  0.83015433  1
  In  In9  1  0.67417279  0.13109299  0.48873610  1
  In  In10  1  0.83075488  -0.03849676  0.48118829  1
  In  In11  1  0.16550300  -0.02067390  0.52927470  1
  In  In12  1  0.31355832  0.36938165  0.31913216  1
  In  In13  1  0.16559244  0.50393360  0.00247938  1
  In  In14  1  0.68962671  0.16144065  0.16751039  1
  In  In15  1  0.28936313  0.33546194  -0.00122822  1
  In  In16  1  0.67574747  0.48381693  0.84608608  1
  In  In17  1  0.01997285  -0.04581704  0.67358165  1
  In  In18  1  0.51078538  0.01982431  0.17078888  1
  In  In19  1  0.49365213  0.49930156  0.64905157  1
  In  In20  1  0.33070277  0.00242662  0.35206399  1
  In  In21  1  0.34347259  0.80664286  0.17115437  1
  In  In22  1  0.84737736  0.33046085  0.49802465  1
  In  In23  1  0.68601221  0.85123950  0.82846488  1
  In  In24  1  0.15349966  0.66790875  0.16126452  1
  In  In25  1  0.19210249  0.80620532  -0.02562323  1
  In  In26  1  0.52164349  0.15891520  0.30504345  1
  In  In27  1  0.00547043  0.69315877  0.38159343  1
  In  In28  1  0.35173094  0.17739510  0.15610738  1
  In  In29  1  0.16293334  0.79268771  0.68912654  1
  In  In30  1  0.49492222  0.15436217  -0.02782598  1
  In  In31  1  0.51044088  0.34967418  0.14954815  1
  In  In32  1  0.01744500  -0.05189460  0.00440704  1
  In  In33  1  -0.01638223  0.50062262  0.83811924  1
  In  In34  1  0.84386616  0.81468379  0.67857626  1
  In  In35  1  0.66541119  0.19661344  0.86301062  1
  In  In36  1  0.68444407  0.65374341  0.00338660  1
  In  In37  1  0.85354542  0.17027689  0.65345870  1
  In  In38  1  0.31771103  0.63566590  0.67392512  1
  In  In39  1  0.64389617  0.67670678  0.65675377  1
  In  In40  1  0.48362852  0.51365018  -0.02918634  1
  In  In41  1  0.67813379  0.52899087  0.18747925  1
  In  In42  1  0.53406661  -0.08073337  0.54869878  1
  In  In43  1  0.29152280  0.37442123  0.65184538  1
  In  In44  1  0.00571429  0.00546154  0.31691225  1
  In  In45  1  0.31757527  0.81560181  0.79700325  1
  In  In46  1  -0.01353125  0.15170382  0.48742226  1
  In  In47  1  0.80112477  0.68830607  0.47885307  1
  In  In48  1  -0.03894366  0.67948227  -0.01439838  1
  In  In49  1  0.69849734  0.33026502  0.02427468  1
  In  In50  1  0.85080730  0.33046861  0.18498111  1
  In  In51  1  0.49615854  0.68676756  0.82323304  1
  In  In52  1  0.17271434  -0.00880144  0.15386967  1
  In  In53  1  0.66443156  0.01896345  0.67971159  1
  In  In54  1  0.66047440  0.49877988  0.49669030  1
  In  In55  1  0.51644137  0.51217877  0.34764876  1
  In  In56  1  -0.00457004  0.18002408  0.83463438  1
  In  In57  1  0.47435970  0.00457687  0.83214459  1
  In  In58  1  0.48532623  0.83054645  0.00013580  1
  In  In59  1  0.33616573  0.65477772  0.33781949  1
  In  In60  1  0.33400823  0.83114373  0.50848071  1
  In  In61  1  0.83770681  0.52106065  0.34219100  1
  In  In62  1  0.68000375  0.80990337  0.17574530  1
  In  In63  1  0.15595893  0.49780896  0.32834220  1
  In  In64  1  0.69984377  0.00542160  0.03282479  1
  In  In65  1  0.50025395  0.34010976  0.81510833  1
  In  In66  1  0.31529222  0.50797419  0.18334354  1
  In  In67  1  0.82969530  0.18076243  0.00744998  1
  In  In68  1  0.03173602  0.35849417  0.66391387  1
  In  In69  1  0.49879398  0.32135729  0.48299361  1
  In  In70  1  0.52999162  0.84892905  0.33332327  1
  In  In71  1  -0.00058372  0.50899553  0.13828573  1
  Te  Te72  1  0.06201242  0.06837282  0.08998622  1
  Te  Te73  1  0.10531013  0.07701382  0.42025136  1
  Te  Te74  1  0.07152085  0.07602234  0.75419817  1
  Te  Te75  1  0.06024101  0.41117683  0.04832891  1
  Te  Te76  1  0.06787026  0.41081403  0.40876102  1
  Te  Te77  1  0.10067145  0.43106941  0.77370568  1
  Te  Te78  1  0.07696138  0.75894108  0.06974230  1
  Te  Te79  1  0.10441150  0.73559794  0.48156123  1
  Te  Te80  1  0.05833104  0.70516167  0.74349166  1
  Te  Te81  1  0.41078897  0.07020888  0.06645359  1
  Te  Te82  1  0.43178843  0.09616214  0.41258760  1
  Te  Te83  1  0.41290967  0.10687232  0.75064950  1
  Te  Te84  1  0.39976957  0.42434325  0.07995316  1
  Te  Te85  1  0.41295780  0.42781579  0.41846135  1
  Te  Te86  1  0.40121062  0.42947758  0.74715905  1
  Te  Te87  1  0.41622806  0.72544130  0.07346240  1
  Te  Te88  1  0.41815187  0.76545960  0.40100170  1
  Te  Te89  1  0.42098721  0.74807932  0.70963459  1
  Te  Te90  1  0.80395301  0.07608912  0.11739579  1
  Te  Te91  1  0.78774364  0.08201200  0.40608798  1
  Te  Te92  1  0.76280782  0.10795778  0.76217207  1
  Te  Te93  1  0.76658597  0.43499137  0.10412472  1
  Te  Te94  1  0.75430615  0.41488272  0.41262942  1
  Te  Te95  1  0.73053641  0.40312092  0.73752210  1
  Te  Te96  1  0.77277928  0.73807825  0.08504674  1
  Te  Te97  1  0.75733867  0.81665053  0.40556944  1
  Te  Te98  1  0.74530262  0.73210106  0.75938505  1
  Te  Te99  1  0.02833282  0.22614362  0.21741698  1
  Te  Te100  1  0.07527569  0.24720633  0.56678137  1
  Te  Te101  1  0.07324473  0.26609954  0.92470536  1
  Te  Te102  1  0.06692714  0.60310020  0.26578349  1
  Te  Te103  1  0.07946407  0.58728219  0.64380834  1
  Te  Te104  1  0.06832741  0.59354003  0.92536797  1
  Te  Te105  1  0.10200480  0.90294219  0.25345103  1
  Te  Te106  1  0.05823392  0.87285647  0.55087254  1
  Te  Te107  1  0.11937540  0.91416917  0.90618661  1
  Te  Te108  1  0.41888209  0.26946234  0.25779493  1
  Te  Te109  1  0.38743551  0.27716940  0.57617304  1
  Te  Te110  1  0.40514945  0.26337493  0.92124173  1
  Te  Te111  1  0.43125325  0.58378792  0.24359627  1
  Te  Te112  1  0.41203999  0.59077479  0.57134972  1
  Te  Te113  1  0.39593848  0.60340009  0.89424649  1
  Te  Te114  1  0.41432482  0.92886717  0.24591960  1
  Te  Te115  1  0.39557651  0.93597812  0.58835026  1
  Te  Te116  1  0.39370512  0.90117160  0.90425213  1
  Te  Te117  1  0.73991152  0.26606137  0.25494619  1
  Te  Te118  1  0.74956558  0.23904435  0.57018108  1
  Te  Te119  1  0.78320182  0.28368746  0.90564450  1
  Te  Te120  1  0.74342741  0.61759738  0.28342437  1
  Te  Te121  1  0.74706161  0.58458393  0.59020728  1
  Te  Te122  1  0.77668808  0.56515343  0.92110654  1
  Te  Te123  1  0.75749205  0.88524773  0.27379354  1
  Te  Te124  1  0.76199909  0.92314723  0.61186147  1
  Te  Te125  1  0.77318228  0.91037856  0.93780711  1
  Te  Te126  1  0.22874304  0.23853896  0.09703752  1
  Te  Te127  1  0.22771858  0.26454054  0.38865974  1
  Te  Te128  1  0.23035367  0.26960754  0.74799804  1
  Te  Te129  1  0.25849649  0.60044006  0.07844608  1
  Te  Te130  1  0.25212046  0.56418609  0.42023292  1
  Te  Te131  1  0.20569065  0.54960829  0.72108565  1
  Te  Te132  1  0.26245165  0.89633145  0.07907678  1
  Te  Te133  1  0.23623947  0.90563903  0.41586946  1
  Te  Te134  1  0.23328527  0.91474838  0.72823459  1
  Te  Te135  1  0.57928979  0.23102702  0.08098075  1
  Te  Te136  1  0.60002233  0.24036834  0.40623683  1
  Te  Te137  1  0.58179864  0.23787725  0.75104425  1
  Te  Te138  1  0.58045558  0.56874349  0.07308197  1
  Te  Te139  1  0.59761118  0.60821098  0.42220482  1
  Te  Te140  1  0.58062503  0.57357699  0.76006768  1
  Te  Te141  1  0.58358167  0.91730288  0.08110231  1
  Te  Te142  1  0.61851062  0.92322149  0.42541798  1
  Te  Te143  1  0.57404925  0.91963603  0.75427075  1
  Te  Te144  1  0.93410617  0.25092599  0.08927000  1
  Te  Te145  1  0.92553678  0.25289847  0.39515214  1
  Te  Te146  1  0.92641009  0.27254485  0.73741734  1
  Te  Te147  1  0.90102548  0.61133332  0.10196807  1
  Te  Te148  1  0.91982049  0.58762135  0.45045810  1
  Te  Te149  1  0.92063713  0.60747111  0.75358774  1
  Te  Te150  1  0.91576793  0.92379554  0.10652655  1
  Te  Te151  1  0.95040731  0.90839475  0.41384915  1
  Te  Te152  1  0.94249732  0.87983868  0.78660906  1
  Te  Te153  1  0.25742628  0.08771835  0.24825006  1
  Te  Te154  1  0.25182279  0.09616024  0.57628537  1
  Te  Te155  1  0.24193020  0.07621727  0.92235141  1
  Te  Te156  1  0.20748989  0.40761503  0.21673086  1
  Te  Te157  1  0.22140731  0.44099512  0.54140087  1
  Te  Te158  1  0.25922709  0.44245220  0.90634282  1
  Te  Te159  1  0.23928440  0.74358632  0.26138657  1
  Te  Te160  1  0.23591472  0.73019767  0.56945078  1
  Te  Te161  1  0.25509234  0.71057509  0.88107316  1
  Te  Te162  1  0.62521812  0.05771856  0.26036783  1
  Te  Te163  1  0.56928405  0.07649386  0.58100385  1
  Te  Te164  1  0.61062386  0.06637725  0.92177054  1
  Te  Te165  1  0.59302688  0.41789324  0.25364847  1
  Te  Te166  1  0.58422307  0.39857393  0.58210725  1
  Te  Te167  1  0.58375496  0.39718657  0.93781971  1
  Te  Te168  1  0.55885746  0.74999735  0.23099679  1
  Te  Te169  1  0.59060083  0.77712413  0.56811538  1
  Te  Te170  1  0.59770995  0.75261542  0.91836541  1
  Te  Te171  1  0.91775981  0.12525461  0.30040227  1
  Te  Te172  1  0.93258307  0.05581033  0.59479774  1
  Te  Te173  1  0.91522226  0.08384609  0.92188807  1
  Te  Te174  1  0.93134861  0.43796776  0.25500725  1
  Te  Te175  1  0.91659765  0.42739003  0.59120976  1
  Te  Te176  1  0.87114933  0.44393123  0.91494485  1
  Te  Te177  1  0.91641001  0.73152410  0.27121324  1
  Te  Te178  1  0.90461443  0.73824755  0.56968592  1
  Te  Te179  1  0.90366238  0.78564164  0.90531050  1
