# generated using pymatgen
data_In2Te3
_symmetry_space_group_name_H-M   'P 1'
_cell_length_a   18.73879487
_cell_length_b   18.74405138
_cell_length_c   18.74683839
_cell_angle_alpha   89.96359307
_cell_angle_beta   90.04603275
_cell_angle_gamma   89.99916826
_symmetry_Int_Tables_number   1
_chemical_formula_structural   In2Te3
_chemical_formula_sum   'In72 Te108'
_cell_volume   6584.65356323
_cell_formula_units_Z   36
loop_
 _symmetry_equiv_pos_site_id
 _symmetry_equiv_pos_as_xyz
  1  'x, y, z'
loop_
 _atom_site_type_symbol
 _atom_site_label
 _atom_site_symmetry_multiplicity
 _atom_site_fract_x
 _atom_site_fract_y
 _atom_site_fract_z
 _atom_site_occupancy
  In  In0  1  0.02345958  0.33796268  0.35313223  1
  In  In1  1  0.36455487  0.17168689  0.52372060  1
  In  In2  1  0.01385805  0.64395701  0.64707813  1
  In  In3  1  0.33948064  0.32094044  -0.02076970  1
  In  In4  1  -0.01532732  0.01266961  -0.00272300  1
  In  In5  1  0.66063972  0.68275872  0.34003990  1
  In  In6  1  0.20003189  0.47310135  0.64216508  1
  In  In7  1  0.66831227  0.34238114  -0.01678510  1
  In  In8  1  0.33131206  0.51658735  0.16608735  1
  In  In9  1  0.81436122  0.83442921  0.65662397  1
  In  In10  1  0.01430890  0.18924826  0.16858602  1
  In  In11  1  0.48541455  0.66812964  0.16309300  1
  In  In12  1  0.00611928  -0.01212601  0.36186153  1
  In  In13  1  0.67477277  -0.01622236  0.31710591  1
  In  In14  1  0.50371442  0.84681159  -0.00961374  1
  In  In15  1  0.02032984  0.68867826  0.01148625  1
  In  In16  1  0.64440972  0.17780081  0.52131881  1
  In  In17  1  0.34842383  0.34336447  0.35901468  1
  In  In18  1  0.75891597  0.83032506  -0.00467301  1
  In  In19  1  0.50569763  0.12532917  -0.02354163  1
  In  In20  1  0.00484534  0.83459783  0.17293596  1
  In  In21  1  0.01441240  -0.01004846  0.66422315  1
  In  In22  1  0.50328455  0.69535181  0.83104884  1
  In  In23  1  0.01351772  0.31817014  0.01318572  1
  In  In24  1  0.65262256  0.33053379  0.34415587  1
  In  In25  1  0.84081321  0.52979628  -0.00707759  1
  In  In26  1  0.34957990  0.16273630  0.81182217  1
  In  In27  1  0.01264979  0.52971478  0.17637956  1
  In  In28  1  -0.01195243  0.50253879  0.84099570  1
  In  In29  1  0.01540329  0.16255729  0.49963305  1
  In  In30  1  0.49013981  0.00744778  0.51508833  1
  In  In31  1  0.49149630  0.16751517  0.34766870  1
  In  In32  1  0.17315954  0.83241372  0.33534096  1
  In  In33  1  0.83106237  -0.01703080  0.50269203  1
  In  In34  1  0.85247707  0.15354703  0.34880545  1
  In  In35  1  0.51491182  0.49515155  0.00538133  1
  In  In36  1  0.80836634  0.14626075  -0.03610237  1
  In  In37  1  0.81914236  0.48127001  0.68812577  1
  In  In38  1  0.67432369  0.16042032  0.14844210  1
  In  In39  1  0.17303509  0.34385244  0.17772291  1
  In  In40  1  0.51186235  0.86225695  0.67816135  1
  In  In41  1  0.81887553  -0.00638673  0.15872673  1
  In  In42  1  0.78290975  0.14106281  0.68455104  1
  In  In43  1  0.49023351  0.66761466  0.51905622  1
  In  In44  1  0.18223323  0.67443698  0.83994428  1
  In  In45  1  0.33535768  0.48882798  0.82035758  1
  In  In46  1  0.02460307  0.50403596  0.52114134  1
  In  In47  1  0.48566702  0.30827602  0.19546294  1
  In  In48  1  0.01979249  0.67731752  0.32478118  1
  In  In49  1  0.24774295  -0.02650132  0.17422415  1
  In  In50  1  0.81071744  0.32263568  0.82176600  1
  In  In51  1  0.16798232  0.16435697  -0.01659913  1
  In  In52  1  -0.00391083  0.32361558  0.67564540  1
  In  In53  1  0.17166748  -0.01201774  0.84129220  1
  In  In54  1  0.48164538  -0.01238922  0.15196287  1
  In  In55  1  0.48795527  0.49847176  0.65536015  1
  In  In56  1  0.80307549  0.51475652  0.33216095  1
  In  In57  1  0.00569951  0.85475274  0.83271048  1
  In  In58  1  0.65223865  0.66910856  0.66767649  1
  In  In59  1  0.49036045  0.84460138  0.32356198  1
  In  In60  1  0.36189340  0.83810360  0.82680517  1
  In  In61  1  0.19064222  0.82042767  0.64351082  1
  In  In62  1  0.83935180  0.67968293  0.48361477  1
  In  In63  1  0.17068972  0.16556940  0.65692790  1
  In  In64  1  0.18640871  -0.00473255  0.50342422  1
  In  In65  1  0.80382862  0.67183777  0.85735272  1
  In  In66  1  0.64390580  0.52275018  0.17392816  1
  In  In67  1  0.17995699  0.32737753  0.84340398  1
  In  In68  1  0.65527470  0.49603635  0.50643808  1
  In  In69  1  0.31670808  0.67404538  0.34144479  1
  In  In70  1  0.33889834  0.67433460  0.01347941  1
  In  In71  1  0.83912709  0.34404564  0.16981334  1
  Te  Te72  1  0.08883746  0.08353232  0.08615548  1
  Te  Te73  1  0.11136062  0.08954167  0.40740830  1
  Te  Te74  1  0.08708584  0.08589705  0.75769191  1
  Te  Te75  1  0.08771646  0.42988056  0.08295208  1
  Te  Te76  1  0.11503978  0.42826554  0.42833098  1
  Te  Te77  1  0.08709873  0.42890109  0.74763770  1
  Te  Te78  1  0.11477843  0.75418258  0.10812243  1
  Te  Te79  1  0.07802433  0.76572708  0.42829911  1
  Te  Te80  1  0.08593304  0.75431708  0.74675805  1
  Te  Te81  1  0.40614790  0.09312599  0.08021520  1
  Te  Te82  1  0.39546555  0.06838870  0.41018933  1
  Te  Te83  1  0.44464776  0.08490480  0.72535723  1
  Te  Te84  1  0.41600902  0.41088574  0.08902767  1
  Te  Te85  1  0.46065436  0.40878163  0.42748882  1
  Te  Te86  1  0.40657285  0.39416491  0.72997055  1
  Te  Te87  1  0.40729452  0.78084079  0.09687060  1
  Te  Te88  1  0.41247753  0.76207197  0.42534634  1
  Te  Te89  1  0.41301235  0.74269435  0.71858656  1
  Te  Te90  1  0.72280318  0.05351595  0.05293364  1
  Te  Te91  1  0.73232716  0.09266079  0.42017551  1
  Te  Te92  1  0.72263497  0.04096706  0.77845591  1
  Te  Te93  1  0.73991622  0.43177985  0.09138352  1
  Te  Te94  1  0.75588990  0.40614484  0.42848165  1
  Te  Te95  1  0.70724454  0.39929110  0.74396211  1
  Te  Te96  1  0.74797166  0.71268026  0.07795449  1
  Te  Te97  1  0.73842789  0.77225028  0.42858118  1
  Te  Te98  1  0.72749027  0.76353038  0.76158822  1
  Te  Te99  1  0.11206009  0.24038523  0.27385807  1
  Te  Te100  1  0.09587301  0.26946003  0.57349029  1
  Te  Te101  1  0.06675141  0.23801113  0.89438739  1
  Te  Te102  1  0.11647390  0.58061799  0.26840043  1
  Te  Te103  1  0.13062224  0.61902189  0.55045132  1
  Te  Te104  1  0.08960771  0.58343200  0.92283302  1
  Te  Te105  1  0.09207325  0.93959422  0.24436649  1
  Te  Te106  1  0.08180494  0.89980288  0.56359750  1
  Te  Te107  1  0.09259880  0.90995265  0.94665572  1
  Te  Te108  1  0.37323826  0.21981774  0.25296375  1
  Te  Te109  1  0.43505105  0.25957744  0.62366405  1
  Te  Te110  1  0.44550937  0.24703977  0.90048384  1
  Te  Te111  1  0.42093144  0.58292868  0.27060659  1
  Te  Te112  1  0.38783680  0.56390972  0.56224195  1
  Te  Te113  1  0.41636140  0.58640932  0.91434546  1
  Te  Te114  1  0.38503058  0.92618981  0.25059016  1
  Te  Te115  1  0.40466505  0.90951771  0.58735286  1
  Te  Te116  1  0.42466006  0.94547052  0.90956978  1
  Te  Te117  1  0.74866762  0.24360310  0.25627367  1
  Te  Te118  1  0.74836425  0.25403091  0.59564513  1
  Te  Te119  1  0.70506617  0.22894784  0.88660785  1
  Te  Te120  1  0.75354477  0.61604860  0.22936964  1
  Te  Te121  1  0.75787891  0.58881677  0.58619089  1
  Te  Te122  1  0.72747471  0.55358182  0.90151717  1
  Te  Te123  1  0.75689829  0.88761149  0.24199062  1
  Te  Te124  1  0.72408756  0.93155189  0.58979480  1
  Te  Te125  1  0.74638880  0.92971357  0.88851087  1
  Te  Te126  1  0.24850284  0.25052783  0.08033399  1
  Te  Te127  1  0.26320358  0.25392177  0.44620216  1
  Te  Te128  1  0.26168581  0.26372959  0.73332853  1
  Te  Te129  1  0.23601314  0.59604291  0.08609845  1
  Te  Te130  1  0.27307057  0.58537405  0.45501064  1
  Te  Te131  1  0.25251141  0.58659113  0.73644864  1
  Te  Te132  1  0.24004580  0.89064799  0.05427822  1
  Te  Te133  1  0.27055636  0.91367751  0.41375618  1
  Te  Te134  1  0.26025833  0.91790585  0.73895431  1
  Te  Te135  1  0.57654483  0.25724071  0.08190017  1
  Te  Te136  1  0.54451932  0.27714397  0.44615203  1
  Te  Te137  1  0.54486247  0.20191644  0.71355232  1
  Te  Te138  1  0.59079380  0.61555373  0.06273454  1
  Te  Te139  1  0.57119612  0.58519552  0.41614506  1
  Te  Te140  1  0.57209876  0.57812740  0.75834361  1
  Te  Te141  1  0.59513328  0.91780801  0.08643665  1
  Te  Te142  1  0.57982356  0.92301590  0.41969760  1
  Te  Te143  1  0.59210390  0.91491020  0.79252463  1
  Te  Te144  1  0.89343250  0.23076962  0.07288154  1
  Te  Te145  1  0.91556076  0.26191577  0.43364460  1
  Te  Te146  1  0.90220917  0.22695655  0.74463507  1
  Te  Te147  1  0.91392582  0.61570182  0.09658494  1
  Te  Te148  1  0.92194640  0.56999261  0.41593476  1
  Te  Te149  1  0.90609670  0.59930915  0.75283842  1
  Te  Te150  1  0.90399668  0.90211924  0.06737127  1
  Te  Te151  1  0.89726477  0.89744532  0.40186990  1
  Te  Te152  1  0.90298067  0.92635594  0.74641966  1
  Te  Te153  1  0.26872179  0.10065582  0.24282041  1
  Te  Te154  1  0.27520006  0.07114062  0.60213828  1
  Te  Te155  1  0.27251801  0.07724767  0.91496353  1
  Te  Te156  1  0.25698687  0.43091088  0.27019146  1
  Te  Te157  1  0.25791659  0.39377895  0.53201026  1
  Te  Te158  1  0.24462786  0.43249941  0.93196700  1
  Te  Te159  1  0.24163100  0.74554230  0.23404685  1
  Te  Te160  1  0.25084576  0.72392802  0.54798128  1
  Te  Te161  1  0.25661532  0.77812640  0.92567572  1
  Te  Te162  1  0.57962899  0.08826783  0.24802525  1
  Te  Te163  1  0.57926890  0.07781202  0.61763777  1
  Te  Te164  1  0.58555524  0.04417886  0.88127155  1
  Te  Te165  1  0.56414573  0.42463923  0.26101497  1
  Te  Te166  1  0.59804087  0.40606349  0.60961570  1
  Te  Te167  1  0.56549351  0.40833878  0.89752149  1
  Te  Te168  1  0.58340691  0.76320258  0.23476370  1
  Te  Te169  1  0.58906102  0.77013577  0.57474314  1
  Te  Te170  1  0.60235904  0.75330052  0.92600322  1
  Te  Te171  1  0.92317801  0.07789896  0.23763106  1
  Te  Te172  1  0.91526812  0.08388194  0.58457218  1
  Te  Te173  1  0.91572962  0.08061253  0.88592504  1
  Te  Te174  1  0.93095915  0.42498836  0.26070564  1
  Te  Te175  1  0.91304702  0.41683571  0.58686647  1
  Te  Te176  1  0.90762119  0.39745762  0.92367030  1
  Te  Te177  1  0.91286128  0.75787284  0.26064802  1
  Te  Te178  1  0.92574041  0.75535556  0.58453578  1
  Te  Te179  1  0.92137678  0.75520702  0.91419634  1
