# generated using pymatgen
data_In2Te3
_symmetry_space_group_name_H-M   'P 1'
_cell_length_a   18.78529896
_cell_length_b   18.77497912
_cell_length_c   18.78064154
_cell_angle_alpha   90.07043137
_cell_angle_beta   89.90640592
_cell_angle_gamma   90.05224375
_symmetry_Int_Tables_number   1
_chemical_formula_structural   In2Te3
_chemical_formula_sum   'In72 Te108'
_cell_volume   6623.79540866
_cell_formula_units_Z   36
loop_
 _symmetry_equiv_pos_site_id
 _symmetry_equiv_pos_as_xyz
  1  'x, y, z'
loop_
 _atom_site_type_symbol
 _atom_site_label
 _atom_site_symmetry_multiplicity
 _atom_site_fract_x
 _atom_site_fract_y
 _atom_site_fract_z
 _atom_site_occupancy
  In  In0  1  0.82934300  0.81790025  0.33018281  1
  In  In1  1  0.86075743  -0.00444265  0.17893992  1
  In  In2  1  -0.01399743  0.00573031  0.65843848  1
  In  In3  1  0.49401504  -0.00753038  0.49242464  1
  In  In4  1  0.00586125  0.32838295  0.34532565  1
  In  In5  1  0.81887494  0.52774274  -0.00627500  1
  In  In6  1  0.65324050  -0.01565502  0.33842085  1
  In  In7  1  0.47202520  0.03537555  0.79931266  1
  In  In8  1  0.67189858  0.82052388  0.81847175  1
  In  In9  1  0.17800245  0.00746079  0.48384054  1
  In  In10  1  0.36395963  0.30724115  -0.01919666  1
  In  In11  1  0.84168132  0.51853520  0.34050236  1
  In  In12  1  0.47374926  -0.02272218  0.18093619  1
  In  In13  1  0.15881824  0.33825152  0.17973632  1
  In  In14  1  0.00344949  0.18292669  0.83536635  1
  In  In15  1  0.18439095  0.81208477  0.64368892  1
  In  In16  1  0.67011153  0.66571512  0.65939013  1
  In  In17  1  -0.02299022  0.34523457  -0.00106360  1
  In  In18  1  0.83092868  0.33447965  0.82446262  1
  In  In19  1  0.83362029  0.19137609  0.01113212  1
  In  In20  1  0.17139149  0.16957829  0.65495831  1
  In  In21  1  0.67158927  0.15963155  0.50152730  1
  In  In22  1  0.32935236  0.33907925  0.64934057  1
  In  In23  1  0.33592338  0.48462639  0.20305733  1
  In  In24  1  0.52467169  0.51090747  -0.00198083  1
  In  In25  1  0.48748497  0.82426199  0.63995746  1
  In  In26  1  0.17104929  0.50575299  0.00651987  1
  In  In27  1  0.18331710  0.65566183  0.82011226  1
  In  In28  1  -0.01227873  0.81419510  0.50407939  1
  In  In29  1  -0.01971943  0.82790346  0.17981488  1
  In  In30  1  0.32213781  0.16467035  0.18508072  1
  In  In31  1  0.02080717  0.33614893  0.64832380  1
  In  In32  1  0.82174018  0.81326143  0.65440307  1
  In  In33  1  0.81762761  0.00387026  0.82184081  1
  In  In34  1  0.03027654  0.00831894  -0.00102658  1
  In  In35  1  0.16055609  0.82803251  0.35235472  1
  In  In36  1  0.32186274  0.50152725  0.81296242  1
  In  In37  1  0.49503072  0.51462869  0.34689388  1
  In  In38  1  0.84567965  0.33680066  0.16766475  1
  In  In39  1  0.65953901  0.16308006  0.17175117  1
  In  In40  1  0.31607163  -0.00976127  -0.00379297  1
  In  In41  1  0.32362983  0.51144234  0.51311490  1
  In  In42  1  0.83004097  0.66604897  0.18414552  1
  In  In43  1  0.51586010  0.69017255  0.81978937  1
  In  In44  1  0.66360211  0.52836980  0.48563253  1
  In  In45  1  0.32962130  0.63194400  0.02102629  1
  In  In46  1  0.15325186  0.35409059  0.80108130  1
  In  In47  1  0.63745075  -0.00126520  0.00178428  1
  In  In48  1  0.15027183  0.51233160  0.34358918  1
  In  In49  1  0.00920688  0.02274870  0.35292997  1
  In  In50  1  0.82610016  0.01137379  0.52083113  1
  In  In51  1  0.51808872  0.68442001  0.18394572  1
  In  In52  1  0.48930975  0.31485568  0.50863859  1
  In  In53  1  0.82977613  0.78454687  -0.00734594  1
  In  In54  1  0.00505515  0.67200577  0.01065129  1
  In  In55  1  0.32911618  0.83359186  0.81988527  1
  In  In56  1  0.16939467  0.84347978  0.01144068  1
  In  In57  1  0.65649288  0.32696618  0.69414022  1
  In  In58  1  0.51800264  0.82091180  -0.01384455  1
  In  In59  1  0.16417984  0.14233922  0.00397395  1
  In  In60  1  0.51395268  0.16165412  -0.01457505  1
  In  In61  1  0.64822535  0.33867477  0.31930463  1
  In  In62  1  0.84814336  0.66852076  0.50740652  1
  In  In63  1  0.85554604  0.34395136  0.50839736  1
  In  In64  1  0.47074362  0.32979742  0.18323430  1
  In  In65  1  0.67255154  -0.00843370  0.67155118  1
  In  In66  1  0.14183559  0.51524665  0.63427321  1
  In  In67  1  0.68468878  0.34862557  -0.01835355  1
  In  In68  1  0.33582049  0.00321131  0.32969044  1
  In  In69  1  0.32354703  0.83378287  0.18145501  1
  In  In70  1  0.49344053  0.50847977  0.65499845  1
  In  In71  1  0.18766128  -0.00820454  0.84921790  1
  Te  Te72  1  0.08214903  0.08546886  0.11270521  1
  Te  Te73  1  0.09381022  0.11927087  0.43099189  1
  Te  Te74  1  0.08738154  0.07903028  0.76068445  1
  Te  Te75  1  0.07066723  0.42588159  0.09044613  1
  Te  Te76  1  0.08880624  0.41486900  0.43586506  1
  Te  Te77  1  0.05823000  0.45574317  0.74796504  1
  Te  Te78  1  0.09304069  0.75147937  0.10584110  1
  Te  Te79  1  0.08862152  0.72430308  0.43563161  1
  Te  Te80  1  0.10142564  0.75846813  0.75327461  1
  Te  Te81  1  0.41835329  0.08587756  0.08066378  1
  Te  Te82  1  0.41694488  0.09357117  0.41385344  1
  Te  Te83  1  0.38679329  0.09435287  0.69583525  1
  Te  Te84  1  0.40736023  0.42849830  0.07705766  1
  Te  Te85  1  0.40667911  0.41190286  0.42230014  1
  Te  Te86  1  0.42375978  0.40982681  0.74785797  1
  Te  Te87  1  0.41211128  0.75372722  0.07518446  1
  Te  Te88  1  0.37628709  0.70332784  0.44803468  1
  Te  Te89  1  0.40029450  0.73346825  0.72976336  1
  Te  Te90  1  0.75054326  0.07883404  0.07835847  1
  Te  Te91  1  0.75520646  0.07889667  0.40242004  1
  Te  Te92  1  0.76415440  0.09672404  0.72189446  1
  Te  Te93  1  0.74897051  0.42765637  0.09369700  1
  Te  Te94  1  0.74404765  0.41342608  0.41217408  1
  Te  Te95  1  0.74628314  0.42987344  0.75114220  1
  Te  Te96  1  0.74305120  0.75838575  0.10701996  1
  Te  Te97  1  0.74849979  0.72849010  0.41562986  1
  Te  Te98  1  0.77586179  0.71164029  0.77272527  1
  Te  Te99  1  0.10173430  0.23783532  0.27218973  1
  Te  Te100  1  0.08848223  0.24137334  0.55389443  1
  Te  Te101  1  0.09166884  0.26762905  0.92654354  1
  Te  Te102  1  0.10417684  0.58316321  0.22455053  1
  Te  Te103  1  0.07561832  0.60352353  0.53707080  1
  Te  Te104  1  0.08267275  0.58237221  0.91011273  1
  Te  Te105  1  0.07437703  0.91685373  0.26244350  1
  Te  Te106  1  0.08060378  0.91969008  0.57276229  1
  Te  Te107  1  0.07813488  0.89861082  0.90231611  1
  Te  Te108  1  0.41122600  0.23693477  0.28730039  1
  Te  Te109  1  0.41583802  0.22292295  0.60244253  1
  Te  Te110  1  0.45117740  0.24547622  0.87371709  1
  Te  Te111  1  0.40760371  0.60705526  0.25924289  1
  Te  Te112  1  0.43806862  0.60627627  0.55672454  1
  Te  Te113  1  0.41740524  0.59089660  0.89909658  1
  Te  Te114  1  0.43203786  0.87000949  0.28576847  1
  Te  Te115  1  0.39501291  0.92084796  0.57903392  1
  Te  Te116  1  0.42607086  0.92254628  0.91228275  1
  Te  Te117  1  0.75489831  0.24856117  0.25471359  1
  Te  Te118  1  0.74508734  0.26301143  0.58484470  1
  Te  Te119  1  0.74103760  0.23318059  0.89887358  1
  Te  Te120  1  0.73455010  0.59142683  0.27056197  1
  Te  Te121  1  0.76679220  0.56626676  0.59148841  1
  Te  Te122  1  0.72178627  0.59805623  0.91144408  1
  Te  Te123  1  0.74888288  0.91152521  0.24007767  1
  Te  Te124  1  0.73214583  0.89909442  0.56537141  1
  Te  Te125  1  0.74324683  0.91095126  0.92182669  1
  Te  Te126  1  0.25654275  0.25710988  0.08112060  1
  Te  Te127  1  0.30338043  0.27947421  0.39074729  1
  Te  Te128  1  0.25311185  0.25213435  0.75596879  1
  Te  Te129  1  0.22848395  0.57884980  0.13095567  1
  Te  Te130  1  0.25756686  0.60051609  0.40997913  1
  Te  Te131  1  0.25805558  0.58708769  0.70518759  1
  Te  Te132  1  0.23402775  0.93871845  0.11238216  1
  Te  Te133  1  0.27174076  0.90203012  0.42626979  1
  Te  Te134  1  0.25302195  0.92683894  0.72796593  1
  Te  Te135  1  0.57905440  0.26250688  0.08654217  1
  Te  Te136  1  0.57764385  0.23772059  0.40897845  1
  Te  Te137  1  0.55809718  0.24003894  0.75655567  1
  Te  Te138  1  0.59538428  0.59170368  0.09872079  1
  Te  Te139  1  0.58153317  0.62179297  0.40540266  1
  Te  Te140  1  0.58990312  0.57417801  0.75320559  1
  Te  Te141  1  0.58130368  0.89940451  0.10181998  1
  Te  Te142  1  0.57862206  0.88682958  0.42335756  1
  Te  Te143  1  0.56511392  0.90798248  0.75451023  1
  Te  Te144  1  0.94437459  0.23719348  0.10367720  1
  Te  Te145  1  0.90615975  0.24179231  0.41531965  1
  Te  Te146  1  0.91975429  0.25093010  0.73158339  1
  Te  Te147  1  0.91961159  0.57827890  0.09591319  1
  Te  Te148  1  0.94202680  0.57189393  0.43837549  1
  Te  Te149  1  0.89155295  0.62387931  0.72614874  1
  Te  Te150  1  0.91937898  0.91009647  0.06380993  1
  Te  Te151  1  0.90967316  0.91630373  0.42053528  1
  Te  Te152  1  0.90718838  0.90713674  0.74465654  1
  Te  Te153  1  0.22853466  0.08292857  0.26567817  1
  Te  Te154  1  0.26828299  0.09146282  0.57065000  1
  Te  Te155  1  0.27528865  0.10442999  0.90308088  1
  Te  Te156  1  0.25460317  0.38759575  0.29367049  1
  Te  Te157  1  0.22237830  0.40413949  0.56230727  1
  Te  Te158  1  0.25559750  0.41244013  0.91822066  1
  Te  Te159  1  0.23794108  0.74169929  0.25792055  1
  Te  Te160  1  0.25777685  0.73023436  0.54619313  1
  Te  Te161  1  0.25800398  0.74721769  0.93041738  1
  Te  Te162  1  0.56430107  0.07805034  0.25555779  1
  Te  Te163  1  0.57853584  0.07975949  0.59099404  1
  Te  Te164  1  0.59545689  0.08144052  0.88175413  1
  Te  Te165  1  0.56840780  0.43622781  0.23490392  1
  Te  Te166  1  0.58701758  0.41913841  0.56918376  1
  Te  Te167  1  0.58121124  0.41538473  0.90184413  1
  Te  Te168  1  0.56385885  0.78662749  0.28082840  1
  Te  Te169  1  0.58931967  0.74600437  0.56580851  1
  Te  Te170  1  0.62088909  0.71722416  0.93403763  1
  Te  Te171  1  0.91549618  0.09963818  0.26622362  1
  Te  Te172  1  0.92298618  0.10854439  0.57486435  1
  Te  Te173  1  0.91664098  0.08743905  0.91946450  1
  Te  Te174  1  0.93030070  0.42879385  0.25389498  1
  Te  Te175  1  0.92501440  0.43771642  0.59854688  1
  Te  Te176  1  0.90971377  0.44049819  0.90364696  1
  Te  Te177  1  0.93793753  0.72217927  0.27997924  1
  Te  Te178  1  0.95054030  0.72241167  0.62698671  1
  Te  Te179  1  0.92886066  0.73279864  0.89805087  1
