# generated using pymatgen
data_In2Te3
_symmetry_space_group_name_H-M   'P 1'
_cell_length_a   18.75190765
_cell_length_b   18.75886408
_cell_length_c   18.74998868
_cell_angle_alpha   90.00322230
_cell_angle_beta   89.97393937
_cell_angle_gamma   90.04740846
_symmetry_Int_Tables_number   1
_chemical_formula_structural   In2Te3
_chemical_formula_sum   'In72 Te108'
_cell_volume   6595.57719607
_cell_formula_units_Z   36
loop_
 _symmetry_equiv_pos_site_id
 _symmetry_equiv_pos_as_xyz
  1  'x, y, z'
loop_
 _atom_site_type_symbol
 _atom_site_label
 _atom_site_symmetry_multiplicity
 _atom_site_fract_x
 _atom_site_fract_y
 _atom_site_fract_z
 _atom_site_occupancy
  In  In0  1  0.68100368  -0.01966881  0.63990019  1
  In  In1  1  0.17853087  0.19419188  0.68660577  1
  In  In2  1  0.68352246  0.02071550  -0.00620501  1
  In  In3  1  0.82699677  0.33602685  0.83928623  1
  In  In4  1  0.66465462  0.81854275  0.16771618  1
  In  In5  1  0.81717902  0.65168040  0.16622126  1
  In  In6  1  0.64090390  0.63455480  0.68255608  1
  In  In7  1  0.81688679  0.16724450  0.66833938  1
  In  In8  1  0.49322119  -0.00332213  0.47965041  1
  In  In9  1  0.80895626  0.35445278  0.15952637  1
  In  In10  1  0.83945314  0.65863249  0.84235901  1
  In  In11  1  0.02112553  0.34727344  0.66569734  1
  In  In12  1  0.18172463  0.48986479  0.66911106  1
  In  In13  1  0.82732579  0.82379299  0.34202583  1
  In  In14  1  0.66999280  0.65399552  -0.00578775  1
  In  In15  1  0.16747022  0.17639265  0.33158041  1
  In  In16  1  0.32178058  -0.00955215  0.67288128  1
  In  In17  1  0.16393334  0.01293395  0.50073833  1
  In  In18  1  0.84595313  -0.01882752  0.82664052  1
  In  In19  1  0.34749360  0.48501181  0.16967214  1
  In  In20  1  0.15696052  0.83621561  -0.01276838  1
  In  In21  1  0.16001146  0.64867851  0.83916313  1
  In  In22  1  0.36094419  0.47651631  0.48715965  1
  In  In23  1  0.50442655  0.66070193  0.48656737  1
  In  In24  1  0.32442510  0.36213728  -0.02302011  1
  In  In25  1  0.02083133  0.16355444  0.84087757  1
  In  In26  1  0.15821695  0.68249046  0.48866936  1
  In  In27  1  0.15026438  0.84234067  0.33305692  1
  In  In28  1  0.18174007  0.64374040  0.16404457  1
  In  In29  1  0.66340054  0.82104939  0.82452955  1
  In  In30  1  0.31876971  0.17983406  0.84479660  1
  In  In31  1  0.49366036  0.79926961  0.66198892  1
  In  In32  1  0.81409377  0.51741810  0.33091013  1
  In  In33  1  0.65651309  0.18170226  0.46551773  1
  In  In34  1  0.66241291  0.36166682  0.67797142  1
  In  In35  1  0.48703946  0.18236506  0.65342984  1
  In  In36  1  -0.01010362  0.65555633  -0.00971807  1
  In  In37  1  -0.00357400  0.33772188  0.00682921  1
  In  In38  1  0.68533576  0.18467950  0.86506512  1
  In  In39  1  0.86497457  0.02562663  0.17890185  1
  In  In40  1  0.49788939  0.35308468  0.83832731  1
  In  In41  1  0.00231744  0.17387958  0.48514236  1
  In  In42  1  -0.01432429  0.49185477  0.51035347  1
  In  In43  1  0.16455485  0.82970541  0.67230824  1
  In  In44  1  0.83157135  -0.01804235  0.48687833  1
  In  In45  1  0.34981356  0.64733903  -0.00333250  1
  In  In46  1  0.34416826  0.20410274  0.19508913  1
  In  In47  1  0.33783159  0.00013975  0.00743712  1
  In  In48  1  -0.00604166  0.84541417  0.17056379  1
  In  In49  1  0.01870085  -0.00389301  0.01116937  1
  In  In50  1  0.87196186  0.33011922  0.49566541  1
  In  In51  1  0.50777125  0.02906951  0.16955847  1
  In  In52  1  0.00902909  0.50734045  0.15379447  1
  In  In53  1  0.64205773  0.01015815  0.31145080  1
  In  In54  1  0.64546796  0.34900174  0.32183502  1
  In  In55  1  -0.02823076  0.66456987  0.67162076  1
  In  In56  1  0.17112771  0.16225552  0.01415380  1
  In  In57  1  0.51034295  0.50801793  0.01361729  1
  In  In58  1  0.32249848  0.01247597  0.34618210  1
  In  In59  1  0.65081255  0.50381831  0.50697485  1
  In  In60  1  0.50859113  0.00309137  0.85808741  1
  In  In61  1  0.82408741  0.18183351  0.01121736  1
  In  In62  1  0.51001596  0.83932383  0.33737779  1
  In  In63  1  -0.00165061  -0.01559461  0.67716140  1
  In  In64  1  0.33669282  0.83299317  0.13727726  1
  In  In65  1  0.32550516  0.65929355  0.67827919  1
  In  In66  1  0.50336213  0.81342591  0.00560920  1
  In  In67  1  0.34829051  0.19588400  0.48086404  1
  In  In68  1  0.16776784  0.49032355  0.31620149  1
  In  In69  1  0.81780064  0.67080333  0.50046673  1
  In  In70  1  0.35542540  0.65299051  0.32472165  1
  In  In71  1  0.01664458  0.33073051  0.32942706  1
  Te  Te72  1  0.06477557  0.10412419  0.10027428  1
  Te  Te73  1  0.07195559  0.07122591  0.39399220  1
  Te  Te74  1  0.10165739  0.07411510  0.74712601  1
  Te  Te75  1  0.09803702  0.40885099  0.09051706  1
  Te  Te76  1  0.09221086  0.41688290  0.43045800  1
  Te  Te77  1  0.09589873  0.41911323  0.77221100  1
  Te  Te78  1  0.08695437  0.74238834  0.09169994  1
  Te  Te79  1  0.05790518  0.75649736  0.41042122  1
  Te  Te80  1  0.07215272  0.74455145  0.75934883  1
  Te  Te81  1  0.40704471  0.10910890  0.08670095  1
  Te  Te82  1  0.43549265  0.10610708  0.39133435  1
  Te  Te83  1  0.41872386  0.08824159  0.75812660  1
  Te  Te84  1  0.43595249  0.39102439  0.08155737  1
  Te  Te85  1  0.43667769  0.39329292  0.39015105  1
  Te  Te86  1  0.44490994  0.44290922  0.73351197  1
  Te  Te87  1  0.43267350  0.71928138  0.10417761  1
  Te  Te88  1  0.40875914  0.76060757  0.42168345  1
  Te  Te89  1  0.40543358  0.74839094  0.76691960  1
  Te  Te90  1  0.73630326  0.10286650  0.11190135  1
  Te  Te91  1  0.74899978  0.08030313  0.40143265  1
  Te  Te92  1  0.73479492  0.07421647  0.75867866  1
  Te  Te93  1  0.71224589  0.41663943  0.06458612  1
  Te  Te94  1  0.75906957  0.41011069  0.42617225  1
  Te  Te95  1  0.73796477  0.44210469  0.77846126  1
  Te  Te96  1  0.76025291  0.75479966  0.06766934  1
  Te  Te97  1  0.72917327  0.72748378  0.39569070  1
  Te  Te98  1  0.74884031  0.73168790  0.73804596  1
  Te  Te99  1  0.08931512  0.25172090  0.22846624  1
  Te  Te100  1  0.09947063  0.25723544  0.56990912  1
  Te  Te101  1  0.10310838  0.26162567  0.91758396  1
  Te  Te102  1  0.07356422  0.59696262  0.26204190  1
  Te  Te103  1  0.08940415  0.58464420  0.58971149  1
  Te  Te104  1  0.09059299  0.56182222  0.93688936  1
  Te  Te105  1  0.08909691  0.93668195  0.23738407  1
  Te  Te106  1  0.07794645  0.90806655  0.57106629  1
  Te  Te107  1  0.06861793  0.91497953  0.89909379  1
  Te  Te108  1  0.44243064  0.29841142  0.26333489  1
  Te  Te109  1  0.39159070  0.28169994  0.59706848  1
  Te  Te110  1  0.42379460  0.25235909  0.92683248  1
  Te  Te111  1  0.44444794  0.55177743  0.26280876  1
  Te  Te112  1  0.41941666  0.57889855  0.58432368  1
  Te  Te113  1  0.43060633  0.56549729  0.89921817  1
  Te  Te114  1  0.41246967  0.92192356  0.24538310  1
  Te  Te115  1  0.42041415  0.91284255  0.58437881  1
  Te  Te116  1  0.41119938  0.90047030  0.91717039  1
  Te  Te117  1  0.74261017  0.25954232  0.25259347  1
  Te  Te118  1  0.74278526  0.25927712  0.57480869  1
  Te  Te119  1  0.72807211  0.29500550  0.96814081  1
  Te  Te120  1  0.71591894  0.55699217  0.22521704  1
  Te  Te121  1  0.75362968  0.57018119  0.59777752  1
  Te  Te122  1  0.73724602  0.56174508  0.89791126  1
  Te  Te123  1  0.75025298  0.92527544  0.23910349  1
  Te  Te124  1  0.77587604  0.88268005  0.58386837  1
  Te  Te125  1  0.74975357  0.90483680  0.91865165  1
  Te  Te126  1  0.26015308  0.26661118  0.08092295  1
  Te  Te127  1  0.25546203  0.27651480  0.39789350  1
  Te  Te128  1  0.27070641  0.29066334  0.75549516  1
  Te  Te129  1  0.25181344  0.55188298  0.06549743  1
  Te  Te130  1  0.25406764  0.57961250  0.41758112  1
  Te  Te131  1  0.27090155  0.55595630  0.77843739  1
  Te  Te132  1  0.22877758  0.92800435  0.08909193  1
  Te  Te133  1  0.25245890  0.90841221  0.43073062  1
  Te  Te134  1  0.24682698  0.90805592  0.76808082  1
  Te  Te135  1  0.60102648  0.18843569  0.11296395  1
  Te  Te136  1  0.55785817  0.29148572  0.43565346  1
  Te  Te137  1  0.58939322  0.24376878  0.75436164  1
  Te  Te138  1  0.59891473  0.58568928  0.10747203  1
  Te  Te139  1  0.58020535  0.57113606  0.39513432  1
  Te  Te140  1  0.54098353  0.55510483  0.76843083  1
  Te  Te141  1  0.58175590  0.92557896  0.07614741  1
  Te  Te142  1  0.60948989  0.91290164  0.42811285  1
  Te  Te143  1  0.57657960  0.92288171  0.74512173  1
  Te  Te144  1  0.91763030  0.25275092  0.10697136  1
  Te  Te145  1  0.89924404  0.22917979  0.38123509  1
  Te  Te146  1  0.92506263  0.24427310  0.74830380  1
  Te  Te147  1  0.89430758  0.56223109  0.06928711  1
  Te  Te148  1  0.91960361  0.58917292  0.41498496  1
  Te  Te149  1  0.92811656  0.56317200  0.76880341  1
  Te  Te150  1  0.90166899  0.92058301  0.07398664  1
  Te  Te151  1  0.92892419  0.91536861  0.39852722  1
  Te  Te152  1  0.90668767  0.88378629  0.73478607  1
  Te  Te153  1  0.25175240  0.08666997  0.23557371  1
  Te  Te154  1  0.26290312  0.09960520  0.57972439  1
  Te  Te155  1  0.23903740  0.06893420  0.91266342  1
  Te  Te156  1  0.26077106  0.39424831  0.25393977  1
  Te  Te157  1  0.26332612  0.40520271  0.57641659  1
  Te  Te158  1  0.23896761  0.41256437  0.86659468  1
  Te  Te159  1  0.25568449  0.75099105  0.24707031  1
  Te  Te160  1  0.25948092  0.75475482  0.57808302  1
  Te  Te161  1  0.25562567  0.74078609  0.91996651  1
  Te  Te162  1  0.57297994  0.13865183  0.25289853  1
  Te  Te163  1  0.58768769  0.08714312  0.57617505  1
  Te  Te164  1  0.57130057  0.11337678  0.94411155  1
  Te  Te165  1  0.55470633  0.39566666  0.21378879  1
  Te  Te166  1  0.56091369  0.40938983  0.58086779  1
  Te  Te167  1  0.59923210  0.41402102  0.93296672  1
  Te  Te168  1  0.57792088  0.73763206  0.25450292  1
  Te  Te169  1  0.60158663  0.74069279  0.57461882  1
  Te  Te170  1  0.57024415  0.72674471  0.90022866  1
  Te  Te171  1  0.92604183  0.10725310  0.28233312  1
  Te  Te172  1  0.91768187  0.08789951  0.58342885  1
  Te  Te173  1  0.90745133  0.09230079  0.91628194  1
  Te  Te174  1  0.91779374  0.42607639  0.25680998  1
  Te  Te175  1  0.89756734  0.42264138  0.61509032  1
  Te  Te176  1  0.91760329  0.42440269  0.91522757  1
  Te  Te177  1  0.91337671  0.73867771  0.24607676  1
  Te  Te178  1  0.91908512  0.75680975  0.56878191  1
  Te  Te179  1  0.91852879  0.76085673  0.91687554  1
