# generated using pymatgen
data_In2Te3
_symmetry_space_group_name_H-M   'P 1'
_cell_length_a   18.83452242
_cell_length_b   18.83497059
_cell_length_c   18.83151221
_cell_angle_alpha   90.02436079
_cell_angle_beta   90.04908896
_cell_angle_gamma   89.93352478
_symmetry_Int_Tables_number   1
_chemical_formula_structural   In2Te3
_chemical_formula_sum   'In72 Te108'
_cell_volume   6680.42764169
_cell_formula_units_Z   36
loop_
 _symmetry_equiv_pos_site_id
 _symmetry_equiv_pos_as_xyz
  1  'x, y, z'
loop_
 _atom_site_type_symbol
 _atom_site_label
 _atom_site_symmetry_multiplicity
 _atom_site_fract_x
 _atom_site_fract_y
 _atom_site_fract_z
 _atom_site_occupancy
  In  In0  1  0.81959030  0.49664620  0.31515360  1
  In  In1  1  0.32470888  0.02260986  -0.00570740  1
  In  In2  1  0.16505542  0.33642580  0.18839349  1
  In  In3  1  0.15462874  0.66259987  0.14568043  1
  In  In4  1  0.17486327  0.16974533  0.33688202  1
  In  In5  1  0.33902542  0.65336187  -0.01546245  1
  In  In6  1  0.66800152  0.50005007  0.84468792  1
  In  In7  1  0.48544160  0.64420252  0.17260441  1
  In  In8  1  0.16676883  0.34453982  0.53209501  1
  In  In9  1  0.67528958  0.16126770  0.49789601  1
  In  In10  1  0.01824382  0.49676208  0.50719593  1
  In  In11  1  0.33287288  0.62667952  0.35601188  1
  In  In12  1  0.50653949  0.32262225  0.82978256  1
  In  In13  1  0.81933844  0.01133461  0.16901269  1
  In  In14  1  0.32257609  0.34329763  0.65167916  1
  In  In15  1  0.81134565  0.50941656  0.65780180  1
  In  In16  1  0.66860159  0.64850456  0.33641329  1
  In  In17  1  -0.02374802  0.32832501  0.34843478  1
  In  In18  1  0.49187375  0.67107752  0.83886469  1
  In  In19  1  0.67420532  0.83586482  0.16224575  1
  In  In20  1  -0.01637971  0.68079716  -0.01816355  1
  In  In21  1  0.12111753  0.18122957  0.01366807  1
  In  In22  1  0.65256950  0.67014160  0.01055926  1
  In  In23  1  0.53000886  0.13793690  0.31022414  1
  In  In24  1  0.83856790  0.00692231  0.49416915  1
  In  In25  1  0.82355110  0.48982401  0.03209697  1
  In  In26  1  0.81850005  0.34833091  0.47110993  1
  In  In27  1  0.15768292  0.84213903  0.66641636  1
  In  In28  1  0.34560317  0.82292352  0.51156152  1
  In  In29  1  0.82901866  0.13169157  0.66444978  1
  In  In30  1  0.70552201  0.01832701  -0.00741198  1
  In  In31  1  0.34476227  0.19816379  0.15339670  1
  In  In32  1  -0.02018287  0.82455255  0.17251597  1
  In  In33  1  0.16797843  0.81564309  0.33774371  1
  In  In34  1  0.81323706  0.86037075  0.67122569  1
  In  In35  1  0.50204717  0.35818760  0.16034660  1
  In  In36  1  0.35782509  0.01514413  0.32625811  1
  In  In37  1  0.82518164  0.66601927  0.17018088  1
  In  In38  1  0.33388631  0.82945729  0.82750016  1
  In  In39  1  0.17311660  -0.00781460  0.51203568  1
  In  In40  1  0.51607988  0.84984515  0.00800319  1
  In  In41  1  0.32660937  0.18814022  0.84385425  1
  In  In42  1  0.34069399  0.16226929  0.48821358  1
  In  In43  1  0.37173438  0.38151104  0.34263740  1
  In  In44  1  0.50935088  0.17108676  0.66368206  1
  In  In45  1  -0.01888763  0.00457012  -0.02838240  1
  In  In46  1  0.49314070  0.15501041  -0.00107325  1
  In  In47  1  0.16447948  -0.00653816  0.13743727  1
  In  In48  1  0.35324600  -0.00755910  0.65313433  1
  In  In49  1  0.84214006  0.69116955  0.82547693  1
  In  In50  1  -0.01688373  0.46096512  0.86465174  1
  In  In51  1  0.18281452  0.50797850  -0.00403804  1
  In  In52  1  0.49896476  0.51161296  0.64374288  1
  In  In53  1  0.55597932  0.84385065  0.37629111  1
  In  In54  1  0.67689796  0.50794328  0.47900576  1
  In  In55  1  -0.00008557  0.66797668  0.67167371  1
  In  In56  1  0.66941284  0.34758188  0.68072107  1
  In  In57  1  0.34570357  0.85387849  0.18633063  1
  In  In58  1  -0.02657865  0.00128204  0.33229440  1
  In  In59  1  0.01385603  0.48233194  0.19223755  1
  In  In60  1  0.53447367  -0.01302580  0.81173079  1
  In  In61  1  0.80200447  0.19259412  0.31832117  1
  In  In62  1  0.82179876  0.68192627  0.49562309  1
  In  In63  1  0.00180157  0.67642197  0.33745739  1
  In  In64  1  0.19562977  0.49608797  0.67210321  1
  In  In65  1  0.67960012  0.27452743  0.00042088  1
  In  In66  1  0.51357796  0.68242065  0.49887439  1
  In  In67  1  0.81451039  0.00520331  0.83365844  1
  In  In68  1  0.11699287  0.13228989  0.69946725  1
  In  In69  1  0.17198459  0.66416123  0.80490618  1
  In  In70  1  -0.01349565  0.30602105  0.68421492  1
  In  In71  1  0.15734344  0.34010500  0.85525610  1
  Te  Te72  1  0.04564706  0.07451079  0.09497319  1
  Te  Te73  1  0.08763338  0.07270344  0.41252901  1
  Te  Te74  1  0.03858316  0.04285410  0.79869756  1
  Te  Te75  1  0.08592984  0.41837373  0.07382065  1
  Te  Te76  1  0.09133861  0.40646558  0.40952189  1
  Te  Te77  1  0.07858976  0.42230070  0.74061507  1
  Te  Te78  1  0.07782881  0.76859953  0.06822180  1
  Te  Te79  1  0.07772821  0.75516366  0.43583665  1
  Te  Te80  1  0.06627256  0.76685953  0.76673699  1
  Te  Te81  1  0.41670202  0.07283733  0.10406885  1
  Te  Te82  1  0.44779809  0.07179586  0.43362087  1
  Te  Te83  1  0.41739971  0.09327318  0.76238406  1
  Te  Te84  1  0.40457663  0.38626731  0.05688548  1
  Te  Te85  1  0.46278710  0.44140335  0.44006642  1
  Te  Te86  1  0.42512326  0.41497081  0.74160043  1
  Te  Te87  1  0.41899501  0.75693981  0.07970375  1
  Te  Te88  1  0.41737107  0.75442991  0.39353983  1
  Te  Te89  1  0.40954657  0.74144207  0.73690350  1
  Te  Te90  1  0.76296929  0.12314411  0.08498153  1
  Te  Te91  1  0.74147117  0.07358156  0.39102063  1
  Te  Te92  1  0.71806432  0.05460446  0.72790715  1
  Te  Te93  1  0.73412861  0.38407095  0.09465680  1
  Te  Te94  1  0.70769720  0.39793812  0.37196075  1
  Te  Te95  1  0.77207154  0.41371244  0.77065184  1
  Te  Te96  1  0.76447982  0.75862727  0.06638806  1
  Te  Te97  1  0.71991555  0.76016624  0.41935330  1
  Te  Te98  1  0.74326883  0.74393402  0.73172971  1
  Te  Te99  1  0.06803255  0.24170388  0.25531748  1
  Te  Te100  1  0.07488219  0.23526816  0.58378866  1
  Te  Te101  1  0.04980398  0.23749575  0.88728569  1
  Te  Te102  1  0.09962581  0.58394216  0.26546554  1
  Te  Te103  1  0.10275249  0.59185388  0.58936481  1
  Te  Te104  1  0.07638170  0.58205480  0.90824694  1
  Te  Te105  1  0.08639779  0.91196481  0.24851401  1
  Te  Te106  1  0.06538680  0.93085154  0.59077516  1
  Te  Te107  1  0.10487943  0.95825834  0.90557951  1
  Te  Te108  1  0.41454411  0.24505212  0.27732428  1
  Te  Te109  1  0.42495175  0.25900199  0.57273092  1
  Te  Te110  1  0.40723503  0.27614392  0.94430025  1
  Te  Te111  1  0.40741546  0.54579168  0.25353166  1
  Te  Te112  1  0.41317761  0.61562954  0.58455913  1
  Te  Te113  1  0.45080974  0.56803105  0.93822830  1
  Te  Te114  1  0.45951021  0.91936360  0.26338894  1
  Te  Te115  1  0.45275355  0.90327453  0.58415555  1
  Te  Te116  1  0.42379791  0.93025884  0.91261432  1
  Te  Te117  1  0.75072994  0.28037304  0.21190389  1
  Te  Te118  1  0.75886272  0.26269150  0.58666690  1
  Te  Te119  1  0.77749778  0.22332391  0.89852581  1
  Te  Te120  1  0.72248365  0.56598834  0.21893607  1
  Te  Te121  1  0.72096379  0.60814201  0.58569036  1
  Te  Te122  1  0.76569600  0.58754998  0.92795546  1
  Te  Te123  1  0.74676560  0.91921439  0.26057269  1
  Te  Te124  1  0.73300865  0.91377770  0.55298642  1
  Te  Te125  1  0.73735250  0.90235943  0.90704482  1
  Te  Te126  1  0.23796462  0.26733627  0.07346700  1
  Te  Te127  1  0.25237329  0.26870193  0.42293618  1
  Te  Te128  1  0.23433992  0.25633147  0.74249893  1
  Te  Te129  1  0.27152821  0.57614183  0.09844809  1
  Te  Te130  1  0.23481577  0.56366088  0.44185617  1
  Te  Te131  1  0.28054319  0.57145254  0.76744829  1
  Te  Te132  1  0.26159556  0.90140216  0.06611647  1
  Te  Te133  1  0.26657355  0.92237547  0.40922454  1
  Te  Te134  1  0.25240378  0.93301120  0.74939797  1
  Te  Te135  1  0.57292199  0.23093094  0.10241433  1
  Te  Te136  1  0.58981175  0.23605815  0.40277782  1
  Te  Te137  1  0.60961250  0.23438958  0.76178426  1
  Te  Te138  1  0.57023264  0.56715625  0.07634856  1
  Te  Te139  1  0.55281023  0.56317368  0.39987265  1
  Te  Te140  1  0.58597843  0.58369105  0.74978877  1
  Te  Te141  1  0.59659555  0.95083197  0.08864270  1
  Te  Te142  1  0.61847492  0.95214268  0.45293467  1
  Te  Te143  1  0.55667596  0.87394810  0.72009226  1
  Te  Te144  1  0.99919993  0.27334510  0.02662983  1
  Te  Te145  1  0.90410601  0.22751887  0.43353244  1
  Te  Te146  1  0.89445038  0.22246964  0.76600890  1
  Te  Te147  1  0.93641910  0.58621529  0.10028196  1
  Te  Te148  1  0.90727803  0.56981610  0.41959323  1
  Te  Te149  1  0.91772909  0.56904755  0.75439249  1
  Te  Te150  1  0.90601304  0.92023564  0.08192209  1
  Te  Te151  1  0.92020006  0.90248552  0.42505027  1
  Te  Te152  1  0.91811788  0.93921461  0.74627109  1
  Te  Te153  1  0.24815850  0.08262481  0.23276133  1
  Te  Te154  1  0.25151740  0.09782040  0.59425281  1
  Te  Te155  1  0.22305468  0.10197602  0.91664231  1
  Te  Te156  1  0.26148026  0.42649069  0.25467026  1
  Te  Te157  1  0.27985656  0.45399040  0.54396329  1
  Te  Te158  1  0.26226720  0.43643892  0.89330404  1
  Te  Te159  1  0.25725348  0.73986574  0.23963540  1
  Te  Te160  1  0.25053652  0.74979301  0.59609966  1
  Te  Te161  1  0.23958110  0.74668649  0.91536810  1
  Te  Te162  1  0.59495937  0.02979739  0.23483452  1
  Te  Te163  1  0.60652355  0.07576442  0.60166869  1
  Te  Te164  1  0.59401857  0.08793327  0.90823070  1
  Te  Te165  1  0.59430451  0.40542692  0.26260724  1
  Te  Te166  1  0.59157740  0.41290131  0.56870040  1
  Te  Te167  1  0.60285989  0.39078090  0.92647879  1
  Te  Te168  1  0.58143015  0.74236054  0.24196562  1
  Te  Te169  1  0.56944586  0.78214328  0.59297475  1
  Te  Te170  1  0.59316859  0.76545604  0.90750679  1
  Te  Te171  1  0.91088947  0.10856408  0.24624269  1
  Te  Te172  1  0.93782260  0.07261662  0.58392788  1
  Te  Te173  1  0.86820950  0.10905092  0.94420999  1
  Te  Te174  1  0.89803175  0.39204457  0.23223074  1
  Te  Te175  1  0.91327422  0.41383829  0.58238245  1
  Te  Te176  1  0.88658407  0.38187198  0.94804321  1
  Te  Te177  1  0.88796233  0.75658731  0.27484496  1
  Te  Te178  1  0.90812543  0.75969112  0.59308121  1
  Te  Te179  1  0.91499937  0.78844166  0.90900080  1
