# generated using pymatgen
data_In2Te3
_symmetry_space_group_name_H-M   'P 1'
_cell_length_a   18.99001593
_cell_length_b   18.98764983
_cell_length_c   19.02905507
_cell_angle_alpha   90.27405207
_cell_angle_beta   89.80528310
_cell_angle_gamma   90.04427752
_symmetry_Int_Tables_number   1
_chemical_formula_structural   In2Te3
_chemical_formula_sum   'In72 Te108'
_cell_volume   6861.29616043
_cell_formula_units_Z   36
loop_
 _symmetry_equiv_pos_site_id
 _symmetry_equiv_pos_as_xyz
  1  'x, y, z'
loop_
 _atom_site_type_symbol
 _atom_site_label
 _atom_site_symmetry_multiplicity
 _atom_site_fract_x
 _atom_site_fract_y
 _atom_site_fract_z
 _atom_site_occupancy
  In  In0  1  0.32563180  0.16707068  0.17251078  1
  In  In1  1  0.66810233  0.52700573  0.82876913  1
  In  In2  1  0.48109507  -0.00966086  0.16143992  1
  In  In3  1  0.16871571  0.30339476  0.18520004  1
  In  In4  1  0.63647500  0.73366445  0.32848520  1
  In  In5  1  0.66759009  0.83495246  0.47914342  1
  In  In6  1  0.01988703  0.49388292  0.52963248  1
  In  In7  1  0.00021090  0.30339435  0.64801706  1
  In  In8  1  0.67519823  0.34027908  0.30962988  1
  In  In9  1  0.00388181  0.15720622  0.49356139  1
  In  In10  1  0.35404367  0.01979860  0.36153581  1
  In  In11  1  0.32845240  0.16121321  0.83996059  1
  In  In12  1  0.84982222  0.82774200  0.67084793  1
  In  In13  1  0.31025992  -0.00046095  -0.00308891  1
  In  In14  1  0.05686126  0.69874992  0.66614293  1
  In  In15  1  0.63547740  0.51676622  0.46327378  1
  In  In16  1  0.84911141  0.50128193  0.67876088  1
  In  In17  1  -0.04015466  0.29377031  -0.00652918  1
  In  In18  1  0.04539880  0.85720260  0.77563861  1
  In  In19  1  0.65541693  0.65426604  0.00867129  1
  In  In20  1  0.83593121  0.50131643  0.33537518  1
  In  In21  1  0.16379393  0.51551671  0.35523360  1
  In  In22  1  0.46502780  0.17579630  0.65969417  1
  In  In23  1  0.17487446  0.67925758  0.15002018  1
  In  In24  1  0.01167227  0.14246554  0.80791827  1
  In  In25  1  0.82998588  0.85023551  0.34368453  1
  In  In26  1  0.65446277  0.82384764  0.81450198  1
  In  In27  1  -0.00323769  0.33425931  0.35476107  1
  In  In28  1  0.64636152  0.16809411  0.82186732  1
  In  In29  1  0.64303827  0.31273079  0.00210537  1
  In  In30  1  0.01815965  0.00515233  -0.00222940  1
  In  In31  1  0.33278610  0.49697992  0.50382803  1
  In  In32  1  0.17802625  0.82546401  -0.00414611  1
  In  In33  1  0.32452000  0.84560457  0.15536208  1
  In  In34  1  0.18517094  0.52315997  0.68468764  1
  In  In35  1  0.14835394  0.31263590  0.80657556  1
  In  In36  1  0.84396277  0.01814502  0.49523982  1
  In  In37  1  0.47539352  0.70171776  0.47631523  1
  In  In38  1  0.83018505  0.01334111  0.17960815  1
  In  In39  1  0.48805914  0.50164951  0.66815522  1
  In  In40  1  0.64881248  -0.00313170  -0.01906538  1
  In  In41  1  0.50236741  0.34910758  0.82781782  1
  In  In42  1  0.00514275  0.49065680  0.16517957  1
  In  In43  1  0.31562413  0.34081346  0.33451318  1
  In  In44  1  0.66324644  0.16500100  0.50139980  1
  In  In45  1  0.35070382  0.50164077  0.84396269  1
  In  In46  1  0.83113549  0.36484336  0.83184512  1
  In  In47  1  0.61560104  0.52512107  0.16281481  1
  In  In48  1  0.02032179  -0.00871468  0.32449302  1
  In  In49  1  0.02666228  0.53711574  0.82768643  1
  In  In50  1  0.66155934  0.16576974  0.15555682  1
  In  In51  1  0.85382440  0.83801887  -0.01004480  1
  In  In52  1  0.83194777  0.66986390  0.17330472  1
  In  In53  1  0.16212597  0.48492562  0.02218100  1
  In  In54  1  0.48954217  0.85313698  -0.00835291  1
  In  In55  1  0.63352404  -0.02838110  0.33176224  1
  In  In56  1  0.86453872  0.17328390  -0.00848398  1
  In  In57  1  0.65061773  -0.01708813  0.67355260  1
  In  In58  1  0.47538261  0.48000328  0.03741444  1
  In  In59  1  0.65529921  0.64698614  0.65012450  1
  In  In60  1  0.18609184  0.14275976  0.37252621  1
  In  In61  1  0.32215201  0.34303089  -0.00334071  1
  In  In62  1  0.39677685  0.83861753  0.70025265  1
  In  In63  1  0.00622542  0.68320742  -0.02456278  1
  In  In64  1  0.21009479  0.12772557  0.63537002  1
  In  In65  1  0.02317285  0.70544382  0.34828679  1
  In  In66  1  0.81915309  0.49372721  0.00272573  1
  In  In67  1  0.83741527  0.29462153  0.13274542  1
  In  In68  1  0.20226179  0.84150449  0.34667063  1
  In  In69  1  0.81907488  0.15011370  0.65964868  1
  In  In70  1  0.87162354  0.66451405  0.51689437  1
  In  In71  1  0.49963278  0.33522683  0.48140596  1
  Te  Te72  1  0.06966627  0.09889642  0.09552908  1
  Te  Te73  1  0.09605671  0.04661903  0.44541150  1
  Te  Te74  1  0.11940982  0.06669390  0.73796224  1
  Te  Te75  1  0.07014545  0.38021463  0.08415150  1
  Te  Te76  1  0.10237049  0.40430689  0.43778432  1
  Te  Te77  1  0.06600745  0.41874799  0.73365397  1
  Te  Te78  1  0.06811700  0.76401947  0.08613846  1
  Te  Te79  1  0.11980691  0.76033486  0.43957475  1
  Te  Te80  1  0.13643775  0.73551212  0.78777347  1
  Te  Te81  1  0.40971854  0.08698564  0.07244352  1
  Te  Te82  1  0.47733305  0.05772866  0.43143056  1
  Te  Te83  1  0.42919962  0.08211741  0.76607634  1
  Te  Te84  1  0.38730330  0.39382524  0.11774775  1
  Te  Te85  1  0.42016547  0.43227653  0.39691599  1
  Te  Te86  1  0.39601975  0.40313441  0.73567638  1
  Te  Te87  1  0.39534746  0.75837849  0.05910293  1
  Te  Te88  1  0.34038609  0.73871156  0.43519286  1
  Te  Te89  1  0.38252183  0.72983764  0.79954021  1
  Te  Te90  1  0.75105876  0.08556519  0.05891083  1
  Te  Te91  1  0.73104578  0.06428644  0.40919092  1
  Te  Te92  1  0.74240350  0.06762207  0.75991319  1
  Te  Te93  1  0.73914008  0.40068205  0.08924028  1
  Te  Te94  1  0.74421938  0.41837638  0.42120788  1
  Te  Te95  1  0.73023147  0.42431610  0.73620049  1
  Te  Te96  1  0.75872124  0.75184365  0.07210500  1
  Te  Te97  1  0.76683836  0.72730506  0.41851498  1
  Te  Te98  1  0.74802958  0.73474648  0.73395634  1
  Te  Te99  1  0.09065261  0.23220263  0.29157118  1
  Te  Te100  1  0.10863257  0.23039833  0.57592961  1
  Te  Te101  1  0.07632024  0.23260003  0.91122995  1
  Te  Te102  1  0.07627245  0.59474798  0.24879898  1
  Te  Te103  1  0.12058323  0.59689671  0.56835211  1
  Te  Te104  1  0.12271772  0.59947476  0.92659306  1
  Te  Te105  1  0.10032134  0.89237224  0.25302431  1
  Te  Te106  1  0.11815967  0.92022340  0.65137465  1
  Te  Te107  1  0.10208156  0.91902690  0.90631259  1
  Te  Te108  1  0.39983266  0.23100979  0.28121916  1
  Te  Te109  1  0.39779931  0.25583874  0.55474682  1
  Te  Te110  1  0.42161365  0.26071293  0.91765902  1
  Te  Te111  1  0.46543928  0.55428138  0.17248690  1
  Te  Te112  1  0.41872751  0.59867856  0.57852844  1
  Te  Te113  1  0.43317629  0.57629940  0.93766841  1
  Te  Te114  1  0.41585999  0.90400698  0.26986230  1
  Te  Te115  1  0.39975393  0.91939244  0.57747048  1
  Te  Te116  1  0.39426836  0.92185421  0.90034569  1
  Te  Te117  1  0.76215508  0.23085626  0.24794864  1
  Te  Te118  1  0.74684990  0.25083862  0.58641726  1
  Te  Te119  1  0.74730271  0.25840129  0.90673542  1
  Te  Te120  1  0.74181276  0.57226732  0.24263216  1
  Te  Te121  1  0.75989497  0.57323033  0.56797265  1
  Te  Te122  1  0.76858018  0.60236620  0.91211225  1
  Te  Te123  1  0.73878145  0.90714935  0.23936332  1
  Te  Te124  1  0.75422088  0.91561128  0.57664176  1
  Te  Te125  1  0.74300580  0.90521153  0.90626492  1
  Te  Te126  1  0.23887432  0.23744665  0.06866318  1
  Te  Te127  1  0.28499823  0.23318759  0.43596221  1
  Te  Te128  1  0.25605655  0.24066090  0.73194785  1
  Te  Te129  1  0.25618306  0.57896428  0.08096856  1
  Te  Te130  1  0.27660629  0.59910354  0.40638490  1
  Te  Te131  1  0.29003385  0.60345961  0.75248426  1
  Te  Te132  1  0.21796932  0.93288028  0.09704082  1
  Te  Te133  1  0.26926419  0.93212670  0.45169940  1
  Te  Te134  1  0.25966304  0.90728599  0.71396761  1
  Te  Te135  1  0.55470458  0.24192883  0.09243314  1
  Te  Te136  1  0.58995329  0.24760879  0.39792603  1
  Te  Te137  1  0.57662277  0.26271893  0.72909000  1
  Te  Te138  1  0.57079332  0.66723457  0.13281291  1
  Te  Te139  1  0.55764647  0.61112160  0.38063015  1
  Te  Te140  1  0.55856712  0.60197376  0.75800221  1
  Te  Te141  1  0.59014530  0.91089831  0.09019508  1
  Te  Te142  1  0.54588463  0.92379085  0.44500043  1
  Te  Te143  1  0.54887572  0.89237514  0.73508776  1
  Te  Te144  1  0.95652080  0.19496565  0.12109018  1
  Te  Te145  1  0.90809230  0.24833586  0.43227613  1
  Te  Te146  1  0.90975309  0.25370009  0.76071322  1
  Te  Te147  1  0.92541620  0.58490260  0.07677122  1
  Te  Te148  1  0.94278478  0.57258377  0.41591660  1
  Te  Te149  1  0.93867497  0.60927961  0.73042965  1
  Te  Te150  1  0.92020240  0.92898267  0.09130398  1
  Te  Te151  1  0.93219624  0.91359483  0.43096434  1
  Te  Te152  1  0.91785328  0.92745738  0.75152187  1
  Te  Te153  1  0.25177383  0.06680546  0.25947310  1
  Te  Te154  1  0.30891612  0.04301610  0.56053826  1
  Te  Te155  1  0.22642103  0.08386563  0.91104867  1
  Te  Te156  1  0.22755425  0.42965095  0.24676002  1
  Te  Te157  1  0.24274322  0.42376973  0.59348099  1
  Te  Te158  1  0.22723025  0.41042480  0.89543072  1
  Te  Te159  1  0.27017932  0.73865344  0.24872245  1
  Te  Te160  1  0.19464619  0.77962818  0.64843855  1
  Te  Te161  1  0.30240010  0.78576160  0.92132701  1
  Te  Te162  1  0.57277590  0.07841084  0.24432347  1
  Te  Te163  1  0.57437999  0.08593521  0.59552818  1
  Te  Te164  1  0.55974003  0.08162900  0.90168595  1
  Te  Te165  1  0.56645353  0.41454993  0.24773295  1
  Te  Te166  1  0.58054846  0.42829735  0.57245116  1
  Te  Te167  1  0.59256355  0.43523319  0.92350922  1
  Te  Te168  1  0.51497707  0.78350722  0.26959473  1
  Te  Te169  1  0.58114813  0.75318953  0.57429935  1
  Te  Te170  1  0.57671629  0.74824317  0.91900517  1
  Te  Te171  1  0.90838972  0.07760101  0.28485726  1
  Te  Te172  1  0.93522100  0.07279526  0.60299416  1
  Te  Te173  1  0.91873206  0.06478321  0.89864541  1
  Te  Te174  1  0.90699332  0.40345144  0.24077483  1
  Te  Te175  1  0.90850529  0.40340219  0.57842525  1
  Te  Te176  1  0.93656207  0.43982586  0.91269649  1
  Te  Te177  1  0.91892966  0.76307875  0.25441220  1
  Te  Te178  1  0.95471845  0.77369568  0.57540502  1
  Te  Te179  1  0.93426797  0.77150413  0.88343573  1
