# generated using pymatgen
data_In2Te3
_symmetry_space_group_name_H-M   'P 1'
_cell_length_a   18.98524745
_cell_length_b   18.98812343
_cell_length_c   18.98925746
_cell_angle_alpha   90.06531645
_cell_angle_beta   90.04449524
_cell_angle_gamma   90.15989500
_symmetry_Int_Tables_number   1
_chemical_formula_structural   In2Te3
_chemical_formula_sum   'In72 Te108'
_cell_volume   6845.48441141
_cell_formula_units_Z   36
loop_
 _symmetry_equiv_pos_site_id
 _symmetry_equiv_pos_as_xyz
  1  'x, y, z'
loop_
 _atom_site_type_symbol
 _atom_site_label
 _atom_site_symmetry_multiplicity
 _atom_site_fract_x
 _atom_site_fract_y
 _atom_site_fract_z
 _atom_site_occupancy
  In  In0  1  0.83647733  0.34759833  0.50978142  1
  In  In1  1  0.44666563  0.00302973  0.85835570  1
  In  In2  1  0.85011059  0.48316366  0.34451414  1
  In  In3  1  0.18852881  0.13963326  0.32703073  1
  In  In4  1  0.49984131  0.47705488  0.33892556  1
  In  In5  1  0.18731888  0.15671808  0.71515542  1
  In  In6  1  0.83989276  0.67068130  0.15788955  1
  In  In7  1  0.16101806  0.64817978  0.53895505  1
  In  In8  1  0.65727782  0.52822119  0.82233321  1
  In  In9  1  0.17060778  0.67921264  0.12603580  1
  In  In10  1  -0.00988806  0.64094705  0.32668444  1
  In  In11  1  0.36530173  0.50374126  0.51809890  1
  In  In12  1  0.68218766  -0.03051242  0.68655732  1
  In  In13  1  0.50281437  0.67622308  0.53280931  1
  In  In14  1  0.66765869  0.38128531  -0.01757137  1
  In  In15  1  0.64504556  0.18105403  0.50898311  1
  In  In16  1  0.01145742  0.65172047  0.77462432  1
  In  In17  1  0.67426326  0.50888671  0.53010753  1
  In  In18  1  -0.03447781  0.79220965  0.52236191  1
  In  In19  1  0.01780042  0.01420215  0.33258789  1
  In  In20  1  0.67191148  0.64959201  0.33548213  1
  In  In21  1  0.16533669  0.50797484  0.70593379  1
  In  In22  1  0.84349187  0.83853751  0.30669082  1
  In  In23  1  0.50295460  0.85331029  0.31970320  1
  In  In24  1  0.71840063  0.75549963  0.54120290  1
  In  In25  1  0.00357086  -0.04818971  -0.02051972  1
  In  In26  1  0.20616185  -0.01412669  0.85441027  1
  In  In27  1  0.72549574  0.38308180  0.19241657  1
  In  In28  1  0.83562301  0.53932870  -0.05462293  1
  In  In29  1  0.33096977  0.16651799  0.16972483  1
  In  In30  1  0.48191561  0.86697539  0.67889066  1
  In  In31  1  -0.01630738  0.36607327  0.68456940  1
  In  In32  1  0.66565342  -0.03558610  -0.01158963  1
  In  In33  1  0.17081329  -0.08620467  0.10365961  1
  In  In34  1  0.49847813  0.66794316  0.15728140  1
  In  In35  1  0.33575358  0.15732168  0.49263945  1
  In  In36  1  0.46121731  -0.02483337  0.12882659  1
  In  In37  1  0.21921336  0.55312243  -0.08448503  1
  In  In38  1  0.66091816  0.14510376  0.84647851  1
  In  In39  1  0.14206256  0.83000211  0.32975863  1
  In  In40  1  0.81099697  0.35182875  0.83070559  1
  In  In41  1  0.34853543  0.03121077  0.66967840  1
  In  In42  1  0.02647461  0.31424228  0.34729615  1
  In  In43  1  0.50204521  0.80619761  -0.00840780  1
  In  In44  1  0.65602909  0.17760618  0.15310689  1
  In  In45  1  0.18814473  0.32376532  0.52633644  1
  In  In46  1  0.49918567  0.52236527  -0.00410839  1
  In  In47  1  0.81406598  0.79394562  -0.02163277  1
  In  In48  1  0.19544644  0.32996717  0.84930945  1
  In  In49  1  0.14317715  0.49153327  0.35042720  1
  In  In50  1  -0.00969737  0.19322043  0.53419944  1
  In  In51  1  0.50671020  0.24303151  0.69368231  1
  In  In52  1  -0.01201877  0.50209021  0.14362687  1
  In  In53  1  0.32867518  0.68967932  0.35932941  1
  In  In54  1  0.49795119  0.19009446  0.33060768  1
  In  In55  1  0.47661560  0.18446311  0.01628409  1
  In  In56  1  0.34348637  0.35041670  0.00116913  1
  In  In57  1  0.50310405  0.67533020  0.81846649  1
  In  In58  1  0.50688093  0.01719535  0.49682247  1
  In  In59  1  0.84616058  -0.00623668  0.16262079  1
  In  In60  1  0.81817503  -0.00228081  0.48545449  1
  In  In61  1  0.15895275  0.34128918  0.16258307  1
  In  In62  1  0.02582345  -0.10197997  0.74446861  1
  In  In63  1  0.00351530  0.30749539  -0.00861235  1
  In  In64  1  0.14647618  -0.02722258  0.50384390  1
  In  In65  1  0.00489819  0.15921785  0.83468485  1
  In  In66  1  0.80985645  0.17314538  0.65683823  1
  In  In67  1  0.24891550  0.77008322  0.71256873  1
  In  In68  1  0.00962024  0.12791484  0.13424859  1
  In  In69  1  0.63940396  0.03064584  0.32295588  1
  In  In70  1  0.32821631  0.50577485  0.18217042  1
  In  In71  1  0.85228075  0.15671992  -0.00468872  1
  Te  Te72  1  0.10160251  0.04567474  0.04963036  1
  Te  Te73  1  0.07839415  0.10677884  0.43729569  1
  Te  Te74  1  0.07564212  0.06219361  0.74498567  1
  Te  Te75  1  0.08443860  0.42086234  0.05814912  1
  Te  Te76  1  0.07775057  0.40564584  0.45659646  1
  Te  Te77  1  0.08203733  0.41336701  0.79023009  1
  Te  Te78  1  0.09795065  0.78933744  0.06330279  1
  Te  Te79  1  0.07084142  0.73168013  0.42988373  1
  Te  Te80  1  0.09454703  0.76587637  0.71986820  1
  Te  Te81  1  0.37230844  0.07061406  0.05289298  1
  Te  Te82  1  0.41564578  0.07770905  0.39190729  1
  Te  Te83  1  0.45094887  0.10821007  0.74621911  1
  Te  Te84  1  0.42701252  0.42900436  0.09914652  1
  Te  Te85  1  0.41147682  0.40032915  0.42646817  1
  Te  Te86  1  0.44689702  0.37897351  0.67998267  1
  Te  Te87  1  0.39642015  0.75255015  0.08798652  1
  Te  Te88  1  0.43638902  0.76715070  0.42938041  1
  Te  Te89  1  0.40024941  0.76640616  0.75250404  1
  Te  Te90  1  0.74946954  0.07379725  0.07328529  1
  Te  Te91  1  0.73692784  0.10391249  0.41469144  1
  Te  Te92  1  0.76464643  0.07339923  0.76195041  1
  Te  Te93  1  0.77816480  0.43917796  0.06540752  1
  Te  Te94  1  0.73518001  0.42108305  0.42296306  1
  Te  Te95  1  0.75885236  0.45483715  0.73982901  1
  Te  Te96  1  0.74208045  0.76301447  0.10178433  1
  Te  Te97  1  0.77690972  0.73874382  0.39995270  1
  Te  Te98  1  0.80305477  0.68915439  0.75540470  1
  Te  Te99  1  0.08975237  0.22409572  0.23358246  1
  Te  Te100  1  0.08886822  0.26181786  0.62700836  1
  Te  Te101  1  0.10889593  0.22366966  0.92202319  1
  Te  Te102  1  0.09612292  0.57636225  0.23083381  1
  Te  Te103  1  0.06214175  0.58515070  0.63016324  1
  Te  Te104  1  0.07921397  0.61328262  0.90458457  1
  Te  Te105  1  0.07820301  0.92420265  0.22983504  1
  Te  Te106  1  0.04142653  0.90685977  0.58801940  1
  Te  Te107  1  0.09764835  0.88581770  0.88201679  1
  Te  Te108  1  0.41407205  0.26450832  0.23820946  1
  Te  Te109  1  0.40332495  0.25637552  0.58030006  1
  Te  Te110  1  0.42486616  0.26837314  0.90962550  1
  Te  Te111  1  0.41472254  0.59555247  0.27284910  1
  Te  Te112  1  0.39160853  0.61626233  0.60656909  1
  Te  Te113  1  0.42062704  0.62714631  0.93086161  1
  Te  Te114  1  0.39444681  0.90713020  0.23929318  1
  Te  Te115  1  0.40341938  0.93219948  0.56721869  1
  Te  Te116  1  0.39056762  0.87475182  0.91571730  1
  Te  Te117  1  0.73269589  0.25019992  0.25344343  1
  Te  Te118  1  0.72771199  0.27968699  0.59230086  1
  Te  Te119  1  0.75177753  0.24918636  0.93131176  1
  Te  Te120  1  0.76913202  0.57212567  0.24958247  1
  Te  Te121  1  0.75455282  0.61931077  0.58881311  1
  Te  Te122  1  0.70770127  0.61537083  0.93272215  1
  Te  Te123  1  0.74035236  0.93495886  0.25352765  1
  Te  Te124  1  0.76932182  0.89627778  0.58645212  1
  Te  Te125  1  0.75679425  0.90088875  0.89067140  1
  Te  Te126  1  0.24955403  0.25731468  0.07633841  1
  Te  Te127  1  0.25154215  0.25183845  0.40721534  1
  Te  Te128  1  0.28017627  0.26198914  0.75078863  1
  Te  Te129  1  0.25600937  0.57039067  0.06742796  1
  Te  Te130  1  0.24534910  0.57728186  0.42347749  1
  Te  Te131  1  0.25321311  0.61596264  0.76450050  1
  Te  Te132  1  0.29028923  0.85773576  0.03427694  1
  Te  Te133  1  0.23323493  0.92141140  0.40052357  1
  Te  Te134  1  0.25496330  0.92749646  0.72609948  1
  Te  Te135  1  0.58636876  0.27794694  0.06467023  1
  Te  Te136  1  0.55902382  0.27264078  0.43505252  1
  Te  Te137  1  0.63189402  0.26618724  0.76820171  1
  Te  Te138  1  0.59321839  0.57757543  0.09462791  1
  Te  Te139  1  0.57294913  0.58385738  0.43049323  1
  Te  Te140  1  0.56043176  0.57795869  0.71958559  1
  Te  Te141  1  0.58268436  0.89269779  0.09093839  1
  Te  Te142  1  0.59772431  0.92233685  0.42132851  1
  Te  Te143  1  0.56769989  0.93632004  0.78020493  1
  Te  Te144  1  0.91647690  0.24570341  0.09901175  1
  Te  Te145  1  0.90831607  0.24902063  0.41948729  1
  Te  Te146  1  0.90647946  0.24761948  0.75749393  1
  Te  Te147  1  0.92845868  0.60684437  0.05357310  1
  Te  Te148  1  0.92660819  0.56853285  0.43540012  1
  Te  Te149  1  0.88000237  0.56491397  0.79188755  1
  Te  Te150  1  0.89985423  0.88943761  0.06895303  1
  Te  Te151  1  0.92736634  0.91610005  0.40905927  1
  Te  Te152  1  0.88534826  0.87072124  0.78640300  1
  Te  Te153  1  0.24416049  0.05755611  0.22012613  1
  Te  Te154  1  0.23102059  0.08836455  0.57968882  1
  Te  Te155  1  0.31455699  0.07609053  0.89626076  1
  Te  Te156  1  0.24276189  0.41198871  0.26699969  1
  Te  Te157  1  0.25175667  0.43684620  0.60283979  1
  Te  Te158  1  0.30453258  0.43332414  0.87791028  1
  Te  Te159  1  0.23814465  0.74257220  0.25064659  1
  Te  Te160  1  0.24044160  0.76691207  0.56471991  1
  Te  Te161  1  0.21111860  0.69987305  0.88752009  1
  Te  Te162  1  0.55222110  0.08112339  0.20908271  1
  Te  Te163  1  0.60177185  0.07011205  0.60166832  1
  Te  Te164  1  0.57004754  0.07693659  0.94826009  1
  Te  Te165  1  0.59075842  0.40592262  0.24764825  1
  Te  Te166  1  0.56528950  0.45264480  0.61145842  1
  Te  Te167  1  0.55906498  0.42934282  0.89107834  1
  Te  Te168  1  0.58918810  0.74511948  0.25419259  1
  Te  Te169  1  0.58606558  0.77379377  0.61339525  1
  Te  Te170  1  0.60485107  0.74370172  0.90430709  1
  Te  Te171  1  0.91563355  0.09293779  0.25326500  1
  Te  Te172  1  0.90383730  0.07913417  0.58475366  1
  Te  Te173  1  0.91923980  0.05649425  0.90654839  1
  Te  Te174  1  0.94651238  0.40650132  0.25593099  1
  Te  Te175  1  0.89636186  0.44620201  0.60063263  1
  Te  Te176  1  0.91973254  0.40990153  0.91897150  1
  Te  Te177  1  0.94457571  0.75142422  0.23510130  1
  Te  Te178  1  0.88858356  0.72167782  0.62817221  1
  Te  Te179  1  0.91175480  0.74384096  0.86585988  1
