# generated using pymatgen
data_In2Te3
_symmetry_space_group_name_H-M   'P 1'
_cell_length_a   18.82694479
_cell_length_b   18.81714064
_cell_length_c   18.83807659
_cell_angle_alpha   89.96914547
_cell_angle_beta   89.99812453
_cell_angle_gamma   90.04359167
_symmetry_Int_Tables_number   1
_chemical_formula_structural   In2Te3
_chemical_formula_sum   'In72 Te108'
_cell_volume   6673.74869701
_cell_formula_units_Z   36
loop_
 _symmetry_equiv_pos_site_id
 _symmetry_equiv_pos_as_xyz
  1  'x, y, z'
loop_
 _atom_site_type_symbol
 _atom_site_label
 _atom_site_symmetry_multiplicity
 _atom_site_fract_x
 _atom_site_fract_y
 _atom_site_fract_z
 _atom_site_occupancy
  In  In0  1  0.64741161  0.67477349  0.00475937  1
  In  In1  1  0.66149811  0.01299441  0.31095032  1
  In  In2  1  0.65136739  0.67921881  0.32838804  1
  In  In3  1  0.80412849  0.50523818  0.33211449  1
  In  In4  1  0.65508918  0.82424548  0.52884337  1
  In  In5  1  -0.00585457  0.30746838  0.67813025  1
  In  In6  1  0.34733787  -0.00336513  0.34765563  1
  In  In7  1  0.00050026  0.51204442  0.16687337  1
  In  In8  1  0.33640328  0.16264912  0.14040423  1
  In  In9  1  0.62162030  0.54285528  0.81296829  1
  In  In10  1  0.19848814  0.68530643  0.85025607  1
  In  In11  1  0.35719314  0.83030294  0.50376774  1
  In  In12  1  -0.00262943  -0.00249769  0.67213855  1
  In  In13  1  0.18265863  0.33378355  0.16202390  1
  In  In14  1  0.02610838  0.31175191  0.00556690  1
  In  In15  1  0.81290200  0.31724730  0.47721175  1
  In  In16  1  0.49310098  0.52171683  0.00134189  1
  In  In17  1  0.18071677  0.15144557  0.68000013  1
  In  In18  1  0.00177055  0.83814207  0.83461727  1
  In  In19  1  0.64938606  0.15195582  0.18848440  1
  In  In20  1  0.18511673  0.32501141  0.85307143  1
  In  In21  1  0.68743846  0.11662670  0.81452396  1
  In  In22  1  0.48785240  0.16018934  0.67355154  1
  In  In23  1  0.49030258  0.51925353  0.33432310  1
  In  In24  1  0.34894841  0.53032784  0.15289987  1
  In  In25  1  0.47388520  0.83015635  -0.01200140  1
  In  In26  1  0.19657060  0.68562136  0.14303678  1
  In  In27  1  -0.00910307  0.67158055  0.68234673  1
  In  In28  1  0.35670123  0.53196251  0.50888040  1
  In  In29  1  0.67925682  0.34601060  0.00029792  1
  In  In30  1  0.16830047  0.16842086  0.33733181  1
  In  In31  1  0.48922434  0.81890877  0.32591915  1
  In  In32  1  0.51120286  0.32383065  0.50875632  1
  In  In33  1  0.18326142  -0.00234375  0.51451942  1
  In  In34  1  0.00861499  0.35335923  0.35364230  1
  In  In35  1  0.00346047  0.81492774  0.51425412  1
  In  In36  1  0.81971967  0.18947722  0.34794477  1
  In  In37  1  0.35428795  0.50748788  0.82959681  1
  In  In38  1  0.81938105  0.35048045  0.13173856  1
  In  In39  1  0.65154252  -0.02651017  -0.01242005  1
  In  In40  1  0.48328257  0.35308474  0.17665540  1
  In  In41  1  0.80649749  0.50740533  0.66332112  1
  In  In42  1  0.19368010  0.67763316  0.51804953  1
  In  In43  1  0.00436221  0.67403597  0.33039647  1
  In  In44  1  0.01748129  -0.00622476  0.30752644  1
  In  In45  1  0.82501243  0.82969749  -0.01247856  1
  In  In46  1  0.83861351  0.32029705  0.81884170  1
  In  In47  1  0.84223671  0.51315369  -0.00108992  1
  In  In48  1  0.65450036  0.33626723  0.65691657  1
  In  In49  1  0.33224127  0.15530029  0.82827847  1
  In  In50  1  0.18804142  -0.02937600  0.14044366  1
  In  In51  1  0.82676483  -0.01249594  0.53776296  1
  In  In52  1  0.01799513  0.11821838  0.17818531  1
  In  In53  1  0.64974493  0.35504881  0.35254028  1
  In  In54  1  0.17110243  0.51422448  0.66553374  1
  In  In55  1  0.21595429  -0.04067183  0.82924204  1
  In  In56  1  0.48510392  0.33074233  0.81885489  1
  In  In57  1  0.80304123  0.70040547  0.81257230  1
  In  In58  1  0.02295220  0.50963929  0.85483283  1
  In  In59  1  0.01695264  0.82432324  0.15549200  1
  In  In60  1  0.80769995  -0.01029662  0.15629250  1
  In  In61  1  0.65957624  0.16622401  0.52290015  1
  In  In62  1  0.49246549  0.81872957  0.68552706  1
  In  In63  1  0.82374687  0.85691782  0.32888022  1
  In  In64  1  0.31855308  0.32330415  0.32727592  1
  In  In65  1  0.00175553  0.46812792  0.49614049  1
  In  In66  1  0.16253064  0.34421166  0.50982612  1
  In  In67  1  0.01618650  0.00869624  -0.02010031  1
  In  In68  1  0.86000162  0.15529725  -0.00900157  1
  In  In69  1  0.49902331  -0.00862552  0.49633818  1
  In  In70  1  0.50735647  0.15745674  -0.00361918  1
  In  In71  1  0.82861417  0.65624995  0.52826711  1
  Te  Te72  1  0.11408716  0.08816775  0.06612653  1
  Te  Te73  1  0.08332335  0.07374857  0.41971810  1
  Te  Te74  1  0.10532220  0.05268101  0.76533452  1
  Te  Te75  1  0.09314592  0.42727475  0.07804772  1
  Te  Te76  1  0.12033370  0.44500284  0.40125869  1
  Te  Te77  1  0.08085832  0.41805761  0.74452806  1
  Te  Te78  1  0.08940482  0.74426221  0.05533756  1
  Te  Te79  1  0.10191508  0.75336927  0.41531907  1
  Te  Te80  1  0.09760497  0.75197685  0.75131801  1
  Te  Te81  1  0.42386993  0.06301088  0.07381477  1
  Te  Te82  1  0.41602075  0.09511644  0.43230951  1
  Te  Te83  1  0.43057451  0.06206850  0.76766460  1
  Te  Te84  1  0.40397131  0.41328284  0.06410398  1
  Te  Te85  1  0.41488280  0.40863446  0.41237839  1
  Te  Te86  1  0.43110287  0.43116879  0.72560926  1
  Te  Te87  1  0.37337155  0.75550029  0.08174324  1
  Te  Te88  1  0.40628718  0.72455324  0.40828518  1
  Te  Te89  1  0.43349019  0.73083630  0.79573386  1
  Te  Te90  1  0.73437992  0.09480370  0.07305146  1
  Te  Te91  1  0.74857359  0.07225107  0.42800485  1
  Te  Te92  1  0.75245630  0.05730790  0.69663968  1
  Te  Te93  1  0.72557360  0.46249910  0.08747760  1
  Te  Te94  1  0.73017529  0.44200042  0.45082274  1
  Te  Te95  1  0.73255865  0.42042590  0.76694211  1
  Te  Te96  1  0.74597920  0.75227631  0.08311162  1
  Te  Te97  1  0.76255843  0.76064460  0.43127627  1
  Te  Te98  1  0.68272103  0.75200100  0.74327643  1
  Te  Te99  1  0.07611152  0.25526528  0.25075000  1
  Te  Te100  1  0.08928299  0.23384622  0.58581566  1
  Te  Te101  1  0.07461026  0.23431088  0.89063313  1
  Te  Te102  1  0.10071163  0.60224225  0.23774464  1
  Te  Te103  1  0.06610002  0.59041806  0.57468230  1
  Te  Te104  1  0.09416617  0.61345407  0.93317915  1
  Te  Te105  1  0.11573256  0.89138332  0.25052228  1
  Te  Te106  1  0.09426638  0.90403331  0.59748396  1
  Te  Te107  1  0.10366222  0.89835430  0.92844720  1
  Te  Te108  1  0.41712343  0.23746712  0.24949457  1
  Te  Te109  1  0.41144173  0.25180779  0.58873976  1
  Te  Te110  1  0.41079851  0.25053963  0.92291122  1
  Te  Te111  1  0.40059637  0.61790268  0.26388855  1
  Te  Te112  1  0.43454329  0.62424608  0.59461537  1
  Te  Te113  1  0.42402812  0.61814022  0.90771140  1
  Te  Te114  1  0.39698554  0.90384345  0.24272778  1
  Te  Te115  1  0.41537334  0.92895777  0.60767212  1
  Te  Te116  1  0.38048864  0.89271984  0.88437371  1
  Te  Te117  1  0.73807206  0.27114776  0.24626346  1
  Te  Te118  1  0.76396171  0.24411308  0.60223892  1
  Te  Te119  1  0.74556814  0.23598502  0.91620783  1
  Te  Te120  1  0.75328001  0.60981213  0.24447744  1
  Te  Te121  1  0.71631596  0.61651773  0.61813518  1
  Te  Te122  1  0.74476046  0.58863127  0.90309800  1
  Te  Te123  1  0.71471491  0.89406712  0.22790141  1
  Te  Te124  1  0.72788105  0.91610661  0.62465502  1
  Te  Te125  1  0.76406063  0.93213585  0.89988169  1
  Te  Te126  1  0.24813715  0.25039273  0.06116088  1
  Te  Te127  1  0.25334348  0.24211810  0.43869745  1
  Te  Te128  1  0.26517007  0.26499461  0.74040883  1
  Te  Te129  1  0.26167884  0.58855146  0.04996463  1
  Te  Te130  1  0.26401397  0.59981711  0.41491660  1
  Te  Te131  1  0.26618874  0.60356180  0.73901772  1
  Te  Te132  1  0.27764945  0.88372045  0.05768497  1
  Te  Te133  1  0.25220614  0.90134925  0.41808101  1
  Te  Te134  1  0.28342622  0.87016506  0.73146983  1
  Te  Te135  1  0.58246775  0.26418612  0.08893784  1
  Te  Te136  1  0.58236904  0.22990525  0.40745977  1
  Te  Te137  1  0.59763413  0.23976073  0.76419112  1
  Te  Te138  1  0.55232462  0.61375179  0.10327839  1
  Te  Te139  1  0.59313114  0.58057867  0.42072274  1
  Te  Te140  1  0.51667527  0.61526390  0.73273725  1
  Te  Te141  1  0.55606824  0.91315479  0.08070946  1
  Te  Te142  1  0.59388108  0.90554491  0.41175265  1
  Te  Te143  1  0.59696665  0.87824548  0.77745194  1
  Te  Te144  1  0.92353602  0.23743191  0.10258849  1
  Te  Te145  1  0.93786779  0.24175756  0.43081766  1
  Te  Te146  1  0.92605935  0.21215904  0.76867031  1
  Te  Te147  1  0.91932022  0.60276493  0.08529379  1
  Te  Te148  1  0.91835592  0.58031404  0.42028523  1
  Te  Te149  1  0.91235156  0.56734663  0.76180392  1
  Te  Te150  1  0.92734624  0.93076121  0.08482740  1
  Te  Te151  1  0.93570268  0.91452524  0.41718675  1
  Te  Te152  1  0.90460856  0.91145423  0.75183979  1
  Te  Te153  1  0.24600197  0.07655417  0.24528692  1
  Te  Te154  1  0.27628552  0.07702826  0.59550795  1
  Te  Te155  1  0.25987456  0.06590409  0.92091052  1
  Te  Te156  1  0.26130401  0.43477046  0.24273802  1
  Te  Te157  1  0.26632788  0.42998937  0.58208495  1
  Te  Te158  1  0.24462749  0.44597777  0.91011653  1
  Te  Te159  1  0.30244539  0.76083269  0.21990447  1
  Te  Te160  1  0.26777136  0.76892315  0.61221529  1
  Te  Te161  1  0.28004780  0.78274882  0.93608584  1
  Te  Te162  1  0.54354273  0.06207177  0.23737694  1
  Te  Te163  1  0.58461327  0.06223419  0.60288816  1
  Te  Te164  1  0.56756276  0.06071449  0.89221468  1
  Te  Te165  1  0.58818664  0.44045964  0.24273870  1
  Te  Te166  1  0.56135306  0.43320561  0.59687225  1
  Te  Te167  1  0.57665515  0.42198332  0.91400015  1
  Te  Te168  1  0.56055915  0.73552315  0.22357316  1
  Te  Te169  1  0.53486477  0.74069551  0.55712379  1
  Te  Te170  1  0.59113497  0.77258745  0.90420154  1
  Te  Te171  1  0.88677686  0.07757632  0.25999442  1
  Te  Te172  1  0.92362557  0.08784771  0.57958886  1
  Te  Te173  1  0.90391602  0.05402499  0.89294829  1
  Te  Te174  1  0.90631829  0.41291524  0.25546594  1
  Te  Te175  1  0.90317528  0.40599439  0.59571208  1
  Te  Te176  1  0.91923989  0.40104243  0.92564832  1
  Te  Te177  1  0.91143241  0.76056194  0.24636806  1
  Te  Te178  1  0.89510101  0.76669389  0.61122310  1
  Te  Te179  1  0.91469586  0.73479957  0.90912230  1
