# generated using pymatgen
data_In2Te3
_symmetry_space_group_name_H-M   'P 1'
_cell_length_a   18.81492261
_cell_length_b   18.81062680
_cell_length_c   18.81339928
_cell_angle_alpha   90.01121871
_cell_angle_beta   90.04426637
_cell_angle_gamma   90.00495331
_symmetry_Int_Tables_number   1
_chemical_formula_structural   In2Te3
_chemical_formula_sum   'In72 Te108'
_cell_volume   6658.44530742
_cell_formula_units_Z   36
loop_
 _symmetry_equiv_pos_site_id
 _symmetry_equiv_pos_as_xyz
  1  'x, y, z'
loop_
 _atom_site_type_symbol
 _atom_site_label
 _atom_site_symmetry_multiplicity
 _atom_site_fract_x
 _atom_site_fract_y
 _atom_site_fract_z
 _atom_site_occupancy
  In  In0  1  0.49821175  0.13506486  -0.01419543  1
  In  In1  1  0.48622357  0.33560209  0.49824242  1
  In  In2  1  0.84001773  0.68457226  0.14485430  1
  In  In3  1  -0.00716989  0.65309376  0.31170395  1
  In  In4  1  0.33866066  0.14531709  0.83305166  1
  In  In5  1  0.79188947  0.01728089  0.50782552  1
  In  In6  1  0.33084601  -0.01512343  0.33570384  1
  In  In7  1  0.00489935  0.81610871  0.51550749  1
  In  In8  1  0.18830551  0.51872722  0.67492897  1
  In  In9  1  0.16970413  0.37123226  0.50431085  1
  In  In10  1  0.02565274  0.79365572  0.11798028  1
  In  In11  1  0.16478868  0.03001244  0.52501584  1
  In  In12  1  0.02593510  0.67679531  0.69752701  1
  In  In13  1  -0.01140299  -0.01828483  0.32096463  1
  In  In14  1  -0.02001141  0.19035687  0.52097130  1
  In  In15  1  0.00520187  0.33967526  0.34056702  1
  In  In16  1  0.20323947  0.82837618  0.32772322  1
  In  In17  1  -0.03252704  -0.02054618  0.71604472  1
  In  In18  1  0.16644969  0.00576494  0.15691530  1
  In  In19  1  0.34792178  0.51864795  0.81933404  1
  In  In20  1  0.34032464  0.32680213  0.00522633  1
  In  In21  1  -0.01184532  0.17166843  0.14940679  1
  In  In22  1  0.66809671  0.35616874  -0.02022845  1
  In  In23  1  0.33247755  0.66628965  -0.03908562  1
  In  In24  1  0.33618695  0.34506030  0.34295730  1
  In  In25  1  0.49855615  0.52363525  0.67592410  1
  In  In26  1  0.83399245  0.48884662  -0.00054006  1
  In  In27  1  0.33459800  0.48688220  0.17015136  1
  In  In28  1  0.34045272  0.83553064  0.16635970  1
  In  In29  1  -0.00843997  -0.03113793  -0.07281886  1
  In  In30  1  0.16404333  0.32519337  0.83791381  1
  In  In31  1  0.17958235  0.83476218  0.68964733  1
  In  In32  1  0.67828052  0.13118786  0.52955404  1
  In  In33  1  0.52175879  0.68154230  0.14363222  1
  In  In34  1  -0.00774121  0.33084880  0.00827125  1
  In  In35  1  0.51813615  0.14460420  0.69626357  1
  In  In36  1  0.83583913  0.51115306  0.65066602  1
  In  In37  1  0.69274926  0.52464001  0.50716781  1
  In  In38  1  0.51193597  0.16214561  0.33038783  1
  In  In39  1  0.82840998  0.84657782  -0.03854940  1
  In  In40  1  0.18149818  0.17448712  0.00912522  1
  In  In41  1  0.15126703  0.52977191  -0.02591822  1
  In  In42  1  0.81091933  0.14983478  0.68903641  1
  In  In43  1  0.15995273  0.14126423  0.68626006  1
  In  In44  1  0.33987001  -0.00979766  -0.00513198  1
  In  In45  1  0.82858798  0.68676915  0.82638672  1
  In  In46  1  0.62992733  0.33201871  0.69010003  1
  In  In47  1  0.15426020  0.15980782  0.32615238  1
  In  In48  1  0.48417978  0.66599540  0.50823140  1
  In  In49  1  0.02220920  0.49482652  0.16457875  1
  In  In50  1  0.65186303  -0.01722508  0.70679146  1
  In  In51  1  0.66582492  0.68777031  0.30605931  1
  In  In52  1  0.34140102  0.16947266  0.51477355  1
  In  In53  1  0.36785088  0.85195246  0.53943501  1
  In  In54  1  0.83462692  0.33711559  0.49240050  1
  In  In55  1  0.33078811  0.67177649  0.34404535  1
  In  In56  1  0.82761732  0.01050596  0.12418466  1
  In  In57  1  0.83862843  0.32024704  0.84369336  1
  In  In58  1  0.49683553  0.34307582  0.15948616  1
  In  In59  1  0.83608662  0.66558175  0.52333907  1
  In  In60  1  -0.00272046  0.34220904  0.68480341  1
  In  In61  1  0.66304812  0.50126384  0.82719605  1
  In  In62  1  0.49876413  0.48310088  0.33923376  1
  In  In63  1  0.67574525  0.15980160  0.14708998  1
  In  In64  1  0.83753916  0.50933995  0.31879245  1
  In  In65  1  0.64649961  0.31261163  0.30432464  1
  In  In66  1  0.64938123  0.84521315  0.51967255  1
  In  In67  1  0.18466848  0.67728513  0.50713974  1
  In  In68  1  0.64911683  0.00021119  0.33377439  1
  In  In69  1  0.63801711  0.71099622  -0.02460757  1
  In  In70  1  0.35525762  0.83242625  0.82623590  1
  In  In71  1  0.80891984  0.85796308  0.33052100  1
  Te  Te72  1  0.06911025  0.07438929  0.06353861  1
  Te  Te73  1  0.06179730  0.07907368  0.41753344  1
  Te  Te74  1  0.07932891  0.05510294  0.77687671  1
  Te  Te75  1  0.10619105  0.41486080  0.06608096  1
  Te  Te76  1  0.08451267  0.44243524  0.40952039  1
  Te  Te77  1  0.08780669  0.43410123  0.76248793  1
  Te  Te78  1  0.11525317  0.70588668  0.03685836  1
  Te  Te79  1  0.08623716  0.75204677  0.40330487  1
  Te  Te80  1  0.06417251  0.79698939  0.78212145  1
  Te  Te81  1  0.40261346  0.08717543  0.08699013  1
  Te  Te82  1  0.41973642  0.07928360  0.42002059  1
  Te  Te83  1  0.43235073  0.04689171  0.76960094  1
  Te  Te84  1  0.43102605  0.43826229  0.06160934  1
  Te  Te85  1  0.39450002  0.44419555  0.44391534  1
  Te  Te86  1  0.43890456  0.41476926  0.75963502  1
  Te  Te87  1  0.41298683  0.75282102  0.06149461  1
  Te  Te88  1  0.41937388  0.77164799  0.41678679  1
  Te  Te89  1  0.44666244  0.75555828  0.73613224  1
  Te  Te90  1  0.71586019  0.06193259  0.03653368  1
  Te  Te91  1  0.74624866  0.10229566  0.39067375  1
  Te  Te92  1  0.76674355  0.04740075  0.79018495  1
  Te  Te93  1  0.75283524  0.40596264  0.08985508  1
  Te  Te94  1  0.74065904  0.41667637  0.40080800  1
  Te  Te95  1  0.76076498  0.40939935  0.73720638  1
  Te  Te96  1  0.74082954  0.77790057  0.08093086  1
  Te  Te97  1  0.75075712  0.74872047  0.42495536  1
  Te  Te98  1  0.74826021  0.80827438  0.79142940  1
  Te  Te99  1  0.08202369  0.25683676  0.23500700  1
  Te  Te100  1  0.09726244  0.25342530  0.59353193  1
  Te  Te101  1  0.07338989  0.23460984  0.91824639  1
  Te  Te102  1  0.10407620  0.59420145  0.23719611  1
  Te  Te103  1  0.08378050  0.59271546  0.58534037  1
  Te  Te104  1  0.05476175  0.63030757  0.91984265  1
  Te  Te105  1  0.09145083  0.90086627  0.24237413  1
  Te  Te106  1  0.08067913  0.92125154  0.59683602  1
  Te  Te107  1  0.10065675  0.87178306  0.91423390  1
  Te  Te108  1  0.41642859  0.25234389  0.25207960  1
  Te  Te109  1  0.43505848  0.24490551  0.60909974  1
  Te  Te110  1  0.42530915  0.24596751  0.90708228  1
  Te  Te111  1  0.42806604  0.58713888  0.25159931  1
  Te  Te112  1  0.39381818  0.58400602  0.59058461  1
  Te  Te113  1  0.44636232  0.59043240  0.90416275  1
  Te  Te114  1  0.42633312  0.93244384  0.23671800  1
  Te  Te115  1  0.44037606  0.95215293  0.62161304  1
  Te  Te116  1  0.44726965  0.90522115  0.93143417  1
  Te  Te117  1  0.75678762  0.25389083  0.22822696  1
  Te  Te118  1  0.75105438  0.25585206  0.59126659  1
  Te  Te119  1  0.72989603  0.24056091  0.90603589  1
  Te  Te120  1  0.74917170  0.58995004  0.22388017  1
  Te  Te121  1  0.72930227  0.61842339  0.62246123  1
  Te  Te122  1  0.74807142  0.58925165  0.92083539  1
  Te  Te123  1  0.73530179  0.93310183  0.22445740  1
  Te  Te124  1  0.75263557  0.91124145  0.60944816  1
  Te  Te125  1  0.70580851  0.92522640  0.92334801  1
  Te  Te126  1  0.25451809  0.25918927  0.10409553  1
  Te  Te127  1  0.24033460  0.24261537  0.42367726  1
  Te  Te128  1  0.25648287  0.24450595  0.74848157  1
  Te  Te129  1  0.26253745  0.57738149  0.06698387  1
  Te  Te130  1  0.24179811  0.57834049  0.41440446  1
  Te  Te131  1  0.23980235  0.61241558  0.77703766  1
  Te  Te132  1  0.23938329  0.90291818  0.07315159  1
  Te  Te133  1  0.24357263  0.91521262  0.44894041  1
  Te  Te134  1  0.27008273  0.93159344  0.75426664  1
  Te  Te135  1  0.57595194  0.25007669  0.06939895  1
  Te  Te136  1  0.59110663  0.24354612  0.43611513  1
  Te  Te137  1  0.61981679  0.21436189  0.78149391  1
  Te  Te138  1  0.59951475  0.59244600  0.05591499  1
  Te  Te139  1  0.59072631  0.59308971  0.41041163  1
  Te  Te140  1  0.58326711  0.60908558  0.76342789  1
  Te  Te141  1  0.58773456  0.81749979  0.08684118  1
  Te  Te142  1  0.56735849  0.90868413  0.41510342  1
  Te  Te143  1  0.55658967  0.86486794  0.74078628  1
  Te  Te144  1  0.89219378  0.23419070  0.05640205  1
  Te  Te145  1  0.90457241  0.23853097  0.39888746  1
  Te  Te146  1  0.92582508  0.22896419  0.75664126  1
  Te  Te147  1  0.92823578  0.58009537  0.07847458  1
  Te  Te148  1  0.91919379  0.58178834  0.42627105  1
  Te  Te149  1  0.91928227  0.58271225  0.75650059  1
  Te  Te150  1  0.92866074  0.90852493  0.07358049  1
  Te  Te151  1  0.90810839  0.91492311  0.43514853  1
  Te  Te152  1  0.88810789  0.87561572  0.79203036  1
  Te  Te153  1  0.26009907  0.08730060  0.24504319  1
  Te  Te154  1  0.27936564  0.07198938  0.61462458  1
  Te  Te155  1  0.23531592  0.06854582  0.91374329  1
  Te  Te156  1  0.24018327  0.41636133  0.25760930  1
  Te  Te157  1  0.26502526  0.41183560  0.60681528  1
  Te  Te158  1  0.25685516  0.42003467  0.91323002  1
  Te  Te159  1  0.24937463  0.72659585  0.22544506  1
  Te  Te160  1  0.27480039  0.74947991  0.60598323  1
  Te  Te161  1  0.23975670  0.77183984  0.90476765  1
  Te  Te162  1  0.57246954  0.07438191  0.22206055  1
  Te  Te163  1  0.56490090  0.04184045  0.58214955  1
  Te  Te164  1  0.58909401  0.03087429  0.92784368  1
  Te  Te165  1  0.59530060  0.43632356  0.23075693  1
  Te  Te166  1  0.59162575  0.42780948  0.57144386  1
  Te  Te167  1  0.56277370  0.40976959  0.88870711  1
  Te  Te168  1  0.57056625  0.78399364  0.24515887  1
  Te  Te169  1  0.56495609  0.75188544  0.60266478  1
  Te  Te170  1  0.55443440  0.79876793  0.88502874  1
  Te  Te171  1  0.90531462  0.07839498  0.24059227  1
  Te  Te172  1  0.91757463  0.07422205  0.59681316  1
  Te  Te173  1  0.89237276  0.06500370  0.88328930  1
  Te  Te174  1  0.91676819  0.40960061  0.23544999  1
  Te  Te175  1  0.93337413  0.42251881  0.57143272  1
  Te  Te176  1  0.93254757  0.42492094  0.90248491  1
  Te  Te177  1  0.91042677  0.76914407  0.25181608  1
  Te  Te178  1  0.91333348  0.75427254  0.61914739  1
  Te  Te179  1  0.91998221  0.72721841  0.93957994  1
