# generated using pymatgen
data_In2Te3
_symmetry_space_group_name_H-M   'P 1'
_cell_length_a   18.77233533
_cell_length_b   18.76403227
_cell_length_c   18.76343562
_cell_angle_alpha   90.02111123
_cell_angle_beta   90.04029500
_cell_angle_gamma   90.06332869
_symmetry_Int_Tables_number   1
_chemical_formula_structural   In2Te3
_chemical_formula_sum   'In72 Te108'
_cell_volume   6609.31473937
_cell_formula_units_Z   36
loop_
 _symmetry_equiv_pos_site_id
 _symmetry_equiv_pos_as_xyz
  1  'x, y, z'
loop_
 _atom_site_type_symbol
 _atom_site_label
 _atom_site_symmetry_multiplicity
 _atom_site_fract_x
 _atom_site_fract_y
 _atom_site_fract_z
 _atom_site_occupancy
  In  In0  1  0.83106833  -0.01417333  0.48893546  1
  In  In1  1  0.31070970  0.85837022  0.17340948  1
  In  In2  1  0.01104596  0.34247678  -0.03502217  1
  In  In3  1  0.67621268  0.00759739  -0.01884497  1
  In  In4  1  0.50821030  0.33041464  0.81032113  1
  In  In5  1  0.67663705  0.84876641  0.15862935  1
  In  In6  1  0.30340870  0.00375057  0.68163962  1
  In  In7  1  0.02788707  0.02077081  0.68896927  1
  In  In8  1  0.85123145  0.66091067  0.15732420  1
  In  In9  1  0.83979109  0.33522113  0.17204039  1
  In  In10  1  0.15343419  0.64716684  0.53916631  1
  In  In11  1  0.68192988  0.65791474  0.36622224  1
  In  In12  1  0.01668109  0.16836097  0.14810656  1
  In  In13  1  0.82561972  0.50800851  0.34525363  1
  In  In14  1  0.20274401  0.13326726  0.31715453  1
  In  In15  1  0.66961539  0.18083839  0.15989165  1
  In  In16  1  0.66501265  0.84127637  0.49688139  1
  In  In17  1  0.30557943  0.63042780  0.69109880  1
  In  In18  1  -0.00064865  0.34919528  0.32879198  1
  In  In19  1  0.32453252  0.85086467  0.82971061  1
  In  In20  1  0.82259608  0.15788982  0.67169234  1
  In  In21  1  0.48708562  0.66031005  0.84151273  1
  In  In22  1  0.83903269  0.51216671  0.00025826  1
  In  In23  1  0.00543737  0.17715537  0.49207026  1
  In  In24  1  0.50868016  0.66031738  0.17094649  1
  In  In25  1  0.16067030  0.85142436  0.32618907  1
  In  In26  1  -0.00847021  0.33885674  0.68328599  1
  In  In27  1  0.15865001  0.82295993  -0.01574289  1
  In  In28  1  0.51151570  0.84142108  0.65835500  1
  In  In29  1  0.32263748  0.16002081  0.84324595  1
  In  In30  1  0.00436764  0.67396871  0.33205166  1
  In  In31  1  0.16820631  0.17811347  -0.00496542  1
  In  In32  1  -0.00789820  0.50822199  0.82590778  1
  In  In33  1  0.16555110  0.33516976  0.14625283  1
  In  In34  1  0.50606325  0.15890578  0.01248139  1
  In  In35  1  0.66929093  0.65510804  -0.01366877  1
  In  In36  1  0.50899937  0.86256947  0.32762528  1
  In  In37  1  0.83882319  0.02139191  0.83168538  1
  In  In38  1  0.52024037  0.32595846  0.50994600  1
  In  In39  1  0.87826988  0.81765267  -0.03129192  1
  In  In40  1  0.68504957  0.68166397  0.67021353  1
  In  In41  1  0.48173892  0.81431737  -0.02540557  1
  In  In42  1  0.16697801  0.32259421  0.85863605  1
  In  In43  1  0.33503132  0.69499955  0.32202417  1
  In  In44  1  0.69182882  0.47808131  0.81918114  1
  In  In45  1  0.33941839  0.47988249  0.49273292  1
  In  In46  1  0.65913716  0.50916917  0.51399861  1
  In  In47  1  0.32579226  0.66326850  -0.00855615  1
  In  In48  1  0.63553414  0.47247648  0.19178942  1
  In  In49  1  0.15785411  0.51463762  0.33938666  1
  In  In50  1  0.50549348  -0.00941198  0.83638720  1
  In  In51  1  0.33356664  0.49685514  0.15831577  1
  In  In52  1  0.34455849  0.30836304  0.33218930  1
  In  In53  1  0.47532040  0.16144869  0.35498315  1
  In  In54  1  0.16718373  0.32582618  0.50698152  1
  In  In55  1  0.15495253  0.01371573  0.51873888  1
  In  In56  1  0.82567190  0.66325566  0.52143137  1
  In  In57  1  0.15328653  0.50120437  -0.01003168  1
  In  In58  1  0.53444719  0.16360780  0.65053987  1
  In  In59  1  0.69486436  0.30871509  -0.03094803  1
  In  In60  1  0.01223954  0.84118898  0.15588842  1
  In  In61  1  0.66798073  0.00392723  0.34722815  1
  In  In62  1  0.32079752  0.81307671  0.52108188  1
  In  In63  1  0.31415510  0.33681471  0.01016341  1
  In  In64  1  0.83837120  -0.01282583  0.15378278  1
  In  In65  1  0.47679606  -0.00201938  0.15707463  1
  In  In66  1  0.49978978  0.50265163  0.64589748  1
  In  In67  1  -0.01322345  0.84671767  0.50312652  1
  In  In68  1  0.81533372  0.15767137  0.31734993  1
  In  In69  1  0.82494574  0.34563487  0.53296982  1
  In  In70  1  0.84490917  0.83278565  0.66643618  1
  In  In71  1  0.34496606  0.33992344  0.65745901  1
  Te  Te72  1  0.08807318  0.07231095  0.06250200  1
  Te  Te73  1  0.08311035  0.08146818  0.40122668  1
  Te  Te74  1  0.10301732  0.09542773  0.79341028  1
  Te  Te75  1  0.06145036  0.42551420  0.08654761  1
  Te  Te76  1  0.07633670  0.42784021  0.43583895  1
  Te  Te77  1  0.10039658  0.41959162  0.75720214  1
  Te  Te78  1  0.07469699  0.73590957  0.07205297  1
  Te  Te79  1  0.09570350  0.74981188  0.43179835  1
  Te  Te80  1  0.04925660  0.78046566  0.80329452  1
  Te  Te81  1  0.39400008  0.07768393  0.06372993  1
  Te  Te82  1  0.39433082  0.05166629  0.40715324  1
  Te  Te83  1  0.42291762  0.08894597  0.74940228  1
  Te  Te84  1  0.42159215  0.40425503  0.08618369  1
  Te  Te85  1  0.44476075  0.41397800  0.40232856  1
  Te  Te86  1  0.41370901  0.43680434  0.75391332  1
  Te  Te87  1  0.41276259  0.75860110  0.10130075  1
  Te  Te88  1  0.42916543  0.76674398  0.41849876  1
  Te  Te89  1  0.41382787  0.75401622  0.74498256  1
  Te  Te90  1  0.76231318  0.09495105  0.07385592  1
  Te  Te91  1  0.74300044  0.10161717  0.43975090  1
  Te  Te92  1  0.72940591  0.06467000  0.74134319  1
  Te  Te93  1  0.74627595  0.41764688  0.08056570  1
  Te  Te94  1  0.73632784  0.41425808  0.42220451  1
  Te  Te95  1  0.74072443  0.39753682  0.70632572  1
  Te  Te96  1  0.75923365  0.75580071  0.06902915  1
  Te  Te97  1  0.77422950  0.76640712  0.41980109  1
  Te  Te98  1  0.77038677  0.75279563  0.76710998  1
  Te  Te99  1  0.09496113  0.25011851  0.26121399  1
  Te  Te100  1  0.08447683  0.24170311  0.60523561  1
  Te  Te101  1  0.05513305  0.21547282  0.88558142  1
  Te  Te102  1  0.07656966  0.58458098  0.23934944  1
  Te  Te103  1  0.05984106  0.58436269  0.63409454  1
  Te  Te104  1  0.08500515  0.60156962  0.90135136  1
  Te  Te105  1  0.08748237  0.94251820  0.23641398  1
  Te  Te106  1  0.08613689  0.90590424  0.60261151  1
  Te  Te107  1  0.07154511  0.90102546  0.88885816  1
  Te  Te108  1  0.42389267  0.23188348  0.23474866  1
  Te  Te109  1  0.41580079  0.23511698  0.57386619  1
  Te  Te110  1  0.41648911  0.25892351  0.91654238  1
  Te  Te111  1  0.41539034  0.57946978  0.26041547  1
  Te  Te112  1  0.40070615  0.59633180  0.57693904  1
  Te  Te113  1  0.42613951  0.56867251  0.93947399  1
  Te  Te114  1  0.38658511  0.95478884  0.28532614  1
  Te  Te115  1  0.40085958  0.92313660  0.59224433  1
  Te  Te116  1  0.39873742  0.93605930  0.93295793  1
  Te  Te117  1  0.73305909  0.27451626  0.26277878  1
  Te  Te118  1  0.73916196  0.23396740  0.57420626  1
  Te  Te119  1  0.79187485  0.22811027  0.89103946  1
  Te  Te120  1  0.73945866  0.58723470  0.23457904  1
  Te  Te121  1  0.76400304  0.55980532  0.61623732  1
  Te  Te122  1  0.76788578  0.59194384  0.88871890  1
  Te  Te123  1  0.76272479  0.91437490  0.26612541  1
  Te  Te124  1  0.74258688  0.92558163  0.59873208  1
  Te  Te125  1  0.76495956  0.90710810  0.91174136  1
  Te  Te126  1  0.26348970  0.22759939  0.10505357  1
  Te  Te127  1  0.25527066  0.22916200  0.42784514  1
  Te  Te128  1  0.25233432  0.25592095  0.74768035  1
  Te  Te129  1  0.23419165  0.58838009  0.08850239  1
  Te  Te130  1  0.25682967  0.59831084  0.42325120  1
  Te  Te131  1  0.22695121  0.54593811  0.78003909  1
  Te  Te132  1  0.22755360  0.92592617  0.07253782  1
  Te  Te133  1  0.24331021  0.91583543  0.43743067  1
  Te  Te134  1  0.21033610  0.91854119  0.76153018  1
  Te  Te135  1  0.58408405  0.27353819  0.07575623  1
  Te  Te136  1  0.58835314  0.23774083  0.41232258  1
  Te  Te137  1  0.60952084  0.23898484  0.75443885  1
  Te  Te138  1  0.58304676  0.56786024  0.07583457  1
  Te  Te139  1  0.56855231  0.58694035  0.42607255  1
  Te  Te140  1  0.58472609  0.58357563  0.74857037  1
  Te  Te141  1  0.57557931  0.91375894  0.06428934  1
  Te  Te142  1  0.56231286  0.95181968  0.45013801  1
  Te  Te143  1  0.59939657  0.91237128  0.75360917  1
  Te  Te144  1  0.92452240  0.26210886  0.07070410  1
  Te  Te145  1  0.90491671  0.25669521  0.40650585  1
  Te  Te146  1  0.89808039  0.25125426  0.76299146  1
  Te  Te147  1  0.94448791  0.59839692  0.06164924  1
  Te  Te148  1  0.92370411  0.58643796  0.43028718  1
  Te  Te149  1  0.92915706  0.58770040  0.71802190  1
  Te  Te150  1  0.93782201  0.93004603  0.05302783  1
  Te  Te151  1  0.93337900  0.93297310  0.39668577  1
  Te  Te152  1  0.93502856  0.91974986  0.75797330  1
  Te  Te153  1  0.26035512  0.03502823  0.22321562  1
  Te  Te154  1  0.23789237  0.10676037  0.59829778  1
  Te  Te155  1  0.22042505  0.06723831  0.90193075  1
  Te  Te156  1  0.24532871  0.41150488  0.26208416  1
  Te  Te157  1  0.23767092  0.43139417  0.59377091  1
  Te  Te158  1  0.26428285  0.43808804  0.90470341  1
  Te  Te159  1  0.22360395  0.74606046  0.23288719  1
  Te  Te160  1  0.22953893  0.74795604  0.62738117  1
  Te  Te161  1  0.24497246  0.73283012  0.88573344  1
  Te  Te162  1  0.59001013  0.07077159  0.23191145  1
  Te  Te163  1  0.58469456  0.05712568  0.56589079  1
  Te  Te164  1  0.59184985  0.10478829  0.89976914  1
  Te  Te165  1  0.55172284  0.40167551  0.28569505  1
  Te  Te166  1  0.60848053  0.39558380  0.61867668  1
  Te  Te167  1  0.59308571  0.41105294  0.91318688  1
  Te  Te168  1  0.59714133  0.75668845  0.25486610  1
  Te  Te169  1  0.58208981  0.73602680  0.57075326  1
  Te  Te170  1  0.59705397  0.75561745  0.89574010  1
  Te  Te171  1  0.92192187  0.08519161  0.23956478  1
  Te  Te172  1  0.92702440  0.07536900  0.57925795  1
  Te  Te173  1  0.88941905  0.11392879  0.93447702  1
  Te  Te174  1  0.91978757  0.44638394  0.24126059  1
  Te  Te175  1  0.93672883  0.42924872  0.57828770  1
  Te  Te176  1  0.89358426  0.41293144  0.89690230  1
  Te  Te177  1  0.91328360  0.76465388  0.24941485  1
  Te  Te178  1  0.94006825  0.73389070  0.59696053  1
  Te  Te179  1  0.95335303  0.70908541  0.89666624  1
