# generated using pymatgen
data_In2Te3
_symmetry_space_group_name_H-M   'P 1'
_cell_length_a   18.77259573
_cell_length_b   18.76505851
_cell_length_c   18.76819774
_cell_angle_alpha   89.92357797
_cell_angle_beta   90.00853083
_cell_angle_gamma   89.95182253
_symmetry_Int_Tables_number   1
_chemical_formula_structural   In2Te3
_chemical_formula_sum   'In72 Te108'
_cell_volume   6611.44327447
_cell_formula_units_Z   36
loop_
 _symmetry_equiv_pos_site_id
 _symmetry_equiv_pos_as_xyz
  1  'x, y, z'
loop_
 _atom_site_type_symbol
 _atom_site_label
 _atom_site_symmetry_multiplicity
 _atom_site_fract_x
 _atom_site_fract_y
 _atom_site_fract_z
 _atom_site_occupancy
  In  In0  1  0.17070814  0.35420059  0.83098462  1
  In  In1  1  0.33387109  0.19566274  0.83781278  1
  In  In2  1  0.36446608  0.02856456  0.32768721  1
  In  In3  1  0.11770525  -0.00603461  0.83745904  1
  In  In4  1  0.32692980  0.66845815  0.34037367  1
  In  In5  1  0.16566336  0.67828010  0.82413203  1
  In  In6  1  0.81733429  0.83816669  0.34801711  1
  In  In7  1  0.53389769  0.00269898  0.83401792  1
  In  In8  1  0.16752153  0.83034818  0.34895029  1
  In  In9  1  0.14692045  0.18692635  0.34134201  1
  In  In10  1  0.51044405  0.34212974  0.83738453  1
  In  In11  1  0.35582868  0.47508407  0.14019297  1
  In  In12  1  0.49068468  0.67170755  0.15558943  1
  In  In13  1  0.64695405  0.50350264  0.50650971  1
  In  In14  1  0.36017706  -0.00068925  -0.02161126  1
  In  In15  1  0.50245201  0.16412749  0.66239997  1
  In  In16  1  0.34315163  0.49574661  0.82664365  1
  In  In17  1  0.84391028  0.66911812  0.49440722  1
  In  In18  1  -0.01658929  -0.01309348  0.33008923  1
  In  In19  1  0.12153361  0.45148613  0.34918769  1
  In  In20  1  0.83225361  0.84201557  -0.01429926  1
  In  In21  1  0.66061109  0.85182061  0.15945529  1
  In  In22  1  0.83195952  0.63911287  0.16069938  1
  In  In23  1  0.16635625  -0.00969193  0.51232894  1
  In  In24  1  -0.00325656  0.66936719  0.67220028  1
  In  In25  1  -0.01254811  0.32994870  0.00080834  1
  In  In26  1  0.33604320  0.15281744  0.49302430  1
  In  In27  1  0.15307156  0.67220287  0.49955936  1
  In  In28  1  0.82301983  0.47023639  0.67191079  1
  In  In29  1  0.66358507  0.68050083  0.69406930  1
  In  In30  1  0.65364648  0.16392939  0.15427383  1
  In  In31  1  0.65714629  0.33334893  0.32183792  1
  In  In32  1  -0.02404294  0.15633584  0.55444163  1
  In  In33  1  0.51495265  0.00100536  0.16156055  1
  In  In34  1  0.32764975  -0.00673664  0.66376006  1
  In  In35  1  0.83545504  -0.00617339  0.83359575  1
  In  In36  1  0.83252450  0.15814587  0.34112674  1
  In  In37  1  0.81488848  0.35485843  0.12693304  1
  In  In38  1  0.84218863  0.50134749  0.33297698  1
  In  In39  1  0.11347670  0.66512699  0.13960813  1
  In  In40  1  0.01706993  0.83479571  0.52862792  1
  In  In41  1  0.16475570  0.16162510  0.00409249  1
  In  In42  1  0.17007663  0.31711186  0.18055416  1
  In  In43  1  0.35226401  0.83501509  0.52718718  1
  In  In44  1  0.83291604  0.31458823  0.51299154  1
  In  In45  1  0.50717026  0.48681269  0.00151939  1
  In  In46  1  0.32518099  0.83307438  0.14984607  1
  In  In47  1  0.34551094  0.17072742  0.17064305  1
  In  In48  1  0.52093858  0.49710865  0.67348595  1
  In  In49  1  -0.00747246  0.49699307  0.17514999  1
  In  In50  1  -0.04308228  0.15999270  0.79499948  1
  In  In51  1  0.67610105  0.66191296  -0.03329685  1
  In  In52  1  0.14464358  0.47831234  0.68291168  1
  In  In53  1  0.34627197  0.32014398  0.31814658  1
  In  In54  1  0.53777980  0.87033658  0.35773561  1
  In  In55  1  0.15001681  0.01263269  0.14420859  1
  In  In56  1  0.52469280  0.68790810  0.52475549  1
  In  In57  1  0.50889503  0.34177676  0.51013874  1
  In  In58  1  -0.01898467  0.81052402  0.14814726  1
  In  In59  1  0.37741631  0.69018341  0.70422139  1
  In  In60  1  0.18165754  0.50223304  -0.01437908  1
  In  In61  1  0.15414538  0.83646527  0.66715653  1
  In  In62  1  0.52480548  0.46705922  0.31141445  1
  In  In63  1  0.69371068  0.16695982  0.84154981  1
  In  In64  1  0.69215877  0.66549091  0.32458943  1
  In  In65  1  0.31327042  0.48797880  0.52826707  1
  In  In66  1  -0.01244250  0.48517889  0.83748141  1
  In  In67  1  0.81484047  0.00215550  0.14813808  1
  In  In68  1  0.67284976  0.84441147  0.83089255  1
  In  In69  1  0.33918290  0.67397334  -0.01557172  1
  In  In70  1  -0.02842031  0.69277528  0.00372689  1
  In  In71  1  0.68058914  0.16834839  0.51814192  1
  Te  Te72  1  0.05236236  0.10019235  0.07840298  1
  Te  Te73  1  0.07610421  0.07231111  0.41959948  1
  Te  Te74  1  0.08989481  0.11079229  0.75147945  1
  Te  Te75  1  0.09430113  0.41981373  0.08157757  1
  Te  Te76  1  0.06028495  0.37905161  0.46056180  1
  Te  Te77  1  0.04444339  0.37993368  0.74127240  1
  Te  Te78  1  0.09617559  0.78357022  0.03637780  1
  Te  Te79  1  0.05543851  0.74605541  0.40844209  1
  Te  Te80  1  0.05809855  0.77193362  0.76733375  1
  Te  Te81  1  0.43382687  0.09548466  0.07138109  1
  Te  Te82  1  0.44855133  0.07459199  0.43807266  1
  Te  Te83  1  0.41380313  0.08243785  0.75977590  1
  Te  Te84  1  0.44233781  0.37126247  0.07830109  1
  Te  Te85  1  0.41553740  0.42753770  0.42124768  1
  Te  Te86  1  0.41398865  0.40373160  0.72981374  1
  Te  Te87  1  0.43200995  0.77355134  0.05884612  1
  Te  Te88  1  0.42591862  0.75766745  0.41668587  1
  Te  Te89  1  0.45912245  0.78169473  0.78351802  1
  Te  Te90  1  0.74434273  0.09593292  0.05820978  1
  Te  Te91  1  0.75719307  0.06517357  0.43213154  1
  Te  Te92  1  0.75425030  0.07837476  0.73422953  1
  Te  Te93  1  0.73512940  0.44182441  0.03158014  1
  Te  Te94  1  0.74286986  0.41457128  0.42278084  1
  Te  Te95  1  0.76751753  0.37458686  0.77475325  1
  Te  Te96  1  0.75181802  0.75039194  0.08740053  1
  Te  Te97  1  0.72702420  0.75521899  0.44173463  1
  Te  Te98  1  0.77317260  0.75203410  0.76774397  1
  Te  Te99  1  0.05609098  0.24805479  0.24257085  1
  Te  Te100  1  0.07650546  0.26392144  0.56464713  1
  Te  Te101  1  0.08395200  0.25338371  0.91065155  1
  Te  Te102  1  0.08268889  0.57991444  0.26375587  1
  Te  Te103  1  0.07340308  0.57252025  0.58268458  1
  Te  Te104  1  0.07834493  0.58916770  0.91448489  1
  Te  Te105  1  0.08171508  0.90565644  0.24160280  1
  Te  Te106  1  0.06232995  0.95221284  0.61973245  1
  Te  Te107  1  0.06081051  0.90116394  0.93377539  1
  Te  Te108  1  0.44683049  0.23001517  0.26094955  1
  Te  Te109  1  0.40760652  0.25559608  0.58419705  1
  Te  Te110  1  0.44326065  0.24179685  0.92502032  1
  Te  Te111  1  0.41546071  0.57666306  0.24967600  1
  Te  Te112  1  0.42355122  0.58868873  0.58454886  1
  Te  Te113  1  0.43610005  0.58561184  0.90561212  1
  Te  Te114  1  0.41546785  0.90534139  0.25118500  1
  Te  Te115  1  0.44192532  0.92796571  0.59547727  1
  Te  Te116  1  0.42653292  0.90397848  0.88223698  1
  Te  Te117  1  0.76197895  0.25270563  0.24463127  1
  Te  Te118  1  0.77130698  0.23040392  0.62393120  1
  Te  Te119  1  0.76873827  0.27978692  0.90594405  1
  Te  Te120  1  0.73321543  0.54885270  0.23567505  1
  Te  Te121  1  0.74461643  0.58829647  0.58662091  1
  Te  Te122  1  0.77746987  0.55927919  0.93866569  1
  Te  Te123  1  0.73606930  0.93535315  0.26238956  1
  Te  Te124  1  0.75872140  0.94931670  0.53760375  1
  Te  Te125  1  0.72991564  0.94169303  0.93487235  1
  Te  Te126  1  0.26171427  0.25615287  0.07576194  1
  Te  Te127  1  0.25147673  0.26131994  0.42255885  1
  Te  Te128  1  0.24008885  0.25754476  0.74197033  1
  Te  Te129  1  0.25560184  0.59064468  0.08604655  1
  Te  Te130  1  0.23637478  0.57113623  0.41865902  1
  Te  Te131  1  0.25134647  0.58106977  0.73893241  1
  Te  Te132  1  0.24871953  0.92976253  0.06091438  1
  Te  Te133  1  0.26697305  0.92192089  0.41970808  1
  Te  Te134  1  0.24021664  0.91708483  0.76166898  1
  Te  Te135  1  0.58606355  0.28042981  0.09121089  1
  Te  Te136  1  0.58228318  0.24410352  0.41935511  1
  Te  Te137  1  0.59291525  0.24671318  0.75086365  1
  Te  Te138  1  0.59145136  0.59000565  0.07972213  1
  Te  Te139  1  0.57391735  0.59070152  0.40419968  1
  Te  Te140  1  0.60447990  0.56870171  0.77072465  1
  Te  Te141  1  0.57739171  0.91673017  0.05714764  1
  Te  Te142  1  0.62511160  0.93017761  0.45988599  1
  Te  Te143  1  0.61224279  0.93376093  0.72670747  1
  Te  Te144  1  0.89439172  0.24161084  0.07581995  1
  Te  Te145  1  0.93084486  0.23602182  0.42507029  1
  Te  Te146  1  0.88361615  0.27132752  0.72783869  1
  Te  Te147  1  0.91493175  0.55923235  0.05879009  1
  Te  Te148  1  0.93295536  0.57858476  0.41904875  1
  Te  Te149  1  0.90188831  0.57642295  0.75005547  1
  Te  Te150  1  0.92596542  0.93008210  0.06815564  1
  Te  Te151  1  0.91156221  0.91487588  0.44286133  1
  Te  Te152  1  0.92022488  0.94696192  0.71783948  1
  Te  Te153  1  0.24042775  0.08490922  0.25325639  1
  Te  Te154  1  0.23695125  0.09693030  0.59557057  1
  Te  Te155  1  0.24732586  0.07796869  0.90622691  1
  Te  Te156  1  0.24936871  0.42657497  0.25166096  1
  Te  Te157  1  0.22880551  0.38888838  0.59653091  1
  Te  Te158  1  0.28113540  0.40233031  0.92950010  1
  Te  Te159  1  0.23652106  0.74310344  0.23703297  1
  Te  Te160  1  0.25363448  0.73788839  0.59424817  1
  Te  Te161  1  0.26001205  0.76377285  0.89814837  1
  Te  Te162  1  0.59024855  0.08084905  0.26016137  1
  Te  Te163  1  0.59479370  0.07019011  0.59285281  1
  Te  Te164  1  0.58624128  0.10631984  0.92614241  1
  Te  Te165  1  0.59369383  0.39565321  0.19760967  1
  Te  Te166  1  0.61456290  0.39322769  0.60757598  1
  Te  Te167  1  0.61271171  0.41663568  0.91972637  1
  Te  Te168  1  0.58044053  0.75214338  0.25268042  1
  Te  Te169  1  0.58638315  0.78406620  0.61718047  1
  Te  Te170  1  0.57539894  0.74921360  0.89829704  1
  Te  Te171  1  0.91397971  0.08283841  0.23628536  1
  Te  Te172  1  0.87610645  0.05863423  0.62538919  1
  Te  Te173  1  0.91056564  0.09190580  0.91666722  1
  Te  Te174  1  0.91283281  0.39473782  0.25083394  1
  Te  Te175  1  0.91540608  0.42929269  0.56214067  1
  Te  Te176  1  0.88809859  0.38749208  0.89976145  1
  Te  Te177  1  0.89867216  0.73936535  0.25660068  1
  Te  Te178  1  0.90021774  0.76455984  0.59972809  1
  Te  Te179  1  0.89286740  0.74651540  0.88803037  1
