# generated using pymatgen
data_In2Te3
_symmetry_space_group_name_H-M   'P 1'
_cell_length_a   18.76599035
_cell_length_b   18.75955349
_cell_length_c   18.76446886
_cell_angle_alpha   90.04733639
_cell_angle_beta   89.89032667
_cell_angle_gamma   89.96680270
_symmetry_Int_Tables_number   1
_chemical_formula_structural   In2Te3
_chemical_formula_sum   'In72 Te108'
_cell_volume   6605.85816564
_cell_formula_units_Z   36
loop_
 _symmetry_equiv_pos_site_id
 _symmetry_equiv_pos_as_xyz
  1  'x, y, z'
loop_
 _atom_site_type_symbol
 _atom_site_label
 _atom_site_symmetry_multiplicity
 _atom_site_fract_x
 _atom_site_fract_y
 _atom_site_fract_z
 _atom_site_occupancy
  In  In0  1  0.82427235  0.83740744  0.64602738  1
  In  In1  1  0.38768488  0.33734605  0.64294518  1
  In  In2  1  0.66909602  0.65095111  0.64917982  1
  In  In3  1  0.17144598  -0.00021437  0.84762033  1
  In  In4  1  0.82307661  -0.00504779  0.18243760  1
  In  In5  1  0.00143327  0.13890860  0.18630386  1
  In  In6  1  0.84233406  0.32577308  0.83806271  1
  In  In7  1  0.32638395  0.47108273  0.47980887  1
  In  In8  1  0.31401719  0.33602475  0.01100594  1
  In  In9  1  0.68040032  0.87056883  0.83425035  1
  In  In10  1  0.17582663  0.15964112  0.64053812  1
  In  In11  1  0.62248353  0.32595420  0.60003009  1
  In  In12  1  0.50967486  0.65898414  0.48762794  1
  In  In13  1  0.80161066  0.48774383  0.63780000  1
  In  In14  1  0.67275909  0.84005378  0.18718556  1
  In  In15  1  0.35093968  0.66419227  0.65806608  1
  In  In16  1  0.46948005  0.29020028  0.21758427  1
  In  In17  1  0.00751838  0.52031573  0.83032681  1
  In  In18  1  0.67751438  0.50073796  0.82488362  1
  In  In19  1  0.49728824  -0.01356190  0.17556816  1
  In  In20  1  -0.00905432  0.66558809  0.33058543  1
  In  In21  1  0.82273045  0.32972678  0.49806821  1
  In  In22  1  0.49764792  0.33504642  0.78618451  1
  In  In23  1  0.85437623  0.67935258  0.83191408  1
  In  In24  1  0.19858339  0.16751135  0.35042158  1
  In  In25  1  0.35338815  0.02364255  0.62952764  1
  In  In26  1  -0.01199703  0.13940787  0.86938869  1
  In  In27  1  0.32412019  -0.01076659  0.02027359  1
  In  In28  1  0.15473344  0.85769251  0.02556499  1
  In  In29  1  0.51117170  0.83213536  0.32537431  1
  In  In30  1  -0.00915786  0.68010028  0.64046742  1
  In  In31  1  0.33779265  0.15435706  0.82875508  1
  In  In32  1  0.13473521  0.18478809  0.03693194  1
  In  In33  1  -0.02131564  0.00985516  0.65554981  1
  In  In34  1  0.67982606  0.35877944  0.03103998  1
  In  In35  1  -0.01642394  0.36317830  0.32988691  1
  In  In36  1  0.32908974  0.81619426  0.81951438  1
  In  In37  1  0.00583434  0.32429102  0.64137628  1
  In  In38  1  -0.00415242  0.02790695  -0.00315787  1
  In  In39  1  0.50293035  0.15857363  -0.01047425  1
  In  In40  1  0.66034966  0.03151693  0.36467075  1
  In  In41  1  0.65815452  0.30471033  0.35568433  1
  In  In42  1  0.33053338  0.85889528  0.49281056  1
  In  In43  1  0.50326928  0.65395779  0.81682778  1
  In  In44  1  0.67416179  0.17796673  0.18528317  1
  In  In45  1  0.19335476  0.35612405  0.84188819  1
  In  In46  1  0.83285744  0.66960720  0.17737273  1
  In  In47  1  0.15698708  0.49503144  0.32196087  1
  In  In48  1  0.50058792  0.48111915  0.35132219  1
  In  In49  1  0.01614879  0.85232577  0.18656388  1
  In  In50  1  0.85427222  0.14294842  0.00680003  1
  In  In51  1  -0.00904865  0.15178756  0.50948071  1
  In  In52  1  0.17217825  0.33743242  0.18443051  1
  In  In53  1  0.49848379  0.69840086  0.16955507  1
  In  In54  1  0.68660381  0.15165137  0.82397942  1
  In  In55  1  0.15137838  -0.00745685  0.50005582  1
  In  In56  1  0.17912474  0.51383061  0.64817791  1
  In  In57  1  0.32315454  0.50924285  0.16296724  1
  In  In58  1  0.82885212  0.15036944  0.66134929  1
  In  In59  1  0.30941825  0.68192203  0.30003326  1
  In  In60  1  0.67550578  0.51356570  0.18780392  1
  In  In61  1  0.66044483  0.68784774  0.01401036  1
  In  In62  1  0.68264131  0.81400632  0.47599959  1
  In  In63  1  0.50630731  -0.00436677  0.81634101  1
  In  In64  1  0.01186533  0.34265572  0.03189912  1
  In  In65  1  0.15289465  0.84185118  0.67428112  1
  In  In66  1  0.14688453  0.68731225  0.47823579  1
  In  In67  1  -0.02107444  0.67227823  -0.00269573  1
  In  In68  1  0.16085930  0.67845928  0.83320334  1
  In  In69  1  0.48418339  0.82084809  0.02369705  1
  In  In70  1  0.82436866  0.50073062  0.03368460  1
  In  In71  1  0.47884298  0.49370634  -0.01547050  1
  Te  Te72  1  0.10227796  0.05489786  0.10811026  1
  Te  Te73  1  0.06509215  0.07299068  0.39853500  1
  Te  Te74  1  0.08885053  0.08372994  0.74342647  1
  Te  Te75  1  0.10862144  0.43815894  0.09221866  1
  Te  Te76  1  0.08201922  0.42126163  0.42444035  1
  Te  Te77  1  0.08299721  0.41756222  0.74121759  1
  Te  Te78  1  0.07640778  0.74431900  0.09238321  1
  Te  Te79  1  0.06189330  0.78575027  0.40217456  1
  Te  Te80  1  0.05498700  0.75703967  0.75834605  1
  Te  Te81  1  0.41488036  0.08838924  0.09267329  1
  Te  Te82  1  0.44925072  0.10030059  0.44446927  1
  Te  Te83  1  0.44025125  0.10277243  0.72912925  1
  Te  Te84  1  0.42347393  0.40207994  0.09660670  1
  Te  Te85  1  0.42270393  0.37135609  0.41923391  1
  Te  Te86  1  0.38763678  0.42976595  0.75909789  1
  Te  Te87  1  0.38175346  0.73633685  0.08856987  1
  Te  Te88  1  0.40675790  0.74381560  0.41094673  1
  Te  Te89  1  0.44037435  0.76597039  0.72868156  1
  Te  Te90  1  0.73839208  0.07931210  0.08748029  1
  Te  Te91  1  0.76360839  0.10407556  0.44212698  1
  Te  Te92  1  0.73240856  0.05297110  0.72139199  1
  Te  Te93  1  0.78208205  0.39807615  0.14296611  1
  Te  Te94  1  0.73274235  0.41649826  0.41829916  1
  Te  Te95  1  0.74417332  0.38665439  0.73791574  1
  Te  Te96  1  0.76480473  0.77175450  0.08355175  1
  Te  Te97  1  0.79635408  0.72796242  0.42854825  1
  Te  Te98  1  0.73959404  0.74188102  0.75143528  1
  Te  Te99  1  0.08318900  0.24515860  0.26743046  1
  Te  Te100  1  0.10149534  0.25372528  0.54503507  1
  Te  Te101  1  0.08546441  0.26055748  0.91071728  1
  Te  Te102  1  0.09662934  0.60512566  0.24545822  1
  Te  Te103  1  0.07296349  0.57887991  0.55909131  1
  Te  Te104  1  0.09221799  0.58558843  0.93530199  1
  Te  Te105  1  0.12736201  0.90561228  0.27187820  1
  Te  Te106  1  0.05152778  0.89564208  0.57154198  1
  Te  Te107  1  0.06616120  0.91522449  0.91281637  1
  Te  Te108  1  0.36818675  0.19738324  0.29372763  1
  Te  Te109  1  0.44495649  0.22478868  0.56102449  1
  Te  Te110  1  0.41627987  0.25998655  0.91174502  1
  Te  Te111  1  0.42653900  0.58335401  0.25674975  1
  Te  Te112  1  0.41949071  0.55947982  0.57054989  1
  Te  Te113  1  0.41154022  0.60980409  0.92386977  1
  Te  Te114  1  0.40411759  0.91336268  0.26404840  1
  Te  Te115  1  0.43784921  0.91414539  0.57678401  1
  Te  Te116  1  0.40946140  0.91922330  0.91218640  1
  Te  Te117  1  0.76874696  0.23775873  0.28086667  1
  Te  Te118  1  0.73373029  0.22222613  0.56291084  1
  Te  Te119  1  0.75350867  0.24898428  0.93615884  1
  Te  Te120  1  0.77274976  0.57900581  0.28039959  1
  Te  Te121  1  0.75451118  0.59157383  0.54107843  1
  Te  Te122  1  0.75390477  0.58965704  0.92584549  1
  Te  Te123  1  0.74716895  0.91903287  0.29299224  1
  Te  Te124  1  0.73861681  0.92435349  0.56027654  1
  Te  Te125  1  0.77314250  0.92394048  0.93240784  1
  Te  Te126  1  0.25911659  0.23405199  0.11008935  1
  Te  Te127  1  0.28303290  0.28204273  0.39779469  1
  Te  Te128  1  0.24866233  0.24628612  0.74475312  1
  Te  Te129  1  0.22577953  0.55900794  0.06656040  1
  Te  Te130  1  0.25506309  0.59446296  0.41774401  1
  Te  Te131  1  0.25799734  0.58911648  0.75572527  1
  Te  Te132  1  0.26319173  0.89852916  0.12153370  1
  Te  Te133  1  0.24332527  0.93008571  0.39631245  1
  Te  Te134  1  0.26101447  0.93622764  0.73727209  1
  Te  Te135  1  0.57801564  0.25110514  0.08657845  1
  Te  Te136  1  0.55342211  0.22029985  0.42583527  1
  Te  Te137  1  0.60053517  0.23987544  0.73128346  1
  Te  Te138  1  0.58019011  0.57613939  0.08155055  1
  Te  Te139  1  0.60241769  0.56834071  0.41530438  1
  Te  Te140  1  0.57447707  0.55335950  0.72363816  1
  Te  Te141  1  0.59164818  0.91394563  0.07948066  1
  Te  Te142  1  0.57537200  0.92108615  0.42943030  1
  Te  Te143  1  0.60082568  0.92862183  0.72288842  1
  Te  Te144  1  0.92141667  0.24218568  0.10250916  1
  Te  Te145  1  0.91967139  0.24982674  0.41232877  1
  Te  Te146  1  0.92933678  0.23609329  0.74497523  1
  Te  Te147  1  0.93513317  0.57338892  0.10853723  1
  Te  Te148  1  0.89081749  0.60054357  0.42060299  1
  Te  Te149  1  0.90288735  0.57193425  0.72955476  1
  Te  Te150  1  0.92318406  0.92716535  0.08947117  1
  Te  Te151  1  0.99898590  0.92680089  0.42200412  1
  Te  Te152  1  0.91883637  0.90401686  0.73929507  1
  Te  Te153  1  0.27573972  0.08546018  0.25540274  1
  Te  Te154  1  0.26471073  0.09981213  0.53202547  1
  Te  Te155  1  0.24249950  0.10204490  0.93771097  1
  Te  Te156  1  0.27669559  0.41110596  0.27044262  1
  Te  Te157  1  0.25115489  0.39426915  0.58864687  1
  Te  Te158  1  0.25286947  0.45311589  0.93868397  1
  Te  Te159  1  0.21178223  0.77584690  0.24211929  1
  Te  Te160  1  0.24513957  0.75223515  0.58686823  1
  Te  Te161  1  0.24075910  0.76466580  0.93026316  1
  Te  Te162  1  0.56832955  0.09397873  0.25839908  1
  Te  Te163  1  0.55804286  0.10977620  0.54273563  1
  Te  Te164  1  0.59917051  0.06532566  0.91758011  1
  Te  Te165  1  0.58320881  0.40217192  0.24408413  1
  Te  Te166  1  0.55057023  0.45066650  0.57758232  1
  Te  Te167  1  0.58879765  0.40706270  0.91023008  1
  Te  Te168  1  0.60949362  0.72775530  0.26962148  1
  Te  Te169  1  0.58377959  0.75596099  0.57915521  1
  Te  Te170  1  0.57864048  0.76024475  0.90691251  1
  Te  Te171  1  0.90741056  0.07097625  0.27739273  1
  Te  Te172  1  0.87579266  0.05140995  0.54045708  1
  Te  Te173  1  0.86793713  0.04141020  0.88704305  1
  Te  Te174  1  0.91243617  0.44060836  0.22904147  1
  Te  Te175  1  0.92316791  0.42592478  0.56465418  1
  Te  Te176  1  0.91902800  0.42555530  0.92571317  1
  Te  Te177  1  0.90626777  0.77638271  0.26083172  1
  Te  Te178  1  0.90332565  0.75489370  0.54434477  1
  Te  Te179  1  0.90168229  0.77950820  0.92882034  1
