# generated using pymatgen
data_In2Te3
_symmetry_space_group_name_H-M   'P 1'
_cell_length_a   18.75503464
_cell_length_b   18.75516336
_cell_length_c   18.75228585
_cell_angle_alpha   90.07083295
_cell_angle_beta   89.97548061
_cell_angle_gamma   89.94741395
_symmetry_Int_Tables_number   1
_chemical_formula_structural   In2Te3
_chemical_formula_sum   'In72 Te108'
_cell_volume   6596.17822669
_cell_formula_units_Z   36
loop_
 _symmetry_equiv_pos_site_id
 _symmetry_equiv_pos_as_xyz
  1  'x, y, z'
loop_
 _atom_site_type_symbol
 _atom_site_label
 _atom_site_symmetry_multiplicity
 _atom_site_fract_x
 _atom_site_fract_y
 _atom_site_fract_z
 _atom_site_occupancy
  In  In0  1  0.83733873  0.32430266  0.50995490  1
  In  In1  1  0.81754949  0.66846952  0.83202437  1
  In  In2  1  0.49090035  0.85451268  0.31026298  1
  In  In3  1  0.49585185  0.48909362  0.00103586  1
  In  In4  1  0.50168436  0.29079050  0.48792302  1
  In  In5  1  0.18968446  0.04573815  0.18791258  1
  In  In6  1  -0.00852876  0.01113375  0.33745048  1
  In  In7  1  0.16295917  0.49684032  0.65705382  1
  In  In8  1  0.19156003  0.67901802  0.83181865  1
  In  In9  1  0.67299697  0.67399869  0.30657375  1
  In  In10  1  0.17735482  0.49319722  0.02360209  1
  In  In11  1  0.84096002  0.83892665  0.33440398  1
  In  In12  1  0.83129208  0.16780674  0.33704545  1
  In  In13  1  0.35236626  0.81706621  0.13961164  1
  In  In14  1  0.31989956  0.31665003  0.01306729  1
  In  In15  1  0.68112575  0.31278019  0.35009654  1
  In  In16  1  0.49721550  0.67098835  0.87749021  1
  In  In17  1  0.66713365  0.49039524  0.83426620  1
  In  In18  1  -0.02372052  0.84914602  0.16655100  1
  In  In19  1  0.83147136  0.84762352  0.00667657  1
  In  In20  1  0.46996381  0.00193799  0.83019114  1
  In  In21  1  0.68145144  0.02396568  0.66965842  1
  In  In22  1  0.67935225  0.82087257  0.85271700  1
  In  In23  1  0.68777897  0.47515377  0.48608782  1
  In  In24  1  0.16288517  0.84698261  -0.02419006  1
  In  In25  1  0.14626386  0.29663628  0.85985843  1
  In  In26  1  0.67594267  0.18050793  0.83812116  1
  In  In27  1  0.67710728  0.15297823  0.16667951  1
  In  In28  1  0.15995506  0.00144320  0.48988054  1
  In  In29  1  0.67522192  -0.00522934  0.01548656  1
  In  In30  1  0.82068450  0.49313983  -0.01625041  1
  In  In31  1  0.30334356  0.49523437  0.48668517  1
  In  In32  1  0.32495830  0.01946041  -0.00216924  1
  In  In33  1  0.69432391  0.31700608  0.66756035  1
  In  In34  1  0.66985439  0.49897398  0.14680644  1
  In  In35  1  0.30085955  0.84308253  0.50521629  1
  In  In36  1  0.32022550  0.00508791  0.67388877  1
  In  In37  1  0.32286692  0.64893478  0.33473105  1
  In  In38  1  0.00094485  0.66025693  0.01056154  1
  In  In39  1  0.68210442  0.01234889  0.32539360  1
  In  In40  1  0.49513524  0.31863500  0.17572508  1
  In  In41  1  0.49934152  0.04001521  0.48404970  1
  In  In42  1  0.48919099  0.47296061  0.68137869  1
  In  In43  1  0.49875884  0.35630081  0.82745624  1
  In  In44  1  -0.00321615  0.19438842  0.15991055  1
  In  In45  1  0.32340096  0.84389599  0.85099357  1
  In  In46  1  0.01858808  0.16730341  0.50345719  1
  In  In47  1  0.47977492  0.50562350  0.30992138  1
  In  In48  1  0.18520798  0.32054598  0.17649659  1
  In  In49  1  0.68314400  0.85752972  0.51961020  1
  In  In50  1  0.31516218  0.68058787  0.65953012  1
  In  In51  1  0.00449390  0.86484991  0.82570198  1
  In  In52  1  0.16434130  0.64704052  0.17052239  1
  In  In53  1  0.01199094  0.45878988  0.46162330  1
  In  In54  1  0.50852543  0.84260390  0.66732117  1
  In  In55  1  0.65466309  0.83833258  0.17260358  1
  In  In56  1  -0.00133955  0.67072116  0.65252733  1
  In  In57  1  0.14445344  0.82351452  0.34935774  1
  In  In58  1  0.49019720  0.65772575  0.48262460  1
  In  In59  1  0.31547267  0.17515869  0.49754425  1
  In  In60  1  0.84263277  0.31603168  0.84088802  1
  In  In61  1  0.68524819  0.66574147  0.67805936  1
  In  In62  1  0.18624804  0.84740764  0.64667139  1
  In  In63  1  0.49848173  0.15493034  0.02133423  1
  In  In64  1  0.01143675  0.02868956  0.68420957  1
  In  In65  1  -0.01521956  0.31132166  0.66882385  1
  In  In66  1  0.32413352  0.16491421  0.82495339  1
  In  In67  1  -0.01300926  0.49557544  0.84088869  1
  In  In68  1  0.85898013  0.65113959  0.49307616  1
  In  In69  1  0.32502763  0.33529232  0.32788430  1
  In  In70  1  0.00069405  0.46577885  0.20308214  1
  In  In71  1  0.84795152  0.68236210  0.17608477  1
  Te  Te72  1  0.08548901  0.09137644  0.09475892  1
  Te  Te73  1  0.10197810  0.10181318  0.39095662  1
  Te  Te74  1  0.08956095  0.10299662  0.79073952  1
  Te  Te75  1  0.07834163  0.40106835  0.08836939  1
  Te  Te76  1  0.10678065  0.37333311  0.38028083  1
  Te  Te77  1  0.07886195  0.40581726  0.75879441  1
  Te  Te78  1  0.08523326  0.76027110  0.08776234  1
  Te  Te79  1  0.08705794  0.75024486  0.46184836  1
  Te  Te80  1  0.09231432  0.75582681  0.74600854  1
  Te  Te81  1  0.39820282  0.08981267  0.10729282  1
  Te  Te82  1  0.38395030  0.08177256  0.39807985  1
  Te  Te83  1  0.42881351  0.09996626  0.72351971  1
  Te  Te84  1  0.40330885  0.41235836  0.09809580  1
  Te  Te85  1  0.42929113  0.41674088  0.42384478  1
  Te  Te86  1  0.38238549  0.39065227  0.74178021  1
  Te  Te87  1  0.44842901  0.75164914  0.04676037  1
  Te  Te88  1  0.40636153  0.76378241  0.41365670  1
  Te  Te89  1  0.41449729  0.75739008  0.75317152  1
  Te  Te90  1  0.77316045  0.09147450  0.06980541  1
  Te  Te91  1  0.75730060  0.08113115  0.43211110  1
  Te  Te92  1  0.77602004  0.10260613  0.75735982  1
  Te  Te93  1  0.75987854  0.40142501  0.08211080  1
  Te  Te94  1  0.79185584  0.42066449  0.38578476  1
  Te  Te95  1  0.77252897  0.42005814  0.74951864  1
  Te  Te96  1  0.74605701  0.74846943  0.08471056  1
  Te  Te97  1  0.74239523  0.74763566  0.42051432  1
  Te  Te98  1  0.77021405  0.77801098  0.73558855  1
  Te  Te99  1  0.07887950  0.26301582  0.26882808  1
  Te  Te100  1  0.09934011  0.25353266  0.59473517  1
  Te  Te101  1  0.03678339  0.22388009  0.93864416  1
  Te  Te102  1  0.07864628  0.57642691  0.26921578  1
  Te  Te103  1  0.06854421  0.56800919  0.56298241  1
  Te  Te104  1  0.09145822  0.58510078  0.91145826  1
  Te  Te105  1  0.08567183  0.92695283  0.24410591  1
  Te  Te106  1  0.07098720  0.91875891  0.58076788  1
  Te  Te107  1  0.05736371  0.94612750  0.94000690  1
  Te  Te108  1  0.40272124  0.22875069  0.25347374  1
  Te  Te109  1  0.40456471  0.25113789  0.59013189  1
  Te  Te110  1  0.42419952  0.24722026  0.91907100  1
  Te  Te111  1  0.40634085  0.59813860  0.22252322  1
  Te  Te112  1  0.41010176  0.57756836  0.58491456  1
  Te  Te113  1  0.40857106  0.55763405  0.90143424  1
  Te  Te114  1  0.40193181  0.93171498  0.22195352  1
  Te  Te115  1  0.41642673  0.92435405  0.57711747  1
  Te  Te116  1  0.42434237  0.91266449  0.94356400  1
  Te  Te117  1  0.76682827  0.26144352  0.23215057  1
  Te  Te118  1  0.74805594  0.22131304  0.56754852  1
  Te  Te119  1  0.76783323  0.23541944  0.94363747  1
  Te  Te120  1  0.76654811  0.57282195  0.24537045  1
  Te  Te121  1  0.75883003  0.57169338  0.58236498  1
  Te  Te122  1  0.72376815  0.59894866  0.92874657  1
  Te  Te123  1  0.76649980  0.92442721  0.23308694  1
  Te  Te124  1  0.77880406  0.94389698  0.58859836  1
  Te  Te125  1  0.76512700  0.93747259  0.90244440  1
  Te  Te126  1  0.23542485  0.21590048  0.08204020  1
  Te  Te127  1  0.22445204  0.27505063  0.42425185  1
  Te  Te128  1  0.22906212  0.24712603  0.74530200  1
  Te  Te129  1  0.26931822  0.59278730  0.08123623  1
  Te  Te130  1  0.21326861  0.56808678  0.39395475  1
  Te  Te131  1  0.26141450  0.56992310  0.75180075  1
  Te  Te132  1  0.23857310  0.92176534  0.08745556  1
  Te  Te133  1  0.25103227  0.92846000  0.39027261  1
  Te  Te134  1  0.22724444  0.93037730  0.76979396  1
  Te  Te135  1  0.59604192  0.25501351  0.08137323  1
  Te  Te136  1  0.58380636  0.20962612  0.39555664  1
  Te  Te137  1  0.57913001  0.25343998  0.74491080  1
  Te  Te138  1  0.57368289  0.58833191  0.08064105  1
  Te  Te139  1  0.59483195  0.57506788  0.40801363  1
  Te  Te140  1  0.57531796  0.58839708  0.75209946  1
  Te  Te141  1  0.57048252  0.93824143  0.10268721  1
  Te  Te142  1  0.58053730  0.91681536  0.42096135  1
  Te  Te143  1  0.59355011  0.92277859  0.76339909  1
  Te  Te144  1  0.92024018  0.24742588  0.04193701  1
  Te  Te145  1  0.93136095  0.25590349  0.41154068  1
  Te  Te146  1  0.90124354  0.21243732  0.74598117  1
  Te  Te147  1  0.91636271  0.56733701  0.09309780  1
  Te  Te148  1  0.93395591  0.56920088  0.39476709  1
  Te  Te149  1  0.90870849  0.58238019  0.74512402  1
  Te  Te150  1  0.92064023  0.94719323  0.07089900  1
  Te  Te151  1  0.92191868  0.91813448  0.42834701  1
  Te  Te152  1  0.90674564  0.94116067  0.74811836  1
  Te  Te153  1  0.27706481  0.12255839  0.27876346  1
  Te  Te154  1  0.22526719  0.09222616  0.59449977  1
  Te  Te155  1  0.22699422  0.08868354  0.90878532  1
  Te  Te156  1  0.25532832  0.43361163  0.24252702  1
  Te  Te157  1  0.24174806  0.39766750  0.57884610  1
  Te  Te158  1  0.24211553  0.40612616  0.91579264  1
  Te  Te159  1  0.24863612  0.75932354  0.24833953  1
  Te  Te160  1  0.21377243  0.71975605  0.54674557  1
  Te  Te161  1  0.27015411  0.73645029  0.94696348  1
  Te  Te162  1  0.57612090  0.08151032  0.24885861  1
  Te  Te163  1  0.58363127  0.10058203  0.58790223  1
  Te  Te164  1  0.57875175  0.07980886  0.91114223  1
  Te  Te165  1  0.59004321  0.40931775  0.26081190  1
  Te  Te166  1  0.59009650  0.40727738  0.58195028  1
  Te  Te167  1  0.60142140  0.39714442  0.93336454  1
  Te  Te168  1  0.55505056  0.73644025  0.23504259  1
  Te  Te169  1  0.58165505  0.74030585  0.57874052  1
  Te  Te170  1  0.57549945  0.77339007  0.95379397  1
  Te  Te171  1  0.91015523  0.08696296  0.23426855  1
  Te  Te172  1  0.92202952  0.08727140  0.58106721  1
  Te  Te173  1  0.96859589  0.09937187  0.87892739  1
  Te  Te174  1  0.89328116  0.38914794  0.26717938  1
  Te  Te175  1  0.92265591  0.42385719  0.58619692  1
  Te  Te176  1  0.93422078  0.39752801  0.94141356  1
  Te  Te177  1  0.94638429  0.74358855  0.27453641  1
  Te  Te178  1  0.90830052  0.76116070  0.57875935  1
  Te  Te179  1  0.92349816  0.75083546  0.91440423  1
