# generated using pymatgen
data_In2Te3
_symmetry_space_group_name_H-M   'P 1'
_cell_length_a   18.93333726
_cell_length_b   18.92156657
_cell_length_c   18.91322087
_cell_angle_alpha   90.01542831
_cell_angle_beta   90.03572611
_cell_angle_gamma   90.00921171
_symmetry_Int_Tables_number   1
_chemical_formula_structural   In2Te3
_chemical_formula_sum   'In72 Te108'
_cell_volume   6775.62948956
_cell_formula_units_Z   36
loop_
 _symmetry_equiv_pos_site_id
 _symmetry_equiv_pos_as_xyz
  1  'x, y, z'
loop_
 _atom_site_type_symbol
 _atom_site_label
 _atom_site_symmetry_multiplicity
 _atom_site_fract_x
 _atom_site_fract_y
 _atom_site_fract_z
 _atom_site_occupancy
  In  In0  1  0.16472573  -0.00491663  0.53543169  1
  In  In1  1  0.79912246  0.47763300  0.02926594  1
  In  In2  1  0.35498912  0.18908611  0.50901931  1
  In  In3  1  0.55158362  -0.01919396  0.82830045  1
  In  In4  1  0.82728115  0.50569275  0.67953694  1
  In  In5  1  0.69700734  0.17760584  0.16171644  1
  In  In6  1  0.52768283  0.14765463  -0.00558658  1
  In  In7  1  -0.00948461  0.68910400  0.29831308  1
  In  In8  1  -0.04010651  0.12820479  0.17600292  1
  In  In9  1  -0.04959031  0.85970728  0.16293485  1
  In  In10  1  0.51079355  0.68481333  0.50692933  1
  In  In11  1  0.53456853  0.30880567  0.82202882  1
  In  In12  1  0.84390194  0.11759795  0.62645787  1
  In  In13  1  0.13627195  0.83403878  0.32931423  1
  In  In14  1  0.31672979  0.85071559  0.16573568  1
  In  In15  1  0.17579917  0.33474495  0.84866894  1
  In  In16  1  0.48671535  0.67314445  0.82683870  1
  In  In17  1  0.47701711  0.16258281  0.32741994  1
  In  In18  1  0.35880456  -0.02234293  0.65235178  1
  In  In19  1  0.30046091  0.80810260  0.83421072  1
  In  In20  1  0.80276648  0.49832656  0.30458362  1
  In  In21  1  0.32761027  0.33695162  -0.00049937  1
  In  In22  1  -0.00455442  0.64907145  0.01030167  1
  In  In23  1  0.17322790  0.50564389  0.37518679  1
  In  In24  1  0.33243904  0.30703629  0.31332956  1
  In  In25  1  0.34776241  0.50458561  0.17018727  1
  In  In26  1  0.51049852  0.84183989  0.00395257  1
  In  In27  1  0.15626651  0.52176710  0.01860440  1
  In  In28  1  -0.02535244  0.85239040  0.81888222  1
  In  In29  1  0.84609487  0.15282101  -0.01241658  1
  In  In30  1  0.48867914  0.66745290  0.16150389  1
  In  In31  1  0.15271943  0.01014172  0.84048413  1
  In  In32  1  0.33033424  0.55851866  0.80663383  1
  In  In33  1  0.35067688  0.51629860  0.50376682  1
  In  In34  1  0.52170487  0.48133993  0.31676570  1
  In  In35  1  -0.00792630  0.14245454  0.83075114  1
  In  In36  1  -0.01056270  0.86043667  0.49400114  1
  In  In37  1  0.31604967  0.00012843  -0.00729215  1
  In  In38  1  0.82264170  0.32877381  0.83253557  1
  In  In39  1  0.66999145  0.84936825  0.15765223  1
  In  In40  1  0.84358106  0.67585188  0.46768753  1
  In  In41  1  0.83672579  0.66884206  0.81962610  1
  In  In42  1  0.66171444  0.66587060  0.35171195  1
  In  In43  1  0.12611463  0.17877764  0.01985945  1
  In  In44  1  0.67803964  0.00753014  0.67217961  1
  In  In45  1  0.68786229  -0.00638774  0.34515885  1
  In  In46  1  -0.03410039  0.34046473  0.34174372  1
  In  In47  1  0.68336299  0.66971990  0.67220932  1
  In  In48  1  0.51650758  0.34789178  0.50620797  1
  In  In49  1  0.14809854  0.33595700  0.17053235  1
  In  In50  1  0.52100288  0.48878978  0.68224336  1
  In  In51  1  0.66616672  0.65936413  -0.00654532  1
  In  In52  1  0.67665273  0.13610157  0.49268078  1
  In  In53  1  0.00280654  0.50934956  0.86877493  1
  In  In54  1  0.51912380  0.84964194  0.36381907  1
  In  In55  1  0.02454766  0.69049293  0.64682591  1
  In  In56  1  0.68446681  0.31823560  0.32228649  1
  In  In57  1  0.18682169  0.33277288  0.51673444  1
  In  In58  1  0.36946511  0.34127560  0.65705481  1
  In  In59  1  0.50196246  -0.00098247  0.16803038  1
  In  In60  1  -0.01113489  0.48510044  0.17036183  1
  In  In61  1  0.79285325  0.85876632  -0.05066812  1
  In  In62  1  -0.02829436  0.51888112  0.51690497  1
  In  In63  1  0.01550521  0.34108114  0.68640726  1
  In  In64  1  0.49771239  0.48624517  -0.02929315  1
  In  In65  1  0.13575040  0.11914105  0.31659948  1
  In  In66  1  0.35049741  0.15006520  0.81583464  1
  In  In67  1  0.31038835  0.00643298  0.35664388  1
  In  In68  1  0.18083768  0.69491678  0.52888829  1
  In  In69  1  0.14842774  0.16129414  0.68917813  1
  In  In70  1  0.15277429  0.68083622  0.16699032  1
  In  In71  1  0.81142037  0.29831222  0.50492901  1
  Te  Te72  1  0.07536090  0.07111888  0.10319170  1
  Te  Te73  1  0.07039522  0.06994274  0.44255957  1
  Te  Te74  1  0.05242079  0.04975667  0.72486858  1
  Te  Te75  1  0.06676374  0.40797179  0.06478089  1
  Te  Te76  1  0.07705337  0.40155523  0.43108804  1
  Te  Te77  1  0.09687157  0.43902482  0.76702563  1
  Te  Te78  1  0.05339631  0.76332387  0.09290174  1
  Te  Te79  1  0.06489923  0.73224846  0.42373586  1
  Te  Te80  1  0.08544714  0.78784481  0.74025499  1
  Te  Te81  1  0.41483027  0.08345458  0.07672898  1
  Te  Te82  1  0.42141408  0.07169238  0.43709739  1
  Te  Te83  1  0.44670669  0.06427470  0.74174176  1
  Te  Te84  1  0.42942015  0.40935556  0.08613243  1
  Te  Te85  1  0.40438584  0.40030436  0.41416607  1
  Te  Te86  1  0.41190443  0.42781727  0.77411556  1
  Te  Te87  1  0.40506629  0.76190076  0.07688237  1
  Te  Te88  1  0.41408316  0.76510524  0.42585610  1
  Te  Te89  1  0.40807076  0.76568212  0.74101535  1
  Te  Te90  1  0.76562599  0.07068101  0.08650077  1
  Te  Te91  1  0.79029012  0.04492034  0.44521100  1
  Te  Te92  1  0.79607719  0.06278333  0.75859662  1
  Te  Te93  1  0.71312069  0.38124060  0.09888762  1
  Te  Te94  1  0.75198775  0.41238373  0.42087760  1
  Te  Te95  1  0.73643584  0.41625144  0.75012561  1
  Te  Te96  1  0.75214300  0.76331445  0.06263748  1
  Te  Te97  1  0.74857498  0.77038792  0.40820584  1
  Te  Te98  1  0.76153714  0.77318839  0.74710781  1
  Te  Te99  1  0.06873992  0.24779589  0.26322819  1
  Te  Te100  1  0.07944561  0.24783270  0.58379027  1
  Te  Te101  1  0.06025727  0.25686065  0.90818492  1
  Te  Te102  1  0.09119230  0.56671291  0.25290321  1
  Te  Te103  1  0.09676237  0.57339101  0.57946690  1
  Te  Te104  1  0.10900348  0.62296413  0.90442008  1
  Te  Te105  1  0.06169729  0.92816030  0.24267174  1
  Te  Te106  1  0.09169937  0.88331727  0.60261393  1
  Te  Te107  1  0.07235075  0.91279737  0.91433748  1
  Te  Te108  1  0.43475846  0.25614783  0.22280269  1
  Te  Te109  1  0.46627992  0.23511345  0.60753885  1
  Te  Te110  1  0.41887466  0.24602478  0.91459848  1
  Te  Te111  1  0.42142913  0.58860335  0.27356294  1
  Te  Te112  1  0.43729318  0.58901555  0.60219719  1
  Te  Te113  1  0.40429377  0.60107491  0.93149272  1
  Te  Te114  1  0.41371352  0.92097729  0.26446890  1
  Te  Te115  1  0.38532653  0.87104911  0.55486091  1
  Te  Te116  1  0.42610714  0.93142218  0.91478550  1
  Te  Te117  1  0.77308210  0.20551119  0.28625883  1
  Te  Te118  1  0.72208578  0.22899630  0.60689402  1
  Te  Te119  1  0.74415045  0.22902612  0.90901172  1
  Te  Te120  1  0.72505431  0.60119057  0.23631505  1
  Te  Te121  1  0.76477800  0.59020435  0.57029396  1
  Te  Te122  1  0.76224192  0.57482948  0.91287674  1
  Te  Te123  1  0.75455990  0.95656601  0.21706481  1
  Te  Te124  1  0.80676812  0.96600545  0.59809473  1
  Te  Te125  1  0.68943940  0.95225056  0.89678885  1
  Te  Te126  1  0.24524495  0.24993317  0.09231794  1
  Te  Te127  1  0.24324382  0.23352795  0.41296557  1
  Te  Te128  1  0.25886083  0.26168017  0.74048141  1
  Te  Te129  1  0.26116349  0.60227783  0.09290062  1
  Te  Te130  1  0.26491982  0.61402783  0.42475617  1
  Te  Te131  1  0.25528314  0.65321622  0.72430332  1
  Te  Te132  1  0.22555075  0.92203590  0.07641510  1
  Te  Te133  1  0.22782086  0.90356276  0.42954860  1
  Te  Te134  1  0.25831875  0.93472067  0.75905247  1
  Te  Te135  1  0.59939286  0.25009046  0.07600486  1
  Te  Te136  1  0.58272124  0.24322814  0.41673241  1
  Te  Te137  1  0.59520363  0.23062035  0.71728535  1
  Te  Te138  1  0.57221732  0.57469693  0.07616327  1
  Te  Te139  1  0.57766572  0.56637190  0.42822639  1
  Te  Te140  1  0.59787679  0.58785024  0.76838233  1
  Te  Te141  1  0.59936932  0.94895431  0.06371917  1
  Te  Te142  1  0.60911226  0.92415810  0.45408646  1
  Te  Te143  1  0.58749004  0.89431435  0.71038722  1
  Te  Te144  1  0.91945342  0.23596285  0.08612945  1
  Te  Te145  1  0.89936610  0.22774552  0.40995070  1
  Te  Te146  1  0.91427626  0.24359432  0.74243769  1
  Te  Te147  1  0.89506480  0.58065466  0.09982477  1
  Te  Te148  1  0.92280095  0.56563665  0.38168674  1
  Te  Te149  1  0.94168591  0.58527983  0.74336616  1
  Te  Te150  1  0.89217979  0.92615704  0.03941617  1
  Te  Te151  1  0.90123600  0.92228080  0.39424926  1
  Te  Te152  1  0.86343852  0.92153288  0.74580536  1
  Te  Te153  1  0.25903925  0.08717355  0.24585350  1
  Te  Te154  1  0.26142009  0.10107398  0.59514527  1
  Te  Te155  1  0.23569074  0.11697708  0.91296180  1
  Te  Te156  1  0.24538472  0.42427961  0.25325108  1
  Te  Te157  1  0.26234599  0.43492440  0.59902689  1
  Te  Te158  1  0.25179104  0.44526886  0.92376535  1
  Te  Te159  1  0.24776273  0.75322150  0.26033736  1
  Te  Te160  1  0.29413550  0.75298305  0.60971253  1
  Te  Te161  1  0.22053804  0.73022206  0.92648238  1
  Te  Te162  1  0.58841290  0.08416585  0.25940601  1
  Te  Te163  1  0.58066674  0.04758238  0.56374452  1
  Te  Te164  1  0.62237278  0.10522219  0.88709902  1
  Te  Te165  1  0.61689972  0.41247643  0.22431413  1
  Te  Te166  1  0.61125143  0.42639807  0.58476984  1
  Te  Te167  1  0.60259752  0.40840981  0.90438859  1
  Te  Te168  1  0.57392506  0.76544855  0.24291571  1
  Te  Te169  1  0.59934296  0.76591462  0.59448211  1
  Te  Te170  1  0.58818216  0.75593184  0.90622826  1
  Te  Te171  1  0.93626146  0.02866495  0.28472624  1
  Te  Te172  1  0.97065412  0.07301243  0.56534532  1
  Te  Te173  1  0.94026294  0.04725405  0.93347479  1
  Te  Te174  1  0.88279785  0.39271224  0.22652782  1
  Te  Te175  1  0.90835603  0.39945464  0.58536891  1
  Te  Te176  1  0.90416267  0.41621318  0.93136926  1
  Te  Te177  1  0.87727036  0.76561972  0.25059088  1
  Te  Te178  1  0.90760420  0.75761979  0.57909858  1
  Te  Te179  1  0.91457771  0.74753651  0.92379823  1
