# generated using pymatgen
data_In2Te3
_symmetry_space_group_name_H-M   'P 1'
_cell_length_a   18.82244009
_cell_length_b   18.81001417
_cell_length_c   18.80936689
_cell_angle_alpha   89.93420537
_cell_angle_beta   90.05284236
_cell_angle_gamma   89.94240744
_symmetry_Int_Tables_number   1
_chemical_formula_structural   In2Te3
_chemical_formula_sum   'In72 Te108'
_cell_volume   6659.45261702
_cell_formula_units_Z   36
loop_
 _symmetry_equiv_pos_site_id
 _symmetry_equiv_pos_as_xyz
  1  'x, y, z'
loop_
 _atom_site_type_symbol
 _atom_site_label
 _atom_site_symmetry_multiplicity
 _atom_site_fract_x
 _atom_site_fract_y
 _atom_site_fract_z
 _atom_site_occupancy
  In  In0  1  0.01625810  0.63741749  -0.00791845  1
  In  In1  1  0.02257193  0.64174407  0.66132891  1
  In  In2  1  0.67413337  0.51754803  0.16987202  1
  In  In3  1  0.01182250  0.15895159  0.83193861  1
  In  In4  1  0.31992485  0.03235981  0.63923538  1
  In  In5  1  -0.01208942  0.82076070  0.17027266  1
  In  In6  1  0.67372139  0.84332023  0.49017022  1
  In  In7  1  0.64995518  0.14788706  0.17241690  1
  In  In8  1  0.65149808  0.34506021  0.34484397  1
  In  In9  1  0.17570188  0.49814738  -0.03435358  1
  In  In10  1  0.81443998  0.69286510  0.15727194  1
  In  In11  1  0.49785260  0.48195570  0.66587721  1
  In  In12  1  0.15320651  0.82555690  0.34296088  1
  In  In13  1  0.48268426  0.30281490  0.18749759  1
  In  In14  1  0.14893403  0.64382262  0.17991488  1
  In  In15  1  0.00721784  -0.01151604  0.01963657  1
  In  In16  1  0.17561346  0.32817789  0.50664622  1
  In  In17  1  0.66000802  0.32523277  0.67614556  1
  In  In18  1  0.84362086  -0.00004746  0.19716580  1
  In  In19  1  0.48858911  0.84070208  0.68699303  1
  In  In20  1  0.29382046  0.64849041  0.35143122  1
  In  In21  1  0.02289192  0.49611623  0.18890594  1
  In  In22  1  0.35028735  0.49287455  0.15308780  1
  In  In23  1  0.33553686  0.02503573  0.35601499  1
  In  In24  1  0.66982634  0.67070913  0.34234707  1
  In  In25  1  0.32976213  0.85610244  0.15112032  1
  In  In26  1  0.17721700  0.16537762  -0.00650569  1
  In  In27  1  0.00738958  -0.00763232  0.65781747  1
  In  In28  1  0.51622294  0.64437097  0.16727670  1
  In  In29  1  0.48364139  0.64748667  0.51321964  1
  In  In30  1  0.31455687  0.49249670  0.80895667  1
  In  In31  1  0.83458984  0.36587453  0.82615566  1
  In  In32  1  0.18831400  0.82938536  -0.02055100  1
  In  In33  1  0.65804506  0.17908584  0.50251830  1
  In  In34  1  0.46198706  0.45565786  0.35859880  1
  In  In35  1  0.46578050  0.01172338  0.82062661  1
  In  In36  1  0.51736967  0.84302753  -0.01828774  1
  In  In37  1  0.50596897  0.01149464  0.51728816  1
  In  In38  1  0.17562806  -0.00027054  0.83804122  1
  In  In39  1  0.29207723  0.80535564  0.52111467  1
  In  In40  1  -0.01490978  0.79060398  0.81546522  1
  In  In41  1  0.17004531  0.33195621  0.80251439  1
  In  In42  1  0.64637376  0.82538006  0.83132075  1
  In  In43  1  0.66237576  0.65107896  0.65440360  1
  In  In44  1  0.18495043  0.02277951  0.19407847  1
  In  In45  1  0.80100006  -0.00510672  0.85600323  1
  In  In46  1  0.81591357  0.83486510  0.32977613  1
  In  In47  1  0.67090397  0.34333239  -0.01017403  1
  In  In48  1  0.64390962  0.16684598  0.82877993  1
  In  In49  1  0.33555589  0.32090837  0.63898743  1
  In  In50  1  0.84319324  0.18420621  0.34949852  1
  In  In51  1  0.02731549  0.03598247  0.35973813  1
  In  In52  1  0.01495412  0.82896504  0.51148983  1
  In  In53  1  0.01068470  0.34810488  0.64179400  1
  In  In54  1  0.32402335  0.80550462  0.80997485  1
  In  In55  1  0.84082029  0.16875509  0.65564883  1
  In  In56  1  0.33628510  0.68172102  -0.01992368  1
  In  In57  1  0.50482276  0.81723840  0.32860050  1
  In  In58  1  0.66961208  -0.00797201  -0.02505454  1
  In  In59  1  0.00802590  0.32042267  0.34807577  1
  In  In60  1  0.84234999  0.51397410  -0.01645719  1
  In  In61  1  0.85589875  0.31893406  0.17012359  1
  In  In62  1  0.48865812  0.03163642  0.15152688  1
  In  In63  1  0.68745188  0.50217948  0.49838308  1
  In  In64  1  0.83192015  0.00336438  0.49088047  1
  In  In65  1  0.85099235  0.83930898  0.64954246  1
  In  In66  1  0.51120684  0.49108754  0.00197360  1
  In  In67  1  0.84565419  0.65285676  0.81514682  1
  In  In68  1  0.16185532  0.32326132  0.17580404  1
  In  In69  1  0.17231997  0.49392782  0.35290801  1
  In  In70  1  0.35080209  0.04426393  -0.01781299  1
  In  In71  1  0.84360417  0.19070990  0.02171614  1
  Te  Te72  1  0.08716893  0.09195367  0.09573161  1
  Te  Te73  1  0.12880204  0.11278083  0.43166238  1
  Te  Te74  1  0.10174201  0.08656711  0.73379896  1
  Te  Te75  1  0.09762347  0.42686096  0.07808405  1
  Te  Te76  1  0.06960317  0.42464756  0.43989338  1
  Te  Te77  1  0.08934035  0.43651112  0.73258575  1
  Te  Te78  1  0.09323510  0.75603883  0.07795262  1
  Te  Te79  1  0.09918679  0.72278411  0.44085870  1
  Te  Te80  1  0.09173419  0.76662398  0.71636535  1
  Te  Te81  1  0.39079406  0.13573877  0.09727461  1
  Te  Te82  1  0.39598869  0.10745174  0.46806506  1
  Te  Te83  1  0.42753389  0.10406132  0.71108801  1
  Te  Te84  1  0.42158299  0.38743824  0.07197386  1
  Te  Te85  1  0.38515819  0.38649243  0.46795063  1
  Te  Te86  1  0.41498554  0.39146022  0.75650733  1
  Te  Te87  1  0.42104014  0.74746449  0.09307291  1
  Te  Te88  1  0.40264555  0.74667092  0.41798041  1
  Te  Te89  1  0.42336541  0.72035721  0.74118161  1
  Te  Te90  1  0.75417212  0.07948760  0.07864659  1
  Te  Te91  1  0.73926943  0.08758141  0.40571128  1
  Te  Te92  1  0.74704717  0.08807327  0.74365727  1
  Te  Te93  1  0.76118431  0.41788700  0.09164771  1
  Te  Te94  1  0.76845067  0.41582011  0.40404583  1
  Te  Te95  1  0.73542325  0.43391830  0.74344439  1
  Te  Te96  1  0.72988317  0.77292495  0.07182647  1
  Te  Te97  1  0.76823687  0.73621900  0.43897226  1
  Te  Te98  1  0.75196596  0.75878042  0.73666359  1
  Te  Te99  1  0.10143152  0.23092247  0.27571165  1
  Te  Te100  1  0.08996499  0.23466024  0.58602376  1
  Te  Te101  1  0.08652391  0.26073235  0.91395359  1
  Te  Te102  1  0.06627034  0.59546866  0.29682127  1
  Te  Te103  1  0.10900106  0.60534146  0.54423309  1
  Te  Te104  1  0.08599897  0.57666065  0.87734682  1
  Te  Te105  1  0.07686986  0.91922445  0.24768625  1
  Te  Te106  1  0.10890241  0.92099118  0.57792517  1
  Te  Te107  1  0.07189159  0.90656562  0.90472359  1
  Te  Te108  1  0.38329543  0.26223007  0.28933861  1
  Te  Te109  1  0.43114534  0.25758566  0.54037002  1
  Te  Te110  1  0.40339225  0.18354350  0.94219874  1
  Te  Te111  1  0.41003216  0.58614608  0.26253718  1
  Te  Te112  1  0.39104198  0.56454741  0.59525968  1
  Te  Te113  1  0.40495386  0.56454163  0.91596223  1
  Te  Te114  1  0.41305968  0.92494119  0.25794782  1
  Te  Te115  1  0.40452058  0.90345895  0.57550387  1
  Te  Te116  1  0.39346761  0.90563063  0.91745254  1
  Te  Te117  1  0.73937556  0.25302037  0.24696741  1
  Te  Te118  1  0.76142231  0.26796662  0.57331495  1
  Te  Te119  1  0.76000189  0.24117332  0.90350307  1
  Te  Te120  1  0.76948645  0.58524213  0.26500990  1
  Te  Te121  1  0.77998534  0.57734024  0.59360555  1
  Te  Te122  1  0.74548643  0.58560677  0.90063142  1
  Te  Te123  1  0.73013670  0.93251567  0.26113421  1
  Te  Te124  1  0.74295332  0.93289287  0.59236814  1
  Te  Te125  1  0.75217874  0.86452751  0.93584359  1
  Te  Te126  1  0.25581137  0.25573314  0.08152916  1
  Te  Te127  1  0.27850298  0.29227436  0.40286871  1
  Te  Te128  1  0.25962109  0.23429139  0.73570959  1
  Te  Te129  1  0.25197385  0.58792028  0.07800734  1
  Te  Te130  1  0.25818032  0.55549726  0.46141919  1
  Te  Te131  1  0.26845536  0.59261594  0.70906156  1
  Te  Te132  1  0.24002933  0.94663552  0.06587100  1
  Te  Te133  1  0.24717431  0.91499944  0.42124702  1
  Te  Te134  1  0.26216224  0.92433925  0.73817846  1
  Te  Te135  1  0.58736936  0.25357543  0.08144973  1
  Te  Te136  1  0.56126602  0.24900881  0.41121895  1
  Te  Te137  1  0.55307314  0.25045014  0.74885743  1
  Te  Te138  1  0.60991151  0.59655096  0.05637690  1
  Te  Te139  1  0.57136965  0.57411371  0.40951809  1
  Te  Te140  1  0.57710395  0.57857419  0.74802402  1
  Te  Te141  1  0.58200025  0.92870776  0.08886169  1
  Te  Te142  1  0.57659439  0.92684734  0.40817790  1
  Te  Te143  1  0.58376041  0.93939269  0.75204592  1
  Te  Te144  1  0.95812549  0.25888109  0.08325099  1
  Te  Te145  1  0.92203703  0.25421163  0.45102165  1
  Te  Te146  1  0.92482450  0.25721199  0.74839871  1
  Te  Te147  1  0.92473063  0.58567463  0.10415751  1
  Te  Te148  1  0.87270394  0.52647775  0.46710556  1
  Te  Te149  1  0.93551039  0.55448856  0.74833613  1
  Te  Te150  1  0.89574396  0.90806279  0.08627673  1
  Te  Te151  1  0.92853032  0.91728358  0.40935532  1
  Te  Te152  1  0.91101981  0.92808126  0.76079654  1
  Te  Te153  1  0.27409636  0.12236143  0.26025690  1
  Te  Te154  1  0.23868075  0.11287135  0.54398171  1
  Te  Te155  1  0.26623855  0.12154949  0.87165176  1
  Te  Te156  1  0.25680470  0.42058933  0.24984801  1
  Te  Te157  1  0.23164035  0.42515824  0.60739436  1
  Te  Te158  1  0.26478181  0.38857306  0.91261810  1
  Te  Te159  1  0.25025040  0.75606847  0.23857282  1
  Te  Te160  1  0.22773960  0.71905217  0.62438620  1
  Te  Te161  1  0.22157108  0.71719736  0.88371700  1
  Te  Te162  1  0.54763543  0.10089618  0.26788676  1
  Te  Te163  1  0.58856149  0.09653670  0.60464149  1
  Te  Te164  1  0.55836436  0.08541597  0.92607100  1
  Te  Te165  1  0.57014586  0.42860615  0.23795211  1
  Te  Te166  1  0.58780365  0.40950797  0.56650180  1
  Te  Te167  1  0.57758619  0.40893816  0.89824899  1
  Te  Te168  1  0.60354889  0.75383295  0.23148010  1
  Te  Te169  1  0.57634498  0.75794849  0.57308085  1
  Te  Te170  1  0.55490233  0.72961710  0.89647022  1
  Te  Te171  1  0.93544491  0.10416221  0.25619302  1
  Te  Te172  1  0.93393811  0.08945083  0.56446346  1
  Te  Te173  1  0.91910770  0.07909306  0.92489110  1
  Te  Te174  1  0.91895019  0.41767087  0.26672860  1
  Te  Te175  1  0.91140632  0.45876265  0.59262977  1
  Te  Te176  1  0.92924105  0.40901149  0.92997490  1
  Te  Te177  1  0.91776725  0.73686395  0.27279705  1
  Te  Te178  1  0.92106565  0.72808871  0.57722715  1
  Te  Te179  1  0.91369543  0.73426789  0.93470417  1
