# generated using pymatgen
data_In2Te3
_symmetry_space_group_name_H-M   'P 1'
_cell_length_a   18.92936551
_cell_length_b   18.93277922
_cell_length_c   18.93675228
_cell_angle_alpha   89.78820732
_cell_angle_beta   89.94124299
_cell_angle_gamma   90.01167307
_symmetry_Int_Tables_number   1
_chemical_formula_structural   In2Te3
_chemical_formula_sum   'In72 Te108'
_cell_volume   6786.60731683
_cell_formula_units_Z   36
loop_
 _symmetry_equiv_pos_site_id
 _symmetry_equiv_pos_as_xyz
  1  'x, y, z'
loop_
 _atom_site_type_symbol
 _atom_site_label
 _atom_site_symmetry_multiplicity
 _atom_site_fract_x
 _atom_site_fract_y
 _atom_site_fract_z
 _atom_site_occupancy
  In  In0  1  0.52819132  0.51265562  0.68595267  1
  In  In1  1  0.18965200  0.33847533  0.82784760  1
  In  In2  1  0.87468692  0.84049224  -0.00148101  1
  In  In3  1  0.51071724  0.17135808  0.01808165  1
  In  In4  1  0.66281598  0.50650633  0.19378361  1
  In  In5  1  0.00186123  0.51448169  0.85419250  1
  In  In6  1  0.84575392  0.48969558  0.31367127  1
  In  In7  1  0.34117614  0.48184055  0.52134342  1
  In  In8  1  0.70058692  0.32868251  0.66499150  1
  In  In9  1  0.15213542  0.66931528  0.84088327  1
  In  In10  1  0.48667197  0.15580518  0.64488409  1
  In  In11  1  0.32661204  0.36897390  -0.00445598  1
  In  In12  1  -0.02633554  0.84328725  0.47846211  1
  In  In13  1  0.64666200  -0.02133600  0.00655088  1
  In  In14  1  0.32485302  0.00969140  0.33791567  1
  In  In15  1  0.33439315  0.82243984  0.13591054  1
  In  In16  1  0.31337631  0.16378303  0.49931623  1
  In  In17  1  0.15125356  0.31204538  0.47887007  1
  In  In18  1  0.51459652  0.69063238  0.15333804  1
  In  In19  1  0.31959028  0.33393007  0.69383709  1
  In  In20  1  0.12528324  0.32593675  0.21386425  1
  In  In21  1  0.13246211  0.82612797  -0.00350839  1
  In  In22  1  -0.02376262  -0.03648703  0.67377055  1
  In  In23  1  0.32452695  -0.01719520  -0.02358111  1
  In  In24  1  0.16036979  0.15690920  0.03643852  1
  In  In25  1  0.33563868  0.79054625  0.52200175  1
  In  In26  1  0.68241541  0.67618151  0.69018516  1
  In  In27  1  0.51225658  0.00128437  0.50031946  1
  In  In28  1  0.15100716  0.85779958  0.35176898  1
  In  In29  1  0.34088761  0.32163678  0.34216059  1
  In  In30  1  0.67265626  0.84771623  0.51193381  1
  In  In31  1  0.66891836  0.32658119  0.33677905  1
  In  In32  1  0.68918717  0.15891789  0.80289603  1
  In  In33  1  0.82795011  0.14978727  0.65907870  1
  In  In34  1  0.83555150  0.15637599  -0.01271305  1
  In  In35  1  0.14575441  0.68184952  0.15400471  1
  In  In36  1  0.83481405  -0.00242475  0.48977879  1
  In  In37  1  0.13616908  0.03620106  0.49077242  1
  In  In38  1  0.69602751  0.86244323  0.16402661  1
  In  In39  1  0.52407806  0.33795040  0.84905624  1
  In  In40  1  0.67083929  0.37219589  -0.00411841  1
  In  In41  1  0.14357141  0.50305365  0.68797599  1
  In  In42  1  0.33813442  0.67956330  0.31903026  1
  In  In43  1  -0.00588339  0.68183966  0.33137778  1
  In  In44  1  0.51598018  0.33372502  0.48421837  1
  In  In45  1  0.01438010  0.68226809  0.66115773  1
  In  In46  1  0.15577129  -0.07399594  0.80481678  1
  In  In47  1  0.16368845  0.49387717  0.35931189  1
  In  In48  1  0.49670533  -0.01208002  0.84781987  1
  In  In49  1  0.67073089  0.83008902  0.83746458  1
  In  In50  1  0.65302755  0.52432145  0.46257924  1
  In  In51  1  0.34934880  0.67709642  0.66917323  1
  In  In52  1  0.32961053  0.17214201  0.82389771  1
  In  In53  1  0.83921706  0.34900240  0.82503369  1
  In  In54  1  0.84442464  0.48057957  0.67824471  1
  In  In55  1  0.01509317  0.33978860  0.01215503  1
  In  In56  1  0.85607728  0.33923584  0.15410083  1
  In  In57  1  -0.00016867  0.30888807  0.63734719  1
  In  In58  1  0.52113881  -0.00570043  0.16782859  1
  In  In59  1  0.50717338  0.82169846  0.66984227  1
  In  In60  1  0.32845193  0.16271144  0.17978646  1
  In  In61  1  0.67085278  0.18637605  0.17915391  1
  In  In62  1  0.81786289  0.65901594  0.49449722  1
  In  In63  1  0.11758577  -0.00710047  0.17405513  1
  In  In64  1  0.00926375  0.13905416  0.84185794  1
  In  In65  1  0.34941404  0.52420989  0.86945316  1
  In  In66  1  0.70908017  0.65174546  -0.03010385  1
  In  In67  1  0.89577345  0.11310274  0.33777138  1
  In  In68  1  0.18431233  0.66199106  0.54094398  1
  In  In69  1  0.85219090  0.64383858  0.15051289  1
  In  In70  1  0.32150167  0.51919382  0.15550452  1
  In  In71  1  0.50742574  0.83949399  0.33938055  1
  Te  Te72  1  0.04860871  0.05735795  0.05630262  1
  Te  Te73  1  0.04136289  0.07930267  0.38587298  1
  Te  Te74  1  0.08123179  0.05025852  0.74390867  1
  Te  Te75  1  0.09791374  0.41827576  0.10371169  1
  Te  Te76  1  0.05922581  0.40418612  0.41104971  1
  Te  Te77  1  0.05990485  0.39940520  0.75890179  1
  Te  Te78  1  0.04601092  0.78259364  0.10999701  1
  Te  Te79  1  0.09750382  0.73794194  0.43791467  1
  Te  Te80  1  0.06850840  0.77569942  0.76783558  1
  Te  Te81  1  0.41225355  0.07206100  0.07853932  1
  Te  Te82  1  0.42127748  0.09381771  0.41747076  1
  Te  Te83  1  0.41247432  0.07175357  0.74801564  1
  Te  Te84  1  0.42073040  0.43838690  0.08186896  1
  Te  Te85  1  0.42645305  0.43054471  0.40688490  1
  Te  Te86  1  0.41665774  0.42708052  0.76290661  1
  Te  Te87  1  0.39550603  0.70977098  0.05839468  1
  Te  Te88  1  0.44298219  0.72626778  0.42564137  1
  Te  Te89  1  0.41499638  0.76115007  0.76922745  1
  Te  Te90  1  0.72261688  0.09435463  0.06957993  1
  Te  Te91  1  0.77525639  0.11599912  0.42450170  1
  Te  Te92  1  0.76327781  0.04544914  0.74412052  1
  Te  Te93  1  0.76072019  0.44146991  0.09446908  1
  Te  Te94  1  0.75461927  0.42346891  0.41762883  1
  Te  Te95  1  0.72458730  0.44171583  0.77850713  1
  Te  Te96  1  0.76394076  0.75888180  0.07413839  1
  Te  Te97  1  0.75162408  0.76495934  0.41429640  1
  Te  Te98  1  0.77680369  0.77104727  0.75171832  1
  Te  Te99  1  0.04475111  0.21142504  0.25748987  1
  Te  Te100  1  0.08840111  0.21340029  0.57005174  1
  Te  Te101  1  0.09589964  0.24663415  0.91633566  1
  Te  Te102  1  0.09144234  0.58854323  0.26047463  1
  Te  Te103  1  0.06954829  0.56571095  0.57333773  1
  Te  Te104  1  0.06126316  0.61301779  0.95085225  1
  Te  Te105  1  0.04130622  0.91377321  0.27245165  1
  Te  Te106  1  0.07449767  0.91660140  0.56429630  1
  Te  Te107  1  0.07701596  0.94525966  0.92737954  1
  Te  Te108  1  0.42544979  0.24585888  0.24945878  1
  Te  Te109  1  0.40059655  0.26956680  0.57661865  1
  Te  Te110  1  0.41443434  0.25425678  0.91999810  1
  Te  Te111  1  0.43019095  0.59373292  0.23753765  1
  Te  Te112  1  0.43401503  0.58120682  0.58731817  1
  Te  Te113  1  0.43402706  0.61863810  0.93825473  1
  Te  Te114  1  0.40555124  0.90936160  0.24734505  1
  Te  Te115  1  0.42201751  0.90612862  0.57632085  1
  Te  Te116  1  0.42164628  0.88714901  0.92334903  1
  Te  Te117  1  0.78145069  0.25638238  0.25598643  1
  Te  Te118  1  0.76025160  0.24135994  0.56384239  1
  Te  Te119  1  0.73938350  0.25958631  0.91245934  1
  Te  Te120  1  0.75579293  0.60125019  0.26590819  1
  Te  Te121  1  0.74167802  0.56688731  0.59040078  1
  Te  Te122  1  0.76460113  0.56341762  0.86825007  1
  Te  Te123  1  0.76056786  0.95213196  0.26085264  1
  Te  Te124  1  0.76474646  0.92316216  0.59744844  1
  Te  Te125  1  0.75664952  0.91637343  0.92834327  1
  Te  Te126  1  0.25877960  0.26067254  0.08528964  1
  Te  Te127  1  0.23188493  0.22510072  0.38628629  1
  Te  Te128  1  0.22293832  0.22347019  0.72952191  1
  Te  Te129  1  0.23901537  0.60566586  0.06959418  1
  Te  Te130  1  0.26730078  0.58636620  0.42563462  1
  Te  Te131  1  0.25407849  0.58209662  0.75307334  1
  Te  Te132  1  0.23596231  0.92929718  0.08969945  1
  Te  Te133  1  0.27386168  0.89993913  0.42979901  1
  Te  Te134  1  0.27529778  0.88783481  0.73215613  1
  Te  Te135  1  0.58779941  0.27831004  0.08806128  1
  Te  Te136  1  0.59351308  0.22945593  0.41976403  1
  Te  Te137  1  0.57901624  0.25122153  0.73625960  1
  Te  Te138  1  0.61317816  0.59954628  0.08411282  1
  Te  Te139  1  0.55729375  0.61681062  0.40956730  1
  Te  Te140  1  0.57197016  0.62173376  0.77542952  1
  Te  Te141  1  0.56091741  0.87921407  0.07938603  1
  Te  Te142  1  0.60543631  0.93665579  0.40044906  1
  Te  Te143  1  0.58926181  0.92335166  0.74709101  1
  Te  Te144  1  0.93109751  0.23013664  0.07869274  1
  Te  Te145  1  0.97001684  0.23364226  0.38731260  1
  Te  Te146  1  0.91715999  0.23837093  0.75787971  1
  Te  Te147  1  0.93844794  0.59426841  0.04550256  1
  Te  Te148  1  0.91978508  0.57973799  0.41538644  1
  Te  Te149  1  0.92513971  0.58921271  0.74639108  1
  Te  Te150  1  0.91159334  0.95645826  0.08107074  1
  Te  Te151  1  0.86289445  0.88863141  0.38765733  1
  Te  Te152  1  0.92511144  0.86702613  0.78340446  1
  Te  Te153  1  0.22308370  0.07831240  0.24940664  1
  Te  Te154  1  0.24779133  0.06171138  0.58063728  1
  Te  Te155  1  0.24073546  0.09415239  0.91910548  1
  Te  Te156  1  0.24846526  0.41526687  0.25716420  1
  Te  Te157  1  0.22580569  0.41117930  0.59266730  1
  Te  Te158  1  0.22221479  0.45071972  0.92236210  1
  Te  Te159  1  0.23655373  0.77064747  0.25118105  1
  Te  Te160  1  0.22664848  0.77814706  0.63522578  1
  Te  Te161  1  0.23585007  0.76739146  0.91034382  1
  Te  Te162  1  0.57435746  0.10024827  0.25167829  1
  Te  Te163  1  0.59706354  0.07830457  0.59174673  1
  Te  Te164  1  0.58495924  0.09990751  0.90571877  1
  Te  Te165  1  0.57517538  0.41392247  0.26518534  1
  Te  Te166  1  0.59358900  0.41361430  0.58818062  1
  Te  Te167  1  0.56130563  0.44944004  0.93463229  1
  Te  Te168  1  0.60465149  0.76730685  0.24869252  1
  Te  Te169  1  0.59440961  0.73669869  0.58093093  1
  Te  Te170  1  0.59282260  0.72614692  0.91099237  1
  Te  Te171  1  0.87780204  0.03847133  0.20882132  1
  Te  Te172  1  0.93358152  0.07629688  0.58175680  1
  Te  Te173  1  0.88361648  0.06963600  0.87800778  1
  Te  Te174  1  0.94917503  0.42589374  0.22923072  1
  Te  Te175  1  0.90518552  0.39916284  0.57253009  1
  Te  Te176  1  0.91077273  0.42260600  0.93644639  1
  Te  Te177  1  0.91819088  0.75360190  0.22640675  1
  Te  Te178  1  0.90659215  0.75158050  0.57919498  1
  Te  Te179  1  0.94927384  0.76594039  0.89318187  1
