# generated using pymatgen
data_In2Te3
_symmetry_space_group_name_H-M   'P 1'
_cell_length_a   18.98064979
_cell_length_b   18.94973363
_cell_length_c   18.94462037
_cell_angle_alpha   89.82520769
_cell_angle_beta   89.92707541
_cell_angle_gamma   89.90205735
_symmetry_Int_Tables_number   1
_chemical_formula_structural   In2Te3
_chemical_formula_sum   'In72 Te108'
_cell_volume   6813.92091076
_cell_formula_units_Z   36
loop_
 _symmetry_equiv_pos_site_id
 _symmetry_equiv_pos_as_xyz
  1  'x, y, z'
loop_
 _atom_site_type_symbol
 _atom_site_label
 _atom_site_symmetry_multiplicity
 _atom_site_fract_x
 _atom_site_fract_y
 _atom_site_fract_z
 _atom_site_occupancy
  In  In0  1  0.33406955  0.81753694  0.52063305  1
  In  In1  1  0.53923964  0.29418203  0.83059712  1
  In  In2  1  0.34351387  0.17156620  0.48605823  1
  In  In3  1  0.67823693  0.84101595  0.49196898  1
  In  In4  1  0.16080491  0.51439029  0.69687561  1
  In  In5  1  -0.01123341  0.50237816  0.16933915  1
  In  In6  1  0.64444244  0.66906470  -0.01607055  1
  In  In7  1  0.34327881  -0.01608020  0.72475223  1
  In  In8  1  0.30344036  0.71068649  -0.01770734  1
  In  In9  1  0.16952224  0.68067254  0.52633763  1
  In  In10  1  0.36758244  0.34104693  0.30128338  1
  In  In11  1  0.01588049  0.65962157  -0.00230088  1
  In  In12  1  0.79840342  0.16647287  0.66859771  1
  In  In13  1  0.00263503  -0.01246939  0.68485490  1
  In  In14  1  0.00564150  0.86676020  0.49022724  1
  In  In15  1  0.80896880  0.00104669  0.48112673  1
  In  In16  1  0.15266784  0.32360540  0.15444110  1
  In  In17  1  0.53009575  0.30033557  0.14945828  1
  In  In18  1  0.35033401  0.16045198  0.83535839  1
  In  In19  1  0.85518464  0.86136810  0.03114090  1
  In  In20  1  0.66296485  0.83548680  0.16588351  1
  In  In21  1  0.82540706  0.13980500  0.31372007  1
  In  In22  1  0.34903466  -0.00817129  0.32612191  1
  In  In23  1  0.50039636  0.67824408  0.17302655  1
  In  In24  1  0.16541880  0.35312244  0.84453493  1
  In  In25  1  -0.01401534  0.18047094  0.17345945  1
  In  In26  1  0.80584086  0.67740464  0.84651330  1
  In  In27  1  0.00030643  0.50834063  0.84683023  1
  In  In28  1  0.82429374  0.28776715  0.84501510  1
  In  In29  1  0.18851248  0.18930486  -0.01562875  1
  In  In30  1  0.67295918  0.48447811  0.82321411  1
  In  In31  1  0.45122931  0.93259048  -0.01156179  1
  In  In32  1  0.83662438  0.47737003  0.67154627  1
  In  In33  1  -0.00152777  0.35934793  0.33976735  1
  In  In34  1  0.81567427  0.11631064  0.01397651  1
  In  In35  1  -0.01293821  0.33370930  -0.00629822  1
  In  In36  1  0.16468674  0.29990373  0.49987721  1
  In  In37  1  0.18306007  0.12657740  0.32630766  1
  In  In38  1  0.52080328  0.33547844  0.49344060  1
  In  In39  1  0.82852347  0.51669877  0.31628585  1
  In  In40  1  0.68835764  0.47188420  0.14029629  1
  In  In41  1  0.82472022  0.32952834  0.52401812  1
  In  In42  1  0.83206609  0.01861878  0.82307223  1
  In  In43  1  0.33999794  0.86018010  0.15929442  1
  In  In44  1  0.15800398  -0.00790093  0.54054597  1
  In  In45  1  -0.01267206  0.01640504  0.33738060  1
  In  In46  1  -0.00154142  0.68960054  0.67880690  1
  In  In47  1  0.16900190  0.51511381  0.32880831  1
  In  In48  1  0.17691724  0.83252965  0.33539413  1
  In  In49  1  0.52402877  0.02009993  0.52666342  1
  In  In50  1  0.50411499  0.49369362  0.35292563  1
  In  In51  1  0.66395735  0.49968426  0.51885209  1
  In  In52  1  0.31335770  0.52710977  0.52073443  1
  In  In53  1  0.85238792  0.69473924  0.17580830  1
  In  In54  1  0.16141533  0.14484061  0.70847090  1
  In  In55  1  0.34553082  0.35999931  0.67385840  1
  In  In56  1  0.51728311  0.13226067  -0.03217456  1
  In  In57  1  0.33310065  0.48144483  0.84017855  1
  In  In58  1  0.49206455  0.66896025  0.49583909  1
  In  In59  1  0.50505945  0.83833833  0.66706611  1
  In  In60  1  0.50071118  0.67212973  0.83018089  1
  In  In61  1  0.16535977  0.68359943  0.16763986  1
  In  In62  1  0.67598190  0.31659470  0.33007332  1
  In  In63  1  0.53389222  0.02544965  0.16396116  1
  In  In64  1  -0.02371546  0.18113038  0.51315466  1
  In  In65  1  0.16001265  0.00668383  0.15675556  1
  In  In66  1  0.02414458  0.84371714  0.85911652  1
  In  In67  1  0.35417528  0.51526587  0.15662728  1
  In  In68  1  0.50003814  0.48360590  -0.02380123  1
  In  In69  1  0.82781189  0.65625516  0.47246761  1
  In  In70  1  0.81426175  0.83441934  0.65088269  1
  In  In71  1  0.67171787  0.85846449  0.82859999  1
  Te  Te72  1  0.08834067  0.11781735  0.08245174  1
  Te  Te73  1  0.08151353  0.08889657  0.43523713  1
  Te  Te74  1  0.07709418  0.05660793  0.79022741  1
  Te  Te75  1  0.07747080  0.42651132  0.07208759  1
  Te  Te76  1  0.10042874  0.42305174  0.42937563  1
  Te  Te77  1  0.06288689  0.41140566  0.74819673  1
  Te  Te78  1  0.06734816  0.76642100  0.09017042  1
  Te  Te79  1  0.08170594  0.75454485  0.42290943  1
  Te  Te80  1  0.09211073  0.73168879  0.78637166  1
  Te  Te81  1  0.42135493  0.06066158  0.06326726  1
  Te  Te82  1  0.43544184  0.08265464  0.40971540  1
  Te  Te83  1  0.42211644  0.10769466  0.71871919  1
  Te  Te84  1  0.43213736  0.40682516  0.08800011  1
  Te  Te85  1  0.39111947  0.42321807  0.42852296  1
  Te  Te86  1  0.44792535  0.40840750  0.77204402  1
  Te  Te87  1  0.41693428  0.75925150  0.07348941  1
  Te  Te88  1  0.41204060  0.75981133  0.41292711  1
  Te  Te89  1  0.41296409  0.75136157  0.74096127  1
  Te  Te90  1  0.73234097  0.03464466  0.11216776  1
  Te  Te91  1  0.71628189  0.05610956  0.37529823  1
  Te  Te92  1  0.71346183  0.09926314  0.77471310  1
  Te  Te93  1  0.79271461  0.38288301  0.09743155  1
  Te  Te94  1  0.75632443  0.41771268  0.41815701  1
  Te  Te95  1  0.74797112  0.37926822  0.74356422  1
  Te  Te96  1  0.74665271  0.74970083  0.06549543  1
  Te  Te97  1  0.75189013  0.75579108  0.39207215  1
  Te  Te98  1  0.72504052  0.74801821  0.73913934  1
  Te  Te99  1  0.08490546  0.24695127  0.27078651  1
  Te  Te100  1  0.07945761  0.23571209  0.60846151  1
  Te  Te101  1  0.07257246  0.24828903  0.90325200  1
  Te  Te102  1  0.06874703  0.60032115  0.25313454  1
  Te  Te103  1  0.07243240  0.58632098  0.59551166  1
  Te  Te104  1  0.10735974  0.58001308  0.91514851  1
  Te  Te105  1  0.08363561  0.92351538  0.25997302  1
  Te  Te106  1  0.09046278  0.88229303  0.61742042  1
  Te  Te107  1  0.08234576  0.88797746  0.98866487  1
  Te  Te108  1  0.42736867  0.23044007  0.22786757  1
  Te  Te109  1  0.41679339  0.26332727  0.58145656  1
  Te  Te110  1  0.42949133  0.25205029  0.92581788  1
  Te  Te111  1  0.41831660  0.58914755  0.26995367  1
  Te  Te112  1  0.43651273  0.56665229  0.58567663  1
  Te  Te113  1  0.40914465  0.59698695  0.92841034  1
  Te  Te114  1  0.45132698  0.91984000  0.24300571  1
  Te  Te115  1  0.40310454  0.93556219  0.58609458  1
  Te  Te116  1  0.37747268  0.91684797  0.86119886  1
  Te  Te117  1  0.72896759  0.21846060  0.22784203  1
  Te  Te118  1  0.73588272  0.21185788  0.54093370  1
  Te  Te119  1  0.73280784  0.21415030  0.93776095  1
  Te  Te120  1  0.74330286  0.59074124  0.21736046  1
  Te  Te121  1  0.76314570  0.58633104  0.59195561  1
  Te  Te122  1  0.74453396  0.56777399  0.93110545  1
  Te  Te123  1  0.73090845  0.94838483  0.23316760  1
  Te  Te124  1  0.72881098  0.94624081  0.59750948  1
  Te  Te125  1  0.76363306  0.92562220  0.92658844  1
  Te  Te126  1  0.26386873  0.25286800  0.09313150  1
  Te  Te127  1  0.26081993  0.25520383  0.38637196  1
  Te  Te128  1  0.25463845  0.26432195  0.75306772  1
  Te  Te129  1  0.25278540  0.59798415  0.07939671  1
  Te  Te130  1  0.24890374  0.61134371  0.41343412  1
  Te  Te131  1  0.28074518  0.57993095  0.74486672  1
  Te  Te132  1  0.23438758  0.91148456  0.06802578  1
  Te  Te133  1  0.24490527  0.93455476  0.42519009  1
  Te  Te134  1  0.22997915  0.91334498  0.78922073  1
  Te  Te135  1  0.60676547  0.21999414  0.05104053  1
  Te  Te136  1  0.56110896  0.24340792  0.38679339  1
  Te  Te137  1  0.58798284  0.20054150  0.72493810  1
  Te  Te138  1  0.57256348  0.57550442  0.08166941  1
  Te  Te139  1  0.60162549  0.58897629  0.41431954  1
  Te  Te140  1  0.59220471  0.58492821  0.75561433  1
  Te  Te141  1  0.58037174  0.91973538  0.06468920  1
  Te  Te142  1  0.57602164  0.92466836  0.42790607  1
  Te  Te143  1  0.58017248  0.94335967  0.74371976  1
  Te  Te144  1  0.89148476  0.24973718  0.07793268  1
  Te  Te145  1  0.90473042  0.24690155  0.39655474  1
  Te  Te146  1  0.90890198  0.22563018  0.74115037  1
  Te  Te147  1  0.90705395  0.58853511  0.07667820  1
  Te  Te148  1  0.92832353  0.57246689  0.40641970  1
  Te  Te149  1  0.90322478  0.59772189  0.75655302  1
  Te  Te150  1  0.95290469  0.93572303  0.10930963  1
  Te  Te151  1  0.89295185  0.90576304  0.39057709  1
  Te  Te152  1  0.90623454  0.88944400  0.75897028  1
  Te  Te153  1  0.28025729  0.07920643  0.22304924  1
  Te  Te154  1  0.24451390  0.10717794  0.58434705  1
  Te  Te155  1  0.25418957  0.08011431  0.91124286  1
  Te  Te156  1  0.24789513  0.42500023  0.23548809  1
  Te  Te157  1  0.22915093  0.40905506  0.58731015  1
  Te  Te158  1  0.25840918  0.40839643  0.94170675  1
  Te  Te159  1  0.27140847  0.75591173  0.24775621  1
  Te  Te160  1  0.26137867  0.74212426  0.62341971  1
  Te  Te161  1  0.23132746  0.78195054  0.87425741  1
  Te  Te162  1  0.61428187  0.11241856  0.25531349  1
  Te  Te163  1  0.59861848  0.13613472  0.58302207  1
  Te  Te164  1  0.57284349  0.04681725  0.86126278  1
  Te  Te165  1  0.58608097  0.41955475  0.24882576  1
  Te  Te166  1  0.60078284  0.39557938  0.59892215  1
  Te  Te167  1  0.60977197  0.39395421  0.92755024  1
  Te  Te168  1  0.59435008  0.74705371  0.26063695  1
  Te  Te169  1  0.59135319  0.75040334  0.57843481  1
  Te  Te170  1  0.57094274  0.78056067  0.91240370  1
  Te  Te171  1  0.90796490  0.04969140  0.20763431  1
  Te  Te172  1  0.91972198  0.05400810  0.57487092  1
  Te  Te173  1  0.92250998  0.06487196  0.92856206  1
  Te  Te174  1  0.89561842  0.39956185  0.23459899  1
  Te  Te175  1  0.93011585  0.41139472  0.57967990  1
  Te  Te176  1  0.89685306  0.41379115  0.90268783  1
  Te  Te177  1  0.88691465  0.77974388  0.28741172  1
  Te  Te178  1  0.91441736  0.76032729  0.56412572  1
  Te  Te179  1  0.91076994  0.75341440  0.92466460  1
