# generated using pymatgen
data_In2Te3
_symmetry_space_group_name_H-M   'P 1'
_cell_length_a   18.79033843
_cell_length_b   18.79885302
_cell_length_c   18.78736553
_cell_angle_alpha   90.00513038
_cell_angle_beta   90.00347448
_cell_angle_gamma   90.05823173
_symmetry_Int_Tables_number   1
_chemical_formula_structural   In2Te3
_chemical_formula_sum   'In72 Te108'
_cell_volume   6636.38560596
_cell_formula_units_Z   36
loop_
 _symmetry_equiv_pos_site_id
 _symmetry_equiv_pos_as_xyz
  1  'x, y, z'
loop_
 _atom_site_type_symbol
 _atom_site_label
 _atom_site_symmetry_multiplicity
 _atom_site_fract_x
 _atom_site_fract_y
 _atom_site_fract_z
 _atom_site_occupancy
  In  In0  1  0.49021159  0.65391371  0.13801376  1
  In  In1  1  0.17603744  0.66636875  0.50214687  1
  In  In2  1  -0.00214583  0.17000046  0.82601903  1
  In  In3  1  0.81071134  0.49405015  0.67034785  1
  In  In4  1  -0.00470013  0.50857330  0.85032862  1
  In  In5  1  0.81374419  0.33802376  0.15796485  1
  In  In6  1  -0.00579698  0.16923078  0.17117030  1
  In  In7  1  0.83863921  0.65494471  0.52416224  1
  In  In8  1  0.67399323  0.81769349  0.16290799  1
  In  In9  1  0.15355823  0.82868609  0.69554458  1
  In  In10  1  0.67213033  0.34595184  -0.01543131  1
  In  In11  1  0.01634034  0.67784291  0.65861764  1
  In  In12  1  0.33049587  -0.01349728  0.66000232  1
  In  In13  1  0.17618873  0.50179557  0.35115200  1
  In  In14  1  0.83179255  -0.01062188  0.83046219  1
  In  In15  1  0.35792162  0.33898739  0.32952684  1
  In  In16  1  -0.00000200  -0.00777269  0.00377862  1
  In  In17  1  0.00782833  0.33082293  0.35294447  1
  In  In18  1  0.50353821  0.02315896  0.15467672  1
  In  In19  1  0.17099407  0.15761565  0.35128282  1
  In  In20  1  0.17449354  0.00484592  0.17825948  1
  In  In21  1  0.67926033  0.17597522  0.83351500  1
  In  In22  1  0.84112436  0.00969869  0.51848830  1
  In  In23  1  0.49832826  0.83748025  0.35067271  1
  In  In24  1  0.50950608  0.33749392  0.17300250  1
  In  In25  1  0.01872287  0.32999018  0.66583488  1
  In  In26  1  0.49598117  0.01135490  0.86366554  1
  In  In27  1  0.35490294  0.01702600  0.33835342  1
  In  In28  1  0.16125825  0.01486456  0.84467644  1
  In  In29  1  0.16737873  0.32652699  0.83677259  1
  In  In30  1  0.66959345  0.18878194  0.49127099  1
  In  In31  1  0.50373483  0.18306559  0.65612213  1
  In  In32  1  0.02894756  -0.00544952  0.33560171  1
  In  In33  1  0.20272551  0.29634911  0.12438910  1
  In  In34  1  0.49436975  0.64717526  0.82357717  1
  In  In35  1  0.68344949  0.82599968  0.83538418  1
  In  In36  1  0.66813657  0.00184685  0.67822605  1
  In  In37  1  0.85455204  0.82078643  0.33421095  1
  In  In38  1  0.50137293  0.33059881  0.49813195  1
  In  In39  1  0.15103555  0.50211628  -0.01156538  1
  In  In40  1  0.46830064  0.82529083  0.67548747  1
  In  In41  1  0.14770774  0.81708667  0.31882201  1
  In  In42  1  0.16548867  0.01001012  0.49868832  1
  In  In43  1  0.33533333  0.50097972  0.16253403  1
  In  In44  1  -0.01008454  0.33304552  -0.00557124  1
  In  In45  1  0.31637089  0.50824884  0.81970657  1
  In  In46  1  0.66470159  0.82947143  0.52073537  1
  In  In47  1  0.82286147  0.65377468  0.14971311  1
  In  In48  1  0.66506503  0.64664412  -0.00401482  1
  In  In49  1  0.50490435  0.48805330  0.33490407  1
  In  In50  1  0.34543512  0.17785296  0.50137358  1
  In  In51  1  0.66614273  0.64104758  0.32747832  1
  In  In52  1  0.80141646  0.36046312  0.47944044  1
  In  In53  1  -0.00260534  0.66183072  0.34455570  1
  In  In54  1  0.83957234  0.18929828  0.32875262  1
  In  In55  1  0.65344557  0.00687998  0.30874737  1
  In  In56  1  0.31425140  0.83796204  0.50806992  1
  In  In57  1  0.50955277  0.49070621  -0.00293353  1
  In  In58  1  0.00237163  0.53119114  0.51686800  1
  In  In59  1  0.50184938  0.49370203  0.67161418  1
  In  In60  1  0.30291862  0.82797327  0.16841287  1
  In  In61  1  -0.01061893  -0.01083365  0.68340573  1
  In  In62  1  0.47867592  0.66088281  0.52893394  1
  In  In63  1  0.15207623  0.67964683  0.15076626  1
  In  In64  1  -0.02694185  0.50393246  0.14919587  1
  In  In65  1  0.33314252  0.18609966  0.83126952  1
  In  In66  1  0.83836826  0.67683106  0.84604478  1
  In  In67  1  0.66796059  0.33280365  0.67840110  1
  In  In68  1  0.17517876  0.81787538  -0.03475395  1
  In  In69  1  0.81628006  0.02781830  0.12903939  1
  In  In70  1  0.49930370  0.17241939  -0.01539031  1
  In  In71  1  0.48739564  0.84752791  0.00909072  1
  Te  Te72  1  0.08956890  0.08956695  0.08349101  1
  Te  Te73  1  0.05933327  0.10324776  0.43986643  1
  Te  Te74  1  0.09321425  0.09310934  0.73485005  1
  Te  Te75  1  0.08395971  0.41056001  0.09273083  1
  Te  Te76  1  0.09082040  0.41808528  0.44864811  1
  Te  Te77  1  0.08984388  0.43011039  0.75712416  1
  Te  Te78  1  0.06958688  0.75496357  0.05351666  1
  Te  Te79  1  0.07185768  0.75830141  0.43664783  1
  Te  Te80  1  0.08424934  0.72828675  0.78306073  1
  Te  Te81  1  0.40327659  0.08517195  0.06265038  1
  Te  Te82  1  0.44250728  0.09911144  0.42254916  1
  Te  Te83  1  0.42434484  0.07987246  0.74272571  1
  Te  Te84  1  0.41147134  0.40237645  0.07605711  1
  Te  Te85  1  0.40457400  0.43524716  0.43930316  1
  Te  Te86  1  0.40593253  0.41215994  0.75100198  1
  Te  Te87  1  0.38960045  0.74517284  0.07144124  1
  Te  Te88  1  0.40252721  0.74442804  0.42377950  1
  Te  Te89  1  0.38989388  0.75001577  0.77977544  1
  Te  Te90  1  0.70776931  0.09369760  0.06026924  1
  Te  Te91  1  0.75328358  0.07910704  0.41231367  1
  Te  Te92  1  0.76999090  0.09712655  0.73828163  1
  Te  Te93  1  0.75331812  0.43924432  0.06960228  1
  Te  Te94  1  0.72650520  0.42606160  0.37180693  1
  Te  Te95  1  0.75202899  0.40730837  0.77575583  1
  Te  Te96  1  0.75807177  0.75577152  0.05390614  1
  Te  Te97  1  0.74094564  0.75092296  0.41077869  1
  Te  Te98  1  0.75964235  0.74470578  0.74038125  1
  Te  Te99  1  0.09461074  0.25189835  0.25211935  1
  Te  Te100  1  0.11453684  0.25044389  0.58417520  1
  Te  Te101  1  0.08849166  0.23629179  0.93148698  1
  Te  Te102  1  0.08047849  0.57189654  0.24959735  1
  Te  Te103  1  0.12089319  0.56789233  0.61099086  1
  Te  Te104  1  0.10726138  0.60379140  0.88786559  1
  Te  Te105  1  0.06844112  0.90063278  0.22104924  1
  Te  Te106  1  0.08860089  0.91380257  0.58548439  1
  Te  Te107  1  0.06505098  0.90871222  0.89473149  1
  Te  Te108  1  0.41871542  0.24044027  0.23925701  1
  Te  Te109  1  0.40016810  0.28064161  0.60221459  1
  Te  Te110  1  0.43045047  0.27357060  0.90100494  1
  Te  Te111  1  0.41793165  0.58834744  0.25598518  1
  Te  Te112  1  0.38763065  0.58380222  0.62073929  1
  Te  Te113  1  0.40602786  0.57797563  0.92694731  1
  Te  Te114  1  0.41911857  0.90969919  0.23903745  1
  Te  Te115  1  0.42949349  0.92299464  0.56319921  1
  Te  Te116  1  0.39443575  0.92185555  0.92112169  1
  Te  Te117  1  0.73720292  0.23756464  0.23673887  1
  Te  Te118  1  0.76458070  0.25623058  0.58807804  1
  Te  Te119  1  0.77111200  0.25833640  0.91460029  1
  Te  Te120  1  0.76503664  0.56096378  0.25295362  1
  Te  Te121  1  0.72843850  0.57382929  0.57575058  1
  Te  Te122  1  0.74621171  0.57255938  0.89851477  1
  Te  Te123  1  0.75928197  0.91180900  0.24992964  1
  Te  Te124  1  0.76472747  0.90735051  0.60568908  1
  Te  Te125  1  0.75845791  0.90803302  0.93173329  1
  Te  Te126  1  0.28722453  0.20727443  0.04462833  1
  Te  Te127  1  0.25213616  0.26719891  0.41865667  1
  Te  Te128  1  0.24481822  0.25393238  0.73243300  1
  Te  Te129  1  0.24670776  0.58829017  0.07337462  1
  Te  Te130  1  0.27172646  0.57466694  0.43608285  1
  Te  Te131  1  0.25286119  0.58015230  0.70551800  1
  Te  Te132  1  0.23757914  0.92027336  0.06774936  1
  Te  Te133  1  0.24392576  0.92148183  0.39251729  1
  Te  Te134  1  0.25446427  0.91706809  0.76997078  1
  Te  Te135  1  0.59161363  0.25121061  0.07713588  1
  Te  Te136  1  0.58261959  0.26055258  0.39681492  1
  Te  Te137  1  0.56789456  0.26024140  0.76998816  1
  Te  Te138  1  0.60016786  0.55667116  0.10409406  1
  Te  Te139  1  0.57398764  0.58372268  0.43410266  1
  Te  Te140  1  0.59932921  0.57120403  0.75420727  1
  Te  Te141  1  0.59649599  0.92375829  0.08410373  1
  Te  Te142  1  0.59215745  0.92743898  0.42788443  1
  Te  Te143  1  0.57030078  0.91459833  0.75812013  1
  Te  Te144  1  0.90013787  0.23823390  0.07581144  1
  Te  Te145  1  0.91317250  0.25443903  0.44366711  1
  Te  Te146  1  0.92011166  0.27879974  0.76354359  1
  Te  Te147  1  0.92095938  0.59791250  0.04470179  1
  Te  Te148  1  0.89771935  0.56888550  0.41069420  1
  Te  Te149  1  0.92098775  0.58139516  0.73509721  1
  Te  Te150  1  0.90397864  0.91735844  0.08912633  1
  Te  Te151  1  0.92726116  0.92012469  0.42327541  1
  Te  Te152  1  0.91979302  0.88855834  0.76568601  1
  Te  Te153  1  0.26920431  0.10397769  0.24600471  1
  Te  Te154  1  0.25047500  0.09602705  0.59061134  1
  Te  Te155  1  0.25252750  0.10132139  0.92816678  1
  Te  Te156  1  0.24350301  0.40988552  0.24520860  1
  Te  Te157  1  0.19243739  0.37197059  0.56765346  1
  Te  Te158  1  0.25612330  0.41095395  0.92766619  1
  Te  Te159  1  0.25038735  0.72044343  0.26441487  1
  Te  Te160  1  0.25423236  0.74759957  0.61188612  1
  Te  Te161  1  0.27954511  0.74504662  0.89174837  1
  Te  Te162  1  0.57061460  0.11336829  0.25063023  1
  Te  Te163  1  0.59051309  0.08662389  0.57690766  1
  Te  Te164  1  0.62114935  0.06999053  0.93069907  1
  Te  Te165  1  0.61038016  0.40412950  0.26611941  1
  Te  Te166  1  0.59772479  0.41941237  0.57484040  1
  Te  Te167  1  0.59348241  0.43289838  0.89060475  1
  Te  Te168  1  0.56985606  0.74419974  0.24804550  1
  Te  Te169  1  0.58012600  0.74098059  0.61201574  1
  Te  Te170  1  0.57067163  0.74855570  0.92325224  1
  Te  Te171  1  0.91509046  0.07090942  0.25745914  1
  Te  Te172  1  0.92549232  0.09600521  0.60251703  1
  Te  Te173  1  0.91179988  0.08519102  0.92018752  1
  Te  Te174  1  0.92063737  0.40405571  0.25308958  1
  Te  Te175  1  0.91407287  0.42056519  0.57842486  1
  Te  Te176  1  0.89844258  0.42299732  0.92240797  1
  Te  Te177  1  0.92708537  0.73655181  0.23073708  1
  Te  Te178  1  0.92562329  0.76061683  0.57612458  1
  Te  Te179  1  0.93365685  0.72303471  0.95001900  1
