# generated using pymatgen
data_In2Te3
_symmetry_space_group_name_H-M   'P 1'
_cell_length_a   19.01038886
_cell_length_b   18.99403410
_cell_length_c   19.01168979
_cell_angle_alpha   90.20223221
_cell_angle_beta   90.17926742
_cell_angle_gamma   90.13949690
_symmetry_Int_Tables_number   1
_chemical_formula_structural   In2Te3
_chemical_formula_sum   'In72 Te108'
_cell_volume   6864.71961580
_cell_formula_units_Z   36
loop_
 _symmetry_equiv_pos_site_id
 _symmetry_equiv_pos_as_xyz
  1  'x, y, z'
loop_
 _atom_site_type_symbol
 _atom_site_label
 _atom_site_symmetry_multiplicity
 _atom_site_fract_x
 _atom_site_fract_y
 _atom_site_fract_z
 _atom_site_occupancy
  In  In0  1  0.47913369  0.84242418  0.66200593  1
  In  In1  1  0.66936691  0.33458231  0.65107777  1
  In  In2  1  0.34643985  0.00910220  0.00000953  1
  In  In3  1  0.16658353  0.61459010  0.15003793  1
  In  In4  1  0.00141376  0.18773023  0.48762107  1
  In  In5  1  0.48863655  -0.01414362  0.48114348  1
  In  In6  1  0.50828346  0.67413362  0.14826013  1
  In  In7  1  0.00063523  0.15828929  0.83257631  1
  In  In8  1  0.19501333  0.89487040  -0.05481610  1
  In  In9  1  0.16400580  0.83911101  0.34255127  1
  In  In10  1  -0.00971498  0.04905149  0.33311062  1
  In  In11  1  0.11601639  0.41165345  0.20623731  1
  In  In12  1  0.34003694  0.81200154  0.17620129  1
  In  In13  1  0.33380518  0.49207862  0.83450362  1
  In  In14  1  0.50823756  0.32720759  0.82239684  1
  In  In15  1  0.83982385  0.67655230  0.83893621  1
  In  In16  1  0.85496344  0.46888071  0.29509824  1
  In  In17  1  0.84052406  0.82792482  0.67422860  1
  In  In18  1  -0.00378627  0.66413784  0.30976813  1
  In  In19  1  0.67148877  0.32191506  0.31428928  1
  In  In20  1  0.15480500  0.01300839  0.15638947  1
  In  In21  1  0.61751467  0.01268597  -0.03554861  1
  In  In22  1  0.34264560  0.34191419  0.64843285  1
  In  In23  1  0.15552733  0.01494193  0.54188542  1
  In  In24  1  0.66520698  0.01988962  0.70670169  1
  In  In25  1  -0.00698334  0.00010696  0.68419812  1
  In  In26  1  0.68126423  -0.04228638  0.34528753  1
  In  In27  1  0.50107810  0.64926306  0.81764461  1
  In  In28  1  0.87379579  0.20580591  0.00782979  1
  In  In29  1  0.19546234  0.68790142  0.83375472  1
  In  In30  1  0.88563305  0.42030067  0.05612233  1
  In  In31  1  0.80958229  0.18079241  0.31242573  1
  In  In32  1  0.19603406  0.31415277  0.35078192  1
  In  In33  1  0.19084617  0.86051398  0.69885823  1
  In  In34  1  0.82593727  -0.04423297  0.50180493  1
  In  In35  1  0.19554107  0.16232051  0.69251669  1
  In  In36  1  0.34641459  0.32856362  -0.01844690  1
  In  In37  1  0.82247487  0.63187036  0.14310352  1
  In  In38  1  0.82579854  0.83922043  0.00454579  1
  In  In39  1  0.33171396  0.65510072  0.34403760  1
  In  In40  1  0.49117775  0.32826575  0.49365600  1
  In  In41  1  0.30651549  0.01067214  0.34958864  1
  In  In42  1  0.83122592  0.15423389  0.65426485  1
  In  In43  1  0.65816070  0.64683044  -0.02378163  1
  In  In44  1  0.66511975  0.15315758  0.51039263  1
  In  In45  1  -0.00876755  0.65438553  0.00602054  1
  In  In46  1  0.67330182  0.82515042  0.82588421  1
  In  In47  1  0.47937548  0.15236370  0.31301428  1
  In  In48  1  0.67167500  0.51281016  0.82118115  1
  In  In49  1  0.48418169  0.66639164  0.50344803  1
  In  In50  1  0.18480997  0.32660954  0.84097101  1
  In  In51  1  0.34159013  0.65902195  0.65599152  1
  In  In52  1  0.49360175  0.48649533  -0.02008224  1
  In  In53  1  0.32262170  0.18471184  0.16952376  1
  In  In54  1  0.16666825  0.16095122  0.00539740  1
  In  In55  1  0.18188587  0.65751964  0.49569785  1
  In  In56  1  0.81896038  0.00491855  0.16999996  1
  In  In57  1  0.50342796  -0.02506509  0.15926001  1
  In  In58  1  0.49666476  0.81045993  0.33081866  1
  In  In59  1  0.64850783  0.16256900  0.16402297  1
  In  In60  1  0.81937669  0.31845341  0.84832656  1
  In  In61  1  0.00552742  0.34859109  0.65593232  1
  In  In62  1  -0.01194738  0.81645138  0.16163197  1
  In  In63  1  -0.03976129  0.84116591  0.48752644  1
  In  In64  1  0.03501402  0.67624907  0.67028271  1
  In  In65  1  0.48296615  0.50968181  0.34146975  1
  In  In66  1  0.49203806  0.31908020  0.16786223  1
  In  In67  1  0.82955049  0.51964412  0.63162387  1
  In  In68  1  0.66491135  0.50605351  0.46685759  1
  In  In69  1  0.00950883  0.49965670  0.46920786  1
  In  In70  1  0.49254841  0.14341445  0.72299746  1
  In  In71  1  0.01942102  0.49956291  0.82743003  1
  Te  Te72  1  0.06094971  0.09472689  0.08194411  1
  Te  Te73  1  0.10173584  0.09606398  0.42047580  1
  Te  Te74  1  0.10909932  0.05837729  0.77560475  1
  Te  Te75  1  0.04754428  0.42011290  0.07144787  1
  Te  Te76  1  0.10623098  0.38469144  0.45628911  1
  Te  Te77  1  0.11193730  0.41549801  0.74232353  1
  Te  Te78  1  0.09051739  0.73522804  0.08874866  1
  Te  Te79  1  0.07222105  0.74457587  0.42042400  1
  Te  Te80  1  0.08770071  0.77517545  0.77087281  1
  Te  Te81  1  0.42251838  0.09182254  0.10348334  1
  Te  Te82  1  0.39888684  0.10155572  0.42865693  1
  Te  Te83  1  0.39762443  0.04290884  0.77814178  1
  Te  Te84  1  0.41064072  0.41820938  0.08621918  1
  Te  Te85  1  0.40425528  0.43693506  0.44394780  1
  Te  Te86  1  0.43210626  0.42774432  0.73965427  1
  Te  Te87  1  0.42275539  0.76314267  0.06774016  1
  Te  Te88  1  0.39189867  0.76325290  0.42883231  1
  Te  Te89  1  0.40424293  0.74913547  0.75837251  1
  Te  Te90  1  0.71923751  0.06628074  0.07339616  1
  Te  Te91  1  0.75900580  0.07819953  0.41438744  1
  Te  Te92  1  0.76781706  0.09890846  0.77326302  1
  Te  Te93  1  0.75683480  0.42321684  0.12910419  1
  Te  Te94  1  0.75831606  0.40707426  0.40157557  1
  Te  Te95  1  0.76573334  0.41886699  0.73574208  1
  Te  Te96  1  0.73888490  0.73574489  0.07036926  1
  Te  Te97  1  0.81608004  0.81452847  0.44945386  1
  Te  Te98  1  0.74229035  0.72528564  0.73641634  1
  Te  Te99  1  0.08592017  0.27088319  0.25767256  1
  Te  Te100  1  0.07716800  0.22178100  0.61394589  1
  Te  Te101  1  0.07847644  0.25682381  0.91783728  1
  Te  Te102  1  0.08859929  0.55592153  0.26375096  1
  Te  Te103  1  0.09170184  0.57013635  0.58170364  1
  Te  Te104  1  0.09467927  0.59783986  0.91206997  1
  Te  Te105  1  0.07802938  0.91416341  0.24389821  1
  Te  Te106  1  0.06990850  0.90234431  0.59574893  1
  Te  Te107  1  0.07845064  0.95745159  0.88802897  1
  Te  Te108  1  0.39435046  0.26947793  0.27455323  1
  Te  Te109  1  0.44634322  0.23972454  0.60600093  1
  Te  Te110  1  0.44287114  0.23353035  0.92049121  1
  Te  Te111  1  0.41219528  0.59040458  0.23481351  1
  Te  Te112  1  0.39541607  0.56105451  0.55940600  1
  Te  Te113  1  0.40529374  0.59337024  0.92200854  1
  Te  Te114  1  0.40299337  0.92426511  0.26974209  1
  Te  Te115  1  0.39575813  0.93255822  0.58021978  1
  Te  Te116  1  0.41182043  0.93430615  0.88861613  1
  Te  Te117  1  0.75803222  0.27172309  0.19857008  1
  Te  Te118  1  0.76417413  0.25512257  0.56296853  1
  Te  Te119  1  0.74608924  0.25398711  0.95493838  1
  Te  Te120  1  0.74185308  0.54793649  0.23487309  1
  Te  Te121  1  0.74333863  0.60062925  0.54883145  1
  Te  Te122  1  0.77485104  0.56813695  0.92124495  1
  Te  Te123  1  0.73706112  0.89611437  0.22618532  1
  Te  Te124  1  0.73403409  0.91810748  0.61397715  1
  Te  Te125  1  0.74059015  0.92570397  0.91546094  1
  Te  Te126  1  0.24274707  0.27315698  0.07892877  1
  Te  Te127  1  0.24512394  0.26011346  0.47820387  1
  Te  Te128  1  0.29182873  0.25575008  0.76423886  1
  Te  Te129  1  0.24821463  0.53783853  0.06109440  1
  Te  Te130  1  0.23779448  0.55906858  0.40302392  1
  Te  Te131  1  0.24804141  0.57738434  0.74330841  1
  Te  Te132  1  0.25569245  0.91851220  0.09572111  1
  Te  Te133  1  0.23488100  0.91998072  0.44626936  1
  Te  Te134  1  0.28939291  0.92498941  0.79070586  1
  Te  Te135  1  0.57159330  0.24501049  0.07132927  1
  Te  Te136  1  0.58432708  0.23185406  0.40701762  1
  Te  Te137  1  0.61104349  0.23989426  0.75093215  1
  Te  Te138  1  0.58447732  0.56261376  0.07595396  1
  Te  Te139  1  0.57931829  0.61154090  0.39789422  1
  Te  Te140  1  0.58413870  0.57561723  0.72371874  1
  Te  Te141  1  0.56820115  0.90475673  0.05046339  1
  Te  Te142  1  0.58786193  0.88136969  0.43398981  1
  Te  Te143  1  0.57196025  0.91674431  0.76215119  1
  Te  Te144  1  0.95875439  0.29315980  0.09272078  1
  Te  Te145  1  0.90993242  0.26033098  0.39561669  1
  Te  Te146  1  0.91703419  0.25695163  0.74245450  1
  Te  Te147  1  0.94807646  0.55349913  0.10944297  1
  Te  Te148  1  0.90445666  0.58013407  0.39449470  1
  Te  Te149  1  0.92577080  0.58606061  0.74371812  1
  Te  Te150  1  0.92116986  0.92640104  0.08399527  1
  Te  Te151  1  0.91457788  0.92521875  0.36607707  1
  Te  Te152  1  0.90811137  0.91686390  0.76806086  1
  Te  Te153  1  0.23030438  0.10083758  0.25523411  1
  Te  Te154  1  0.27423514  0.07339162  0.60546079  1
  Te  Te155  1  0.26612795  0.10078049  0.91864201  1
  Te  Te156  1  0.24915572  0.42590613  0.27156069  1
  Te  Te157  1  0.22390047  0.37845415  0.56452450  1
  Te  Te158  1  0.23648027  0.43820409  0.94039770  1
  Te  Te159  1  0.23204669  0.73750045  0.25225369  1
  Te  Te160  1  0.24015188  0.75586599  0.59800862  1
  Te  Te161  1  0.25708311  0.76334880  0.94316825  1
  Te  Te162  1  0.58843421  0.05750698  0.26766435  1
  Te  Te163  1  0.57138245  0.06754821  0.59016835  1
  Te  Te164  1  0.53515967  0.10536035  0.88308617  1
  Te  Te165  1  0.56869961  0.41524840  0.25666287  1
  Te  Te166  1  0.58373802  0.42433210  0.56753598  1
  Te  Te167  1  0.60308858  0.41050203  0.90861271  1
  Te  Te168  1  0.59312610  0.75841780  0.23525829  1
  Te  Te169  1  0.56662168  0.74544862  0.59506731  1
  Te  Te170  1  0.57228830  0.74909032  0.90838975  1
  Te  Te171  1  0.91318328  0.11419310  0.22325622  1
  Te  Te172  1  0.91970107  0.07022322  0.56362052  1
  Te  Te173  1  0.91377465  0.09048302  0.92759577  1
  Te  Te174  1  0.96111428  0.36409432  0.28548522  1
  Te  Te175  1  0.91310824  0.41767865  0.55882862  1
  Te  Te176  1  0.92111803  0.41687720  0.90456125  1
  Te  Te177  1  0.88552883  0.73643213  0.23686194  1
  Te  Te178  1  0.92124503  0.73111783  0.58929576  1
  Te  Te179  1  0.92989110  0.76452922  0.92218014  1
