# generated using pymatgen
data_In2Te3
_symmetry_space_group_name_H-M   'P 1'
_cell_length_a   18.91569425
_cell_length_b   18.91933292
_cell_length_c   18.91661523
_cell_angle_alpha   89.99782449
_cell_angle_beta   90.07287806
_cell_angle_gamma   90.16142710
_symmetry_Int_Tables_number   1
_chemical_formula_structural   In2Te3
_chemical_formula_sum   'In72 Te108'
_cell_volume   6769.70057289
_cell_formula_units_Z   36
loop_
 _symmetry_equiv_pos_site_id
 _symmetry_equiv_pos_as_xyz
  1  'x, y, z'
loop_
 _atom_site_type_symbol
 _atom_site_label
 _atom_site_symmetry_multiplicity
 _atom_site_fract_x
 _atom_site_fract_y
 _atom_site_fract_z
 _atom_site_occupancy
  In  In0  1  0.35651173  0.51500293  0.80185411  1
  In  In1  1  0.53036660  0.67478851  0.16941026  1
  In  In2  1  0.17634868  0.50723418  0.69072977  1
  In  In3  1  0.83016661  0.86193944  0.69610361  1
  In  In4  1  0.17985701  0.16073448  0.33495772  1
  In  In5  1  0.32117622  0.85093488  0.49770083  1
  In  In6  1  0.35192245  0.18263709  0.82724340  1
  In  In7  1  0.81635036  0.00249323  0.48934738  1
  In  In8  1  0.00562494  0.67414979  0.66581404  1
  In  In9  1  0.16382116  0.00152527  0.83996320  1
  In  In10  1  0.50254951  0.65308707  0.49776748  1
  In  In11  1  0.33434812  0.33570080  0.67858325  1
  In  In12  1  0.66339716  0.65261555  -0.02487266  1
  In  In13  1  0.00362157  0.49039425  0.82714288  1
  In  In14  1  0.83079352  0.33563941  0.49855509  1
  In  In15  1  0.21145876  0.30165747  0.18955305  1
  In  In16  1  0.51366328  0.49558903  0.62998956  1
  In  In17  1  0.81403240  0.49605417  0.33055753  1
  In  In18  1  0.82240559  -0.00333116  0.17097472  1
  In  In19  1  0.67554234  0.84697453  0.18181026  1
  In  In20  1  0.81320367  0.50758581  0.66171904  1
  In  In21  1  0.68617190  0.81087617  0.47570254  1
  In  In22  1  0.50424261  0.66895658  0.81986949  1
  In  In23  1  -0.00263871  0.84659531  0.18846433  1
  In  In24  1  0.51772138  0.49561914  0.35828998  1
  In  In25  1  -0.00024667  0.51153912  0.14963685  1
  In  In26  1  0.50323107  0.02101731  0.18588503  1
  In  In27  1  0.00297211  0.02166611  0.32987131  1
  In  In28  1  0.33379628  -0.02026849  -0.00480133  1
  In  In29  1  0.01305093  0.15039313  0.12083550  1
  In  In30  1  -0.02872532  0.84656090  0.51004905  1
  In  In31  1  0.48094667  0.29631141  0.19017942  1
  In  In32  1  0.16258053  0.66600023  0.47628974  1
  In  In33  1  0.15759299  0.83345864  0.65418347  1
  In  In34  1  0.51710895  0.87508690  0.68172164  1
  In  In35  1  0.53012465  0.15155838  0.66445145  1
  In  In36  1  0.33532835  0.15938950  0.48629406  1
  In  In37  1  0.17452202  0.31047239  0.85168216  1
  In  In38  1  -0.01024250  0.31244783  0.35007558  1
  In  In39  1  0.81732913  0.14682174  0.66664376  1
  In  In40  1  0.15507120  0.86014309  0.35039436  1
  In  In41  1  -0.02126989  0.65396166  -0.00045634  1
  In  In42  1  0.00781282  -0.01734648  0.68106386  1
  In  In43  1  0.67678824  0.68203589  0.66343756  1
  In  In44  1  0.51125080  0.85161055  0.32472195  1
  In  In45  1  0.16693042  0.66709449  0.15486876  1
  In  In46  1  0.81852454  0.84216461  -0.01228266  1
  In  In47  1  0.81507748  0.34688866  0.17971310  1
  In  In48  1  0.17682496  0.47409357  0.31657458  1
  In  In49  1  0.30774405  0.64744353  -0.01817781  1
  In  In50  1  0.17696037  0.47979088  -0.01056754  1
  In  In51  1  0.68065241  0.16668831  0.18472409  1
  In  In52  1  0.00330581  0.32442575  -0.00827375  1
  In  In53  1  0.50423090  0.32992657  0.49332801  1
  In  In54  1  0.34048246  0.01555076  0.65122320  1
  In  In55  1  0.66915798  0.16813342  0.50103456  1
  In  In56  1  0.66731973  0.17330499  0.83112113  1
  In  In57  1  0.83577445  0.32943321  0.84943638  1
  In  In58  1  0.49157057  0.80082407  -0.01086920  1
  In  In59  1  0.65308071  0.48921594  0.17702921  1
  In  In60  1  0.34423661  0.84155952  0.17282771  1
  In  In61  1  0.34427069  0.30545721  0.01907696  1
  In  In62  1  0.51353391  0.17704511  0.01632664  1
  In  In63  1  -0.02005633  0.51489766  0.46624752  1
  In  In64  1  0.32827547  0.81741056  0.84342657  1
  In  In65  1  -0.03012229  0.30166591  0.66929723  1
  In  In66  1  -0.00728776  0.85190983  0.83863770  1
  In  In67  1  0.34144481  0.65867660  0.32038634  1
  In  In68  1  -0.04145711  0.67334149  0.31150131  1
  In  In69  1  0.64583163  -0.00931802  0.01081630  1
  In  In70  1  0.16544493  0.31736161  0.53500429  1
  In  In71  1  0.65119938  0.46785979  0.85747822  1
  Te  Te72  1  0.09076569  0.04403625  0.04591924  1
  Te  Te73  1  0.07849213  0.10463425  0.42519428  1
  Te  Te74  1  0.08671911  0.08599530  0.74871447  1
  Te  Te75  1  0.09311974  0.40611877  0.09194121  1
  Te  Te76  1  0.08967607  0.40917205  0.42633062  1
  Te  Te77  1  0.08535384  0.39160740  0.74596284  1
  Te  Te78  1  0.06094092  0.74973827  0.08721832  1
  Te  Te79  1  0.05447270  0.75291527  0.41292284  1
  Te  Te80  1  0.08679378  0.75646845  0.76397374  1
  Te  Te81  1  0.41462745  0.08200908  0.07976389  1
  Te  Te82  1  0.43313388  0.12171217  0.38112040  1
  Te  Te83  1  0.43216162  0.07648664  0.75549716  1
  Te  Te84  1  0.42367134  0.39829037  0.09869616  1
  Te  Te85  1  0.41090297  0.41824201  0.42269019  1
  Te  Te86  1  0.44891430  0.41197159  0.74110351  1
  Te  Te87  1  0.40190744  0.72725218  0.08972681  1
  Te  Te88  1  0.41664572  0.75877781  0.40919996  1
  Te  Te89  1  0.42100662  0.76280197  0.73576337  1
  Te  Te90  1  0.74711011  0.08553394  0.07336930  1
  Te  Te91  1  0.77738155  0.12096536  0.40653039  1
  Te  Te92  1  0.70857482  0.06451145  0.73101823  1
  Te  Te93  1  0.73893941  0.41974163  0.07987996  1
  Te  Te94  1  0.73223811  0.41242783  0.42004934  1
  Te  Te95  1  0.74779317  0.40479515  0.75054270  1
  Te  Te96  1  0.72822502  0.75537846  0.07298930  1
  Te  Te97  1  0.79270752  0.75276886  0.39245138  1
  Te  Te98  1  0.75894733  0.75205392  0.76325489  1
  Te  Te99  1  0.07796703  0.24729063  0.24628131  1
  Te  Te100  1  0.05699063  0.22773114  0.57740738  1
  Te  Te101  1  0.06992223  0.22034747  0.90759655  1
  Te  Te102  1  0.08362689  0.58963595  0.26244011  1
  Te  Te103  1  0.08515102  0.57933160  0.57719366  1
  Te  Te104  1  0.08689700  0.57975956  0.91860283  1
  Te  Te105  1  0.10047522  0.94732726  0.23831673  1
  Te  Te106  1  0.08890602  0.92810853  0.55997698  1
  Te  Te107  1  0.08168674  0.92065098  0.93639509  1
  Te  Te108  1  0.38549985  0.20069412  0.25813669  1
  Te  Te109  1  0.41653894  0.24148049  0.59321136  1
  Te  Te110  1  0.44963798  0.27165332  0.90401801  1
  Te  Te111  1  0.44240404  0.57763076  0.24614858  1
  Te  Te112  1  0.40809840  0.58803965  0.58812638  1
  Te  Te113  1  0.42815780  0.58074267  0.91936224  1
  Te  Te114  1  0.40051254  0.94227394  0.27052670  1
  Te  Te115  1  0.43181970  0.93284047  0.56271507  1
  Te  Te116  1  0.43322044  0.91083697  0.90258753  1
  Te  Te117  1  0.76663324  0.24660351  0.27587736  1
  Te  Te118  1  0.74349088  0.25947185  0.59849969  1
  Te  Te119  1  0.75163382  0.24155696  0.93069997  1
  Te  Te120  1  0.76033630  0.58219443  0.22438653  1
  Te  Te121  1  0.73402143  0.58590599  0.56619483  1
  Te  Te122  1  0.75242091  0.56432319  0.90068584  1
  Te  Te123  1  0.72373443  0.95258569  0.27391246  1
  Te  Te124  1  0.74155967  0.90828343  0.58051624  1
  Te  Te125  1  0.73237994  0.93127598  0.90562802  1
  Te  Te126  1  0.23180614  0.22247506  0.06614096  1
  Te  Te127  1  0.25019658  0.26773227  0.41993674  1
  Te  Te128  1  0.23934653  0.23278222  0.73749669  1
  Te  Te129  1  0.25541250  0.55969596  0.09593578  1
  Te  Te130  1  0.25873952  0.56954362  0.41113466  1
  Te  Te131  1  0.24785120  0.60796984  0.76844332  1
  Te  Te132  1  0.24484104  0.90527226  0.08643817  1
  Te  Te133  1  0.25291627  0.94972252  0.41300261  1
  Te  Te134  1  0.25592157  0.91415961  0.74010742  1
  Te  Te135  1  0.60279281  0.26473425  0.09859489  1
  Te  Te136  1  0.57322862  0.23253862  0.40365221  1
  Te  Te137  1  0.59103597  0.26093011  0.74040257  1
  Te  Te138  1  0.57542091  0.57271560  0.06891373  1
  Te  Te139  1  0.61067572  0.59352020  0.41947087  1
  Te  Te140  1  0.59351167  0.57453210  0.74286841  1
  Te  Te141  1  0.55341763  0.89757046  0.09698879  1
  Te  Te142  1  0.61640069  0.92286757  0.40217079  1
  Te  Te143  1  0.62529730  0.93492691  0.76038632  1
  Te  Te144  1  0.90737813  0.26314877  0.09124999  1
  Te  Te145  1  0.90596780  0.22382398  0.43425323  1
  Te  Te146  1  0.90430528  0.21375842  0.77316686  1
  Te  Te147  1  0.88888972  0.59636648  0.10265238  1
  Te  Te148  1  0.87685627  0.61790241  0.42902221  1
  Te  Te149  1  0.91466009  0.58407753  0.74865351  1
  Te  Te150  1  0.91303114  0.91744602  0.08002486  1
  Te  Te151  1  0.90737207  0.92335138  0.39633644  1
  Te  Te152  1  0.90092050  0.96157137  0.78883447  1
  Te  Te153  1  0.25509035  0.12808394  0.21018209  1
  Te  Te154  1  0.24098738  0.08771313  0.57309556  1
  Te  Te155  1  0.26657376  0.09000325  0.91279376  1
  Te  Te156  1  0.29033005  0.40896051  0.25043383  1
  Te  Te157  1  0.25725385  0.43030059  0.58876395  1
  Te  Te158  1  0.27848051  0.41126045  0.90002268  1
  Te  Te159  1  0.23635400  0.75717690  0.26524485  1
  Te  Te160  1  0.24962004  0.74127331  0.57600435  1
  Te  Te161  1  0.23345014  0.76720982  0.94362744  1
  Te  Te162  1  0.57851604  0.10908272  0.28054178  1
  Te  Te163  1  0.58037300  0.06458571  0.55800421  1
  Te  Te164  1  0.57044656  0.08176969  0.91581858  1
  Te  Te165  1  0.57804683  0.39225263  0.26545722  1
  Te  Te166  1  0.61078154  0.41723908  0.55084344  1
  Te  Te167  1  0.55218239  0.38789591  0.92701525  1
  Te  Te168  1  0.60985648  0.74452120  0.27537860  1
  Te  Te169  1  0.57505479  0.76550435  0.58310999  1
  Te  Te170  1  0.59939978  0.76345338  0.89053659  1
  Te  Te171  1  0.91897423  0.09777316  0.22991254  1
  Te  Te172  1  0.91449166  0.06346687  0.58737195  1
  Te  Te173  1  0.97233395  0.10343745  0.97934735  1
  Te  Te174  1  0.93504290  0.42666889  0.26491161  1
  Te  Te175  1  0.92805371  0.42557552  0.58581508  1
  Te  Te176  1  0.91371549  0.43250408  0.93416286  1
  Te  Te177  1  0.87701998  0.77968362  0.24882137  1
  Te  Te178  1  0.89562713  0.75487156  0.60146677  1
  Te  Te179  1  0.90417236  0.74645396  0.90513665  1
