# generated using pymatgen
data_In2Te3
_symmetry_space_group_name_H-M   'P 1'
_cell_length_a   18.72521488
_cell_length_b   18.73294694
_cell_length_c   18.73023348
_cell_angle_alpha   89.99215382
_cell_angle_beta   89.97373448
_cell_angle_gamma   90.01607064
_symmetry_Int_Tables_number   1
_chemical_formula_structural   In2Te3
_chemical_formula_sum   'In72 Te108'
_cell_volume   6570.16138787
_cell_formula_units_Z   36
loop_
 _symmetry_equiv_pos_site_id
 _symmetry_equiv_pos_as_xyz
  1  'x, y, z'
loop_
 _atom_site_type_symbol
 _atom_site_label
 _atom_site_symmetry_multiplicity
 _atom_site_fract_x
 _atom_site_fract_y
 _atom_site_fract_z
 _atom_site_occupancy
  In  In0  1  0.17340907  0.13724935  -0.02616902  1
  In  In1  1  0.16781818  0.30798957  0.82585093  1
  In  In2  1  0.49605704  0.15641660  0.65335930  1
  In  In3  1  -0.01846894  0.30232651  0.69445084  1
  In  In4  1  0.50804646  0.16531580  -0.01913850  1
  In  In5  1  -0.03371378  0.69610491  -0.00651886  1
  In  In6  1  0.51782247  -0.01690490  0.83500963  1
  In  In7  1  0.33372725  0.83133702  0.84959425  1
  In  In8  1  0.34690756  0.80754161  0.13761195  1
  In  In9  1  0.66929432  0.31720944  -0.03264381  1
  In  In10  1  0.16207770  0.15213577  0.69214458  1
  In  In11  1  0.34786328  0.34184892  0.02189570  1
  In  In12  1  0.83684922  0.34048092  0.16782055  1
  In  In13  1  0.52488292  0.83328423  0.67939100  1
  In  In14  1  0.65110163  0.32748836  0.32211545  1
  In  In15  1  0.33956753  -0.02230697  0.69045413  1
  In  In16  1  0.16608923  -0.01681242  0.15774007  1
  In  In17  1  -0.01477025  -0.00559653  0.67625756  1
  In  In18  1  0.50978306  0.34873823  0.15880598  1
  In  In19  1  0.32970418  0.48758710  0.49610311  1
  In  In20  1  0.33080186  0.17994505  0.51517070  1
  In  In21  1  0.01161131  0.52375418  0.50626015  1
  In  In22  1  0.33464285  0.15949265  0.16221284  1
  In  In23  1  0.00565353  0.15302075  0.16124478  1
  In  In24  1  0.68098453  0.14251211  0.82982369  1
  In  In25  1  0.83080613  -0.02783846  0.52483568  1
  In  In26  1  0.66582771  0.52706754  0.16144502  1
  In  In27  1  0.81955341  0.12265090  0.01065740  1
  In  In28  1  0.15453239  0.51092089  0.62830561  1
  In  In29  1  0.81584553  0.52070540  0.31629294  1
  In  In30  1  0.35214067  0.82023310  0.49323864  1
  In  In31  1  0.83223882  0.73207739  0.50655030  1
  In  In32  1  0.35733007  0.50901220  0.84782753  1
  In  In33  1  0.83760101  0.51014601  0.68011458  1
  In  In34  1  0.53570057  0.83549533  0.33841976  1
  In  In35  1  0.52962790  0.66760244  0.84445268  1
  In  In36  1  0.65333728  0.50836334  0.49893079  1
  In  In37  1  0.53582336  -0.00508721  0.47093879  1
  In  In38  1  0.69882796  0.67814450  0.70393372  1
  In  In39  1  0.16070585  0.69485386  0.82648047  1
  In  In40  1  0.67311147  0.82801644  0.16282286  1
  In  In41  1  0.50034615  0.33767752  0.84236485  1
  In  In42  1  0.32889711  0.34490142  0.35886778  1
  In  In43  1  0.31959452  0.65880818  0.65817898  1
  In  In44  1  0.15049022  0.85184585  0.68285095  1
  In  In45  1  -0.03182889  -0.00534844  0.34193226  1
  In  In46  1  0.18383831  0.50566172  0.32118981  1
  In  In47  1  -0.00274284  0.51420336  0.82584273  1
  In  In48  1  0.66941193  0.16839952  0.51398886  1
  In  In49  1  0.50821502  0.67252592  0.49340943  1
  In  In50  1  0.18177553  0.51309549  0.01634760  1
  In  In51  1  0.66028933  0.49864981  0.83745245  1
  In  In52  1  0.16774485  0.32639931  0.51449376  1
  In  In53  1  -0.03056132  0.33973177  0.33624389  1
  In  In54  1  0.16807413  0.68092716  0.15724595  1
  In  In55  1  0.67344342  0.33750988  0.65456989  1
  In  In56  1  0.82188208  -0.02734058  0.83539345  1
  In  In57  1  0.66183405  -0.01910725  0.32090175  1
  In  In58  1  0.67390281  0.68266592  -0.00169937  1
  In  In59  1  -0.02522740  0.69288597  0.31069623  1
  In  In60  1  0.82718403  0.32116747  0.51306292  1
  In  In61  1  0.50146156  -0.01117721  0.14150751  1
  In  In62  1  0.16664900  0.34819551  0.17829313  1
  In  In63  1  0.02072664  0.33916249  -0.01036125  1
  In  In64  1  0.52127877  0.15895456  0.32656830  1
  In  In65  1  0.15063619  0.84155251  0.32267526  1
  In  In66  1  0.32120892  -0.00197966  0.31641601  1
  In  In67  1  0.14331752  0.64906950  0.49394353  1
  In  In68  1  0.84132150  0.51613192  0.00368390  1
  In  In69  1  0.12996127  0.00915252  0.51264045  1
  In  In70  1  0.14555537  0.85885954  -0.02569388  1
  In  In71  1  0.84545963  0.16320595  0.32877145  1
  Te  Te72  1  0.07303195  0.05873640  0.06093841  1
  Te  Te73  1  0.07711662  0.08048667  0.39538109  1
  Te  Te74  1  0.06843861  0.07005058  0.77426947  1
  Te  Te75  1  0.07361459  0.43736929  0.09499538  1
  Te  Te76  1  0.08911515  0.41716208  0.41569019  1
  Te  Te77  1  0.08319199  0.41549505  0.74264808  1
  Te  Te78  1  0.07218241  0.77083554  0.07807057  1
  Te  Te79  1  0.06487425  0.75801861  0.41732899  1
  Te  Te80  1  0.05474732  0.78486213  0.77667120  1
  Te  Te81  1  0.40604488  0.07611084  0.05806349  1
  Te  Te82  1  0.41467920  0.08100180  0.41282287  1
  Te  Te83  1  0.42145849  0.08346765  0.76584831  1
  Te  Te84  1  0.43245653  0.45029780  0.07945510  1
  Te  Te85  1  0.43659665  0.42980618  0.41093995  1
  Te  Te86  1  0.42516313  0.42441223  0.74907237  1
  Te  Te87  1  0.45275951  0.72252253  0.08057544  1
  Te  Te88  1  0.41983332  0.73836927  0.38598958  1
  Te  Te89  1  0.41189204  0.74883599  0.74312735  1
  Te  Te90  1  0.73750773  0.07056391  0.11785773  1
  Te  Te91  1  0.74297680  0.08195002  0.41123407  1
  Te  Te92  1  0.77906018  0.07944942  0.73792421  1
  Te  Te93  1  0.73766697  0.41571439  0.07638808  1
  Te  Te94  1  0.75687629  0.40643159  0.40766680  1
  Te  Te95  1  0.75724058  0.40823390  0.76185683  1
  Te  Te96  1  0.77900272  0.74368976  0.08931161  1
  Te  Te97  1  0.73963338  0.76376206  0.39840237  1
  Te  Te98  1  0.77392917  0.78151338  0.78286078  1
  Te  Te99  1  0.07066716  0.25649224  0.25533932  1
  Te  Te100  1  0.07531775  0.23291585  0.59308305  1
  Te  Te101  1  0.06413026  0.22334432  0.90059757  1
  Te  Te102  1  0.08216162  0.59631282  0.25185947  1
  Te  Te103  1  0.04926601  0.62918236  0.61886748  1
  Te  Te104  1  0.08083315  0.59344124  0.92840329  1
  Te  Te105  1  0.04826869  0.90963119  0.22818763  1
  Te  Te106  1  0.05285206  0.89418212  0.57104971  1
  Te  Te107  1  0.04118149  0.94351869  0.91145462  1
  Te  Te108  1  0.41972612  0.25157199  0.25092569  1
  Te  Te109  1  0.43042888  0.26677557  0.58011800  1
  Te  Te110  1  0.39753641  0.24719163  0.91278518  1
  Te  Te111  1  0.37268236  0.56031797  0.21706298  1
  Te  Te112  1  0.42186504  0.57891954  0.58221617  1
  Te  Te113  1  0.41556490  0.61877063  0.92794296  1
  Te  Te114  1  0.42505585  0.90870289  0.25006671  1
  Te  Te115  1  0.43530872  0.91951604  0.57632704  1
  Te  Te116  1  0.43612165  0.90200488  0.93024727  1
  Te  Te117  1  0.74582320  0.24153554  0.24001162  1
  Te  Te118  1  0.77077731  0.22319517  0.61553186  1
  Te  Te119  1  0.78643863  0.23976716  0.90428350  1
  Te  Te120  1  0.74025609  0.62653442  0.24516146  1
  Te  Te121  1  0.75827563  0.58986777  0.57616211  1
  Te  Te122  1  0.75840174  0.59588100  0.90298910  1
  Te  Te123  1  0.77040390  0.90428522  0.25045756  1
  Te  Te124  1  0.71779011  0.91371001  0.60027872  1
  Te  Te125  1  0.74901095  0.87520311  0.92495726  1
  Te  Te126  1  0.22999924  0.24904532  0.07751336  1
  Te  Te127  1  0.23445539  0.23547450  0.40905131  1
  Te  Te128  1  0.26837830  0.24435232  0.73858975  1
  Te  Te129  1  0.28102944  0.59533391  0.09692210  1
  Te  Te130  1  0.26278216  0.59927395  0.41319020  1
  Te  Te131  1  0.23411056  0.57831391  0.75717977  1
  Te  Te132  1  0.26335677  0.91432261  0.06499869  1
  Te  Te133  1  0.24671375  0.91656088  0.42346078  1
  Te  Te134  1  0.22888634  0.93747885  0.79232265  1
  Te  Te135  1  0.59292792  0.24581497  0.08025547  1
  Te  Te136  1  0.57329341  0.25638144  0.43362455  1
  Te  Te137  1  0.58860208  0.24273706  0.75569687  1
  Te  Te138  1  0.56650252  0.61282453  0.08183976  1
  Te  Te139  1  0.59169531  0.59540757  0.39693386  1
  Te  Te140  1  0.58165021  0.57793204  0.73360036  1
  Te  Te141  1  0.58208044  0.89329791  0.06192889  1
  Te  Te142  1  0.64405064  0.87676923  0.44803809  1
  Te  Te143  1  0.62397202  0.92780321  0.74068228  1
  Te  Te144  1  0.91900203  0.24997808  0.07570710  1
  Te  Te145  1  0.92820761  0.23275866  0.43794783  1
  Te  Te146  1  0.88871414  0.23172000  0.78210785  1
  Te  Te147  1  0.91761648  0.60068179  0.09731010  1
  Te  Te148  1  0.90921459  0.59525706  0.41707587  1
  Te  Te149  1  0.90651850  0.61312177  0.76155573  1
  Te  Te150  1  0.93550151  0.88377783  0.12197390  1
  Te  Te151  1  0.88823204  0.88921437  0.41323864  1
  Te  Te152  1  0.89292154  0.88504342  0.73029853  1
  Te  Te153  1  0.22442307  0.09414614  0.24720112  1
  Te  Te154  1  0.25457333  0.06421120  0.58661739  1
  Te  Te155  1  0.26158716  0.06132520  0.88550220  1
  Te  Te156  1  0.29014446  0.43236479  0.22814117  1
  Te  Te157  1  0.26250365  0.40357947  0.60575721  1
  Te  Te158  1  0.24450381  0.41223677  0.91867698  1
  Te  Te159  1  0.25796985  0.75779252  0.25588700  1
  Te  Te160  1  0.23617526  0.76131510  0.58154716  1
  Te  Te161  1  0.24811639  0.74304051  0.94109406  1
  Te  Te162  1  0.59936573  0.08193383  0.21758576  1
  Te  Te163  1  0.60060376  0.05968809  0.59794240  1
  Te  Te164  1  0.60984287  0.06037399  0.93579532  1
  Te  Te165  1  0.57695281  0.44530968  0.25888671  1
  Te  Te166  1  0.57295495  0.41888670  0.58460154  1
  Te  Te167  1  0.56933191  0.43319927  0.94056497  1
  Te  Te168  1  0.58600182  0.73324545  0.24299449  1
  Te  Te169  1  0.60455767  0.73535599  0.59523596  1
  Te  Te170  1  0.59742679  0.78274974  0.91280248  1
  Te  Te171  1  0.89314119  0.06632016  0.21930078  1
  Te  Te172  1  0.91765246  0.08075785  0.57558700  1
  Te  Te173  1  0.91962448  0.04342795  0.93105251  1
  Te  Te174  1  0.92404030  0.44597192  0.23603109  1
  Te  Te175  1  0.92529841  0.41527239  0.58474598  1
  Te  Te176  1  0.91418780  0.41691254  0.91142000  1
  Te  Te177  1  0.88812119  0.77549824  0.21335643  1
  Te  Te178  1  0.93644673  0.74286177  0.60714984  1
  Te  Te179  1  0.88190934  0.79404893  0.91718146  1
