# generated using pymatgen
data_In2Te3
_symmetry_space_group_name_H-M   'P 1'
_cell_length_a   18.80003771
_cell_length_b   18.79675107
_cell_length_c   18.80198799
_cell_angle_alpha   89.95280367
_cell_angle_beta   90.09130124
_cell_angle_gamma   90.07393717
_symmetry_Int_Tables_number   1
_chemical_formula_structural   In2Te3
_chemical_formula_sum   'In72 Te108'
_cell_volume   6644.22332664
_cell_formula_units_Z   36
loop_
 _symmetry_equiv_pos_site_id
 _symmetry_equiv_pos_as_xyz
  1  'x, y, z'
loop_
 _atom_site_type_symbol
 _atom_site_label
 _atom_site_symmetry_multiplicity
 _atom_site_fract_x
 _atom_site_fract_y
 _atom_site_fract_z
 _atom_site_occupancy
  In  In0  1  0.50787249  0.84080447  0.33277933  1
  In  In1  1  0.83490788  0.51405567  0.34264452  1
  In  In2  1  0.82179413  0.31548713  0.48437645  1
  In  In3  1  -0.00753724  0.00190787  0.36192335  1
  In  In4  1  0.33355172  0.01759945  -0.02272525  1
  In  In5  1  0.82967343  0.66921824  0.19299760  1
  In  In6  1  0.85154873  0.15958889  0.01428498  1
  In  In7  1  0.51035266  0.19745506  0.00801676  1
  In  In8  1  -0.01376054  0.66556284  -0.01801578  1
  In  In9  1  0.52589570  0.01341795  0.19586075  1
  In  In10  1  0.01899961  0.50671732  0.82325217  1
  In  In11  1  0.36041397  0.17184876  0.19357474  1
  In  In12  1  0.02400861  0.49993717  0.16596598  1
  In  In13  1  0.82694721  0.82751788  -0.01369115  1
  In  In14  1  0.50797044  0.47600992  0.32161499  1
  In  In15  1  0.15093220  0.18398316  0.35565118  1
  In  In16  1  0.84851835  0.83909115  0.32291562  1
  In  In17  1  0.17360566  0.33724344  0.83122917  1
  In  In18  1  0.67516848  0.49017083  0.50257621  1
  In  In19  1  0.32248115  0.13620905  0.52855464  1
  In  In20  1  0.66876174  0.85298278  0.49007718  1
  In  In21  1  0.16166993  0.83604771  -0.02897711  1
  In  In22  1  0.17177838  0.35382875  0.16305330  1
  In  In23  1  0.66249781  -0.01788001  0.00885547  1
  In  In24  1  0.80289394  0.30615436  0.18383611  1
  In  In25  1  0.02090298  0.16155136  0.50970789  1
  In  In26  1  0.83507414  0.48855953  0.65181194  1
  In  In27  1  0.82920350  0.01363014  0.49054848  1
  In  In28  1  0.17281493  0.85161765  0.37230952  1
  In  In29  1  0.32937829  0.35074137  0.66782941  1
  In  In30  1  0.33858079  0.50765788  0.17832051  1
  In  In31  1  0.01059927  0.49790373  0.50213994  1
  In  In32  1  0.64815083  0.50828668  0.84595871  1
  In  In33  1  0.80917511  0.49811088  -0.01307220  1
  In  In34  1  0.59760207  0.64118774  0.00713760  1
  In  In35  1  0.48438397  -0.01399522  0.82993258  1
  In  In36  1  0.66136275  0.85035429  0.17475890  1
  In  In37  1  0.33512367  0.32794869  0.34936370  1
  In  In38  1  -0.02277137  0.83471220  0.15839886  1
  In  In39  1  0.35562656  0.79808714  0.13689132  1
  In  In40  1  0.17173374  0.68105712  0.50908758  1
  In  In41  1  0.17856734  0.64985738  0.17346589  1
  In  In42  1  0.00711524  -0.01391581  -0.01784996  1
  In  In43  1  0.46995659  0.50880340  0.65800901  1
  In  In44  1  0.65544406  0.83099694  0.81502708  1
  In  In45  1  0.18279127  0.17697538  -0.02508193  1
  In  In46  1  0.48045698  0.85371801  0.64472305  1
  In  In47  1  0.68046153  0.65300187  0.67630118  1
  In  In48  1  -0.00656527  0.34583779  0.34946536  1
  In  In49  1  0.02204537  0.15115572  0.79247654  1
  In  In50  1  0.48368185  0.66239026  0.51728375  1
  In  In51  1  0.17201526  0.00845191  0.16847616  1
  In  In52  1  0.50599382  0.33553432  0.82684566  1
  In  In53  1  0.86024301  0.31462309  0.81735041  1
  In  In54  1  -0.03152404  0.16224656  0.16454429  1
  In  In55  1  0.65547536  0.32882988  0.01786608  1
  In  In56  1  0.66951628  0.68678134  0.33964356  1
  In  In57  1  0.30639129  0.68100874  0.34337992  1
  In  In58  1  0.67760003  0.31342270  0.66856125  1
  In  In59  1  0.69663278  0.13854359  0.83919448  1
  In  In60  1  0.78153423  0.00830495  0.18131661  1
  In  In61  1  0.17195026  0.84230181  0.64892998  1
  In  In62  1  0.17805679  0.50105949  0.67871793  1
  In  In63  1  0.33591808  0.35292040  0.00342119  1
  In  In64  1  0.84617516  0.69447779  0.81129045  1
  In  In65  1  0.34605603  -0.00545886  0.36824513  1
  In  In66  1  0.16696596  0.68068153  0.81200797  1
  In  In67  1  0.32266162  0.16549233  0.79240736  1
  In  In68  1  0.86496137  -0.01611117  0.78141223  1
  In  In69  1  0.51713376  0.31205863  0.48012846  1
  In  In70  1  0.52632298  0.14099297  0.63172785  1
  In  In71  1  0.32343620  0.82109542  0.81278788  1
  Te  Te72  1  0.08205807  0.09083274  0.07329515  1
  Te  Te73  1  0.11291919  0.05843503  0.43428399  1
  Te  Te74  1  0.09187221  0.06130535  0.69388637  1
  Te  Te75  1  0.08948442  0.42078245  0.06137202  1
  Te  Te76  1  0.10096923  0.40623541  0.42751331  1
  Te  Te77  1  0.07278247  0.39894132  0.73302280  1
  Te  Te78  1  0.07775925  0.75288338  0.07760360  1
  Te  Te79  1  0.07257797  0.77192606  0.44313370  1
  Te  Te80  1  0.06972032  0.75349833  0.72353538  1
  Te  Te81  1  0.42485020  0.08472054  0.08504852  1
  Te  Te82  1  0.41821149  0.11304617  0.41804783  1
  Te  Te83  1  0.41963452  0.07238354  0.72177327  1
  Te  Te84  1  0.42642085  0.40987797  0.10509104  1
  Te  Te85  1  0.42154033  0.42250986  0.43679540  1
  Te  Te86  1  0.40272232  0.43348832  0.77456857  1
  Te  Te87  1  0.44114178  0.68166210  0.07598741  1
  Te  Te88  1  0.41442708  0.75851702  0.42107459  1
  Te  Te89  1  0.42662431  0.74948648  0.73466753  1
  Te  Te90  1  0.72465702  0.10546070  0.07757528  1
  Te  Te91  1  0.71839921  0.10161972  0.43483548  1
  Te  Te92  1  0.75202050  0.06361438  0.72512592  1
  Te  Te93  1  0.73999558  0.42562693  0.10108453  1
  Te  Te94  1  0.73819011  0.40577213  0.39348525  1
  Te  Te95  1  0.74617925  0.42300039  0.76113682  1
  Te  Te96  1  0.74776627  0.75271162  0.09308784  1
  Te  Te97  1  0.77001410  0.75434542  0.42844819  1
  Te  Te98  1  0.76360032  0.77979720  0.71431158  1
  Te  Te99  1  0.07769449  0.24932000  0.23722038  1
  Te  Te100  1  0.10247644  0.23883013  0.60381013  1
  Te  Te101  1  0.06906624  0.24745518  0.90435790  1
  Te  Te102  1  0.08699374  0.58425044  0.26842178  1
  Te  Te103  1  0.08310919  0.59073418  0.59842299  1
  Te  Te104  1  0.10095131  0.58952179  0.92021399  1
  Te  Te105  1  0.06768337  0.92729816  0.24538535  1
  Te  Te106  1  0.07150136  0.94016353  0.59140174  1
  Te  Te107  1  0.09168610  0.92648266  0.87818418  1
  Te  Te108  1  0.44898155  0.25613950  0.28003723  1
  Te  Te109  1  0.42980121  0.25594483  0.59471672  1
  Te  Te110  1  0.39895417  0.23917734  0.90414044  1
  Te  Te111  1  0.41626242  0.59169699  0.27932078  1
  Te  Te112  1  0.37036066  0.59213335  0.58413075  1
  Te  Te113  1  0.46251756  0.61481785  0.94228114  1
  Te  Te114  1  0.40537160  0.92176443  0.24567341  1
  Te  Te115  1  0.41639709  0.93692086  0.53942023  1
  Te  Te116  1  0.40832219  0.89630969  0.92444562  1
  Te  Te117  1  0.73473677  0.20909884  0.27039835  1
  Te  Te118  1  0.75927033  0.22437995  0.58563349  1
  Te  Te119  1  0.75071515  0.26125950  0.91423675  1
  Te  Te120  1  0.72511247  0.57486207  0.25051314  1
  Te  Te121  1  0.76779095  0.59509281  0.56474727  1
  Te  Te122  1  0.74813234  0.61307211  0.90606865  1
  Te  Te123  1  0.72334132  0.92256673  0.29360704  1
  Te  Te124  1  0.75027315  0.93007016  0.58794929  1
  Te  Te125  1  0.75602652  0.93049713  0.89716916  1
  Te  Te126  1  0.25839019  0.23884211  0.09329411  1
  Te  Te127  1  0.25097222  0.24865442  0.45023411  1
  Te  Te128  1  0.21840041  0.24380217  0.70965333  1
  Te  Te129  1  0.25778697  0.57764029  0.07468028  1
  Te  Te130  1  0.22963685  0.57983722  0.41630045  1
  Te  Te131  1  0.26872463  0.58921016  0.75735930  1
  Te  Te132  1  0.24957321  0.92134669  0.07093920  1
  Te  Te133  1  0.27677584  0.90487299  0.46769839  1
  Te  Te134  1  0.26539550  0.93061933  0.72865362  1
  Te  Te135  1  0.57812969  0.25911054  0.12712171  1
  Te  Te136  1  0.63328654  0.23481896  0.43589392  1
  Te  Te137  1  0.58450969  0.22323815  0.76012026  1
  Te  Te138  1  0.53026382  0.55419296  0.10721617  1
  Te  Te139  1  0.58209875  0.58449228  0.42376186  1
  Te  Te140  1  0.56252857  0.59299885  0.75137750  1
  Te  Te141  1  0.55375156  0.90691985  0.08282508  1
  Te  Te142  1  0.55146766  0.94074956  0.44085196  1
  Te  Te143  1  0.58369255  0.93367034  0.72725338  1
  Te  Te144  1  0.91729704  0.27921180  0.07870708  1
  Te  Te145  1  0.91927159  0.22791997  0.40594475  1
  Te  Te146  1  0.91632625  0.22452237  0.71507967  1
  Te  Te147  1  0.90507596  0.58548787  0.08390021  1
  Te  Te148  1  0.91798330  0.59294139  0.43419044  1
  Te  Te149  1  0.92157337  0.58404300  0.73495721  1
  Te  Te150  1  0.89112405  0.93822188  0.08256661  1
  Te  Te151  1  0.92483995  0.89493228  0.44431139  1
  Te  Te152  1  0.95579086  0.89780568  0.69208046  1
  Te  Te153  1  0.25008932  0.09280040  0.26921712  1
  Te  Te154  1  0.22943549  0.06093659  0.61822839  1
  Te  Te155  1  0.23215118  0.07251609  0.87664605  1
  Te  Te156  1  0.24617918  0.42599372  0.27262784  1
  Te  Te157  1  0.24968093  0.42690027  0.57095322  1
  Te  Te158  1  0.25207780  0.43277862  0.91282143  1
  Te  Te159  1  0.23373274  0.78005578  0.25004507  1
  Te  Te160  1  0.27335427  0.74134860  0.60081458  1
  Te  Te161  1  0.26333011  0.73418632  0.92552309  1
  Te  Te162  1  0.62008227  0.10094337  0.26495526  1
  Te  Te163  1  0.60683298  0.05822829  0.53772747  1
  Te  Te164  1  0.57242481  0.07878189  0.91934425  1
  Te  Te165  1  0.57282188  0.36364009  0.25142159  1
  Te  Te166  1  0.58531464  0.41697372  0.60231633  1
  Te  Te167  1  0.56249289  0.42202444  0.93901676  1
  Te  Te168  1  0.57115201  0.74102836  0.23596961  1
  Te  Te169  1  0.59222511  0.74831357  0.58347485  1
  Te  Te170  1  0.57926888  0.76520205  0.92260293  1
  Te  Te171  1  0.89613834  0.07225258  0.26349057  1
  Te  Te172  1  0.91405896  0.09162287  0.58730280  1
  Te  Te173  1  0.91418228  0.08498356  0.89712948  1
  Te  Te174  1  0.90960609  0.41685758  0.24395931  1
  Te  Te175  1  0.92048746  0.39309949  0.57357844  1
  Te  Te176  1  0.91778228  0.42580244  0.90706182  1
  Te  Te177  1  0.94589642  0.73217394  0.26781997  1
  Te  Te178  1  0.92466899  0.75702703  0.64840472  1
  Te  Te179  1  0.94110540  0.78263508  0.89504461  1
