# generated using pymatgen
data_In2Te3
_symmetry_space_group_name_H-M   'P 1'
_cell_length_a   18.92781676
_cell_length_b   18.91946523
_cell_length_c   18.90864370
_cell_angle_alpha   90.11574024
_cell_angle_beta   89.97446920
_cell_angle_gamma   89.92668794
_symmetry_Int_Tables_number   1
_chemical_formula_structural   In2Te3
_chemical_formula_sum   'In72 Te108'
_cell_volume   6771.24414210
_cell_formula_units_Z   36
loop_
 _symmetry_equiv_pos_site_id
 _symmetry_equiv_pos_as_xyz
  1  'x, y, z'
loop_
 _atom_site_type_symbol
 _atom_site_label
 _atom_site_symmetry_multiplicity
 _atom_site_fract_x
 _atom_site_fract_y
 _atom_site_fract_z
 _atom_site_occupancy
  In  In0  1  0.30822425  0.01133853  0.66087688  1
  In  In1  1  0.51997268  0.50577884  0.01638742  1
  In  In2  1  0.81916678  0.00651824  0.50338965  1
  In  In3  1  0.32326958  0.66550178  0.66572041  1
  In  In4  1  0.31132568  0.50400155  0.82528642  1
  In  In5  1  0.48201062  0.36363892  0.83061604  1
  In  In6  1  0.66387217  0.20456364  0.44472746  1
  In  In7  1  0.48219799  0.49430088  0.32719619  1
  In  In8  1  0.33139554  0.01378140  0.32287206  1
  In  In9  1  0.65385885  0.65976460  0.64820100  1
  In  In10  1  0.64160181  0.31970153  0.63217729  1
  In  In11  1  0.33923503  0.34920149  0.00699801  1
  In  In12  1  0.16523932  0.82610749  0.00940717  1
  In  In13  1  -0.00071725  0.82737585  0.48874744  1
  In  In14  1  0.49738710  0.83617661  -0.01449388  1
  In  In15  1  0.17895981  0.17443363  0.02162181  1
  In  In16  1  0.49176181  0.67735125  0.49554616  1
  In  In17  1  0.67410000  0.46841602  0.47122729  1
  In  In18  1  0.16801759  0.18962953  0.65728437  1
  In  In19  1  0.32493058  0.19522272  0.48854999  1
  In  In20  1  0.85691091  0.66119550  0.84895017  1
  In  In21  1  0.02149816  0.63629198  0.31637964  1
  In  In22  1  0.30650338  0.64463043  0.03343928  1
  In  In23  1  0.80078507  0.15846794  0.66844263  1
  In  In24  1  0.31054143  0.61078019  0.31341800  1
  In  In25  1  0.31858310  0.48488642  0.48747189  1
  In  In26  1  0.33396587  0.85141363  0.50881461  1
  In  In27  1  0.82041888  0.48782092  0.65015600  1
  In  In28  1  0.83101818  0.66316644  0.18279920  1
  In  In29  1  0.66378519  0.13938909  0.79823552  1
  In  In30  1  0.18257706  0.32549813  0.82738576  1
  In  In31  1  0.01744837  0.29901070  0.04077911  1
  In  In32  1  0.50214594  -0.01133271  0.48561375  1
  In  In33  1  -0.01059375  -0.01283435  0.66468241  1
  In  In34  1  0.00647304  0.52649076  0.51052215  1
  In  In35  1  0.00456965  0.66930796  0.00434511  1
  In  In36  1  0.16081214  0.83427363  0.31998128  1
  In  In37  1  0.13738298  0.81399812  0.66789334  1
  In  In38  1  0.34648416  0.83079430  0.16699140  1
  In  In39  1  -0.01346176  0.35824833  0.31753392  1
  In  In40  1  0.66492633  -0.01086050  0.30846967  1
  In  In41  1  -0.02296199  0.14206351  0.19784945  1
  In  In42  1  -0.02070320  0.84665382  0.14091496  1
  In  In43  1  0.71136096  0.34360930  0.01931208  1
  In  In44  1  0.48137170  0.16900480  0.01348791  1
  In  In45  1  0.16665298  -0.00028584  0.86862026  1
  In  In46  1  0.33968179  0.83187775  0.84353425  1
  In  In47  1  0.52998370  0.81852654  0.33032994  1
  In  In48  1  0.50195104  0.33376864  0.18009217  1
  In  In49  1  0.67539473  0.01220747  0.01419398  1
  In  In50  1  0.86383511  0.80791195  0.67295975  1
  In  In51  1  0.16823141  0.36402534  0.18669702  1
  In  In52  1  0.84409899  0.14319443  0.01089592  1
  In  In53  1  -0.00109729  0.34797891  0.65457829  1
  In  In54  1  0.69023598  0.84172996  0.84551467  1
  In  In55  1  0.49120566  0.64752802  0.81888714  1
  In  In56  1  0.01855906  0.15237465  0.43198400  1
  In  In57  1  0.65624705  0.68068788  0.04104197  1
  In  In58  1  0.66592904  0.52376476  0.83546953  1
  In  In59  1  0.00730026  0.50614952  0.84038318  1
  In  In60  1  0.16896397  0.00113087  0.18125814  1
  In  In61  1  0.67707788  0.20408021  0.20548608  1
  In  In62  1  -0.01291574  0.14067183  0.83613025  1
  In  In63  1  0.85222676  0.48285230  0.03220706  1
  In  In64  1  0.48981816  -0.01090523  0.82258452  1
  In  In65  1  0.17015527  0.33719822  0.48512661  1
  In  In66  1  0.82497329  0.84630948  0.33754992  1
  In  In67  1  0.49525383  0.15815969  0.63604195  1
  In  In68  1  0.67241138  0.01129364  0.66736900  1
  In  In69  1  0.51034094  0.01987548  0.15041411  1
  In  In70  1  0.81883768  0.32733838  0.83521209  1
  In  In71  1  0.68341299  0.68716925  0.34182850  1
  Te  Te72  1  0.08010311  0.08608050  0.09211419  1
  Te  Te73  1  0.10503336  0.06530262  0.35341124  1
  Te  Te74  1  0.09341870  0.07969259  0.74512992  1
  Te  Te75  1  0.07842410  0.42301957  0.08436936  1
  Te  Te76  1  0.08055714  0.43380008  0.41092647  1
  Te  Te77  1  0.09354706  0.42100509  0.74490932  1
  Te  Te78  1  0.08846544  0.74484539  0.10976443  1
  Te  Te79  1  0.09288820  0.73418658  0.41133697  1
  Te  Te80  1  0.07964460  0.70040903  0.74204592  1
  Te  Te81  1  0.39589893  0.10186524  0.11090365  1
  Te  Te82  1  0.42100313  0.09338580  0.41667292  1
  Te  Te83  1  0.40978995  0.09062278  0.74347272  1
  Te  Te84  1  0.41754498  0.43506425  0.10415260  1
  Te  Te85  1  0.39023429  0.39348235  0.39047955  1
  Te  Te86  1  0.39648489  0.42802775  0.73276893  1
  Te  Te87  1  0.42229213  0.73680232  0.07427155  1
  Te  Te88  1  0.40728687  0.76667278  0.40557090  1
  Te  Te89  1  0.42285745  0.75692927  0.74078199  1
  Te  Te90  1  0.74605758  0.09669323  0.11816250  1
  Te  Te91  1  0.76306156  0.08785865  0.38609849  1
  Te  Te92  1  0.78261690  0.05045767  0.77252111  1
  Te  Te93  1  0.76086227  0.42251717  0.13711100  1
  Te  Te94  1  0.76798972  0.40163745  0.37598271  1
  Te  Te95  1  0.72850919  0.40605207  0.74259788  1
  Te  Te96  1  0.77873172  0.75056028  0.07484596  1
  Te  Te97  1  0.76493694  0.76049358  0.44160039  1
  Te  Te98  1  0.74813166  0.72730416  0.75415646  1
  Te  Te99  1  0.06993980  0.25782897  0.23833270  1
  Te  Te100  1  0.06152929  0.24324477  0.56160675  1
  Te  Te101  1  0.07277133  0.24554166  0.90786587  1
  Te  Te102  1  0.11815521  0.55093330  0.23768254  1
  Te  Te103  1  0.06206866  0.61614613  0.61240019  1
  Te  Te104  1  0.09577215  0.58288943  0.92735092  1
  Te  Te105  1  0.05966290  0.92422845  0.25256388  1
  Te  Te106  1  0.08874451  0.92098645  0.57008354  1
  Te  Te107  1  0.08025861  0.88863585  0.90579529  1
  Te  Te108  1  0.42931839  0.26921236  0.29306415  1
  Te  Te109  1  0.42299360  0.26714149  0.57165644  1
  Te  Te110  1  0.40949917  0.25493765  0.91034502  1
  Te  Te111  1  0.43812381  0.60565374  0.24223593  1
  Te  Te112  1  0.40843990  0.58009778  0.57417606  1
  Te  Te113  1  0.41442818  0.57541408  0.92807362  1
  Te  Te114  1  0.43516565  0.92246337  0.25341859  1
  Te  Te115  1  0.42510168  0.92903812  0.60134392  1
  Te  Te116  1  0.39883815  0.93978382  0.93409976  1
  Te  Te117  1  0.77832942  0.26868034  0.29631208  1
  Te  Te118  1  0.75648046  0.25434264  0.55893344  1
  Te  Te119  1  0.74616353  0.22226358  0.91598114  1
  Te  Te120  1  0.78051946  0.58152863  0.29784914  1
  Te  Te121  1  0.74452172  0.57848057  0.55785026  1
  Te  Te122  1  0.76766477  0.57151795  0.93553568  1
  Te  Te123  1  0.74607837  0.89992613  0.22564914  1
  Te  Te124  1  0.76504927  0.90828726  0.60378145  1
  Te  Te125  1  0.76542955  0.91663651  0.94608671  1
  Te  Te126  1  0.26139043  0.26724171  0.10821616  1
  Te  Te127  1  0.23489659  0.25066547  0.38431501  1
  Te  Te128  1  0.27229546  0.25643305  0.73442037  1
  Te  Te129  1  0.22902689  0.55684221  0.12567162  1
  Te  Te130  1  0.23309178  0.59349866  0.43523743  1
  Te  Te131  1  0.22416817  0.60497288  0.75844365  1
  Te  Te132  1  0.25642613  0.92162134  0.08481175  1
  Te  Te133  1  0.24517010  0.92475823  0.41030975  1
  Te  Te134  1  0.24280154  0.90527802  0.74984449  1
  Te  Te135  1  0.59122524  0.25439087  0.07827418  1
  Te  Te136  1  0.56060112  0.28763523  0.37617648  1
  Te  Te137  1  0.57143954  0.25148247  0.75048680  1
  Te  Te138  1  0.61814226  0.55936123  0.11153137  1
  Te  Te139  1  0.58086878  0.58700401  0.41163506  1
  Te  Te140  1  0.56830917  0.55677026  0.72494207  1
  Te  Te141  1  0.58807288  0.90704398  0.08411039  1
  Te  Te142  1  0.61204357  0.90550679  0.42501342  1
  Te  Te143  1  0.59276822  0.90697275  0.74857718  1
  Te  Te144  1  0.89689954  0.24570666  0.10920506  1
  Te  Te145  1  0.91377381  0.24870174  0.39452182  1
  Te  Te146  1  0.91339345  0.24790348  0.74464795  1
  Te  Te147  1  0.93717608  0.58099800  0.10842494  1
  Te  Te148  1  0.91640768  0.57856033  0.40359159  1
  Te  Te149  1  0.91181727  0.57062753  0.73834073  1
  Te  Te150  1  0.91595217  0.96024853  0.07305696  1
  Te  Te151  1  0.92250459  0.93733835  0.41510741  1
  Te  Te152  1  0.93955674  0.89288951  0.76560217  1
  Te  Te153  1  0.22994228  0.11053699  0.26677190  1
  Te  Te154  1  0.23305895  0.09176333  0.55898102  1
  Te  Te155  1  0.25416344  0.10545337  0.91598002  1
  Te  Te156  1  0.25214373  0.46642095  0.26092053  1
  Te  Te157  1  0.23077916  0.42128312  0.58780069  1
  Te  Te158  1  0.23349701  0.42537577  0.93032772  1
  Te  Te159  1  0.25311814  0.74198273  0.24372663  1
  Te  Te160  1  0.23988658  0.75175647  0.57203576  1
  Te  Te161  1  0.25336108  0.73576167  0.92268656  1
  Te  Te162  1  0.57617795  0.10246182  0.25964411  1
  Te  Te163  1  0.60507594  0.09196054  0.55363367  1
  Te  Te164  1  0.57230376  0.07835998  0.91655727  1
  Te  Te165  1  0.59479736  0.40869141  0.27224430  1
  Te  Te166  1  0.56490765  0.41381984  0.55217911  1
  Te  Te167  1  0.59863608  0.40951978  0.92467309  1
  Te  Te168  1  0.60266188  0.74099567  0.22965721  1
  Te  Te169  1  0.57476264  0.76248858  0.58183979  1
  Te  Te170  1  0.58789517  0.73281790  0.90810582  1
  Te  Te171  1  0.88776697  0.07328493  0.29279737  1
  Te  Te172  1  0.91503988  0.09265241  0.58417300  1
  Te  Te173  1  0.94028037  0.04770623  0.94493933  1
  Te  Te174  1  0.87965062  0.42684055  0.24171098  1
  Te  Te175  1  0.90690360  0.41050594  0.55411556  1
  Te  Te176  1  0.91875505  0.40300936  0.91919460  1
  Te  Te177  1  0.92936003  0.75431911  0.26102823  1
  Te  Te178  1  0.90709456  0.73187574  0.55455020  1
  Te  Te179  1  0.92725721  0.76590634  0.92304429  1
