# generated using pymatgen
data_In2Te3
_symmetry_space_group_name_H-M   'P 1'
_cell_length_a   19.02408729
_cell_length_b   19.01902344
_cell_length_c   18.98144856
_cell_angle_alpha   89.84900075
_cell_angle_beta   90.17277858
_cell_angle_gamma   89.88676151
_symmetry_Int_Tables_number   1
_chemical_formula_structural   In2Te3
_chemical_formula_sum   'In72 Te108'
_cell_volume   6867.79081105
_cell_formula_units_Z   36
loop_
 _symmetry_equiv_pos_site_id
 _symmetry_equiv_pos_as_xyz
  1  'x, y, z'
loop_
 _atom_site_type_symbol
 _atom_site_label
 _atom_site_symmetry_multiplicity
 _atom_site_fract_x
 _atom_site_fract_y
 _atom_site_fract_z
 _atom_site_occupancy
  In  In0  1  0.66361043  0.00134242  -0.02539983  1
  In  In1  1  0.85544638  0.70177136  0.49773982  1
  In  In2  1  0.33621904  0.54450006  0.51338308  1
  In  In3  1  0.68049165  0.67389003  0.65767280  1
  In  In4  1  0.84474172  0.15352101  0.69316647  1
  In  In5  1  0.50257593  0.31895450  0.83478010  1
  In  In6  1  0.18964717  0.70165027  0.16712598  1
  In  In7  1  0.65773215  0.17901125  0.51038929  1
  In  In8  1  0.67999106  0.48841657  0.52811388  1
  In  In9  1  0.48313770  0.00992580  0.17819233  1
  In  In10  1  0.34795329  0.68811463  -0.00549643  1
  In  In11  1  0.65640868  0.31052305  0.32075324  1
  In  In12  1  0.83801570  0.84548373  0.33731997  1
  In  In13  1  0.51125757  0.51137219  -0.03813001  1
  In  In14  1  0.67240783  0.30557746  -0.02057704  1
  In  In15  1  0.15695297  0.15104653  0.68734429  1
  In  In16  1  0.65915378  0.15440691  0.82798811  1
  In  In17  1  0.49987769  0.83596977  -0.00084068  1
  In  In18  1  0.34771562  0.35101838  0.65205008  1
  In  In19  1  0.48563118  0.65254539  0.15679753  1
  In  In20  1  0.82727487  0.16780603  0.33082851  1
  In  In21  1  0.01586527  0.85883800  0.17028541  1
  In  In22  1  0.00184289  0.33274939  -0.01741297  1
  In  In23  1  0.17381236  0.49826434  -0.01770960  1
  In  In24  1  0.31444755  0.30499223  0.02210652  1
  In  In25  1  0.30957913  0.00469887  0.32127674  1
  In  In26  1  0.83618843  0.32388265  0.52297887  1
  In  In27  1  0.34884512  0.80020369  0.51258857  1
  In  In28  1  -0.03184426  0.32785177  0.33442762  1
  In  In29  1  0.16190032  -0.00571837  0.51005597  1
  In  In30  1  0.63863307  -0.01918767  0.37477452  1
  In  In31  1  0.18758228  0.33594803  0.50269206  1
  In  In32  1  0.17327338  0.50816032  0.35443497  1
  In  In33  1  -0.03257988  0.49255439  0.50552459  1
  In  In34  1  0.14842392  0.29893076  0.15528603  1
  In  In35  1  0.01623521  0.67707398  0.31449997  1
  In  In36  1  -0.00630362  0.14703279  0.13925856  1
  In  In37  1  0.17409664  0.67417414  0.85727994  1
  In  In38  1  0.48288746  0.14375377  0.65007898  1
  In  In39  1  0.66529038  0.80972587  0.14708767  1
  In  In40  1  0.83717103  0.69423762  0.82713039  1
  In  In41  1  0.14333391  -0.00331042  0.83735838  1
  In  In42  1  0.81882380  0.49384412  0.31666972  1
  In  In43  1  0.33881856  -0.00559147  0.00812994  1
  In  In44  1  0.54705719  0.33082405  0.15095260  1
  In  In45  1  0.31559946  0.67465647  0.68355496  1
  In  In46  1  0.17126153  0.31300095  0.85250951  1
  In  In47  1  0.53492957  -0.08729892  0.57722124  1
  In  In48  1  0.68877892  0.13829886  0.15815308  1
  In  In49  1  0.85387730  -0.04601277  0.59204424  1
  In  In50  1  0.34154278  0.14416711  0.82460872  1
  In  In51  1  0.81330940  -0.02099510  0.14769766  1
  In  In52  1  0.86490968  0.39624365  0.13059008  1
  In  In53  1  0.53498557  0.50199300  0.67511136  1
  In  In54  1  0.85583938  0.53105416  -0.02693189  1
  In  In55  1  0.00446414  0.64904624  0.66754172  1
  In  In56  1  0.33984934  0.47529825  0.15688224  1
  In  In57  1  0.49514152  0.70951445  0.81022195  1
  In  In58  1  0.49388247  0.51976759  0.35812086  1
  In  In59  1  0.83545130  -0.02073877  0.81453772  1
  In  In60  1  0.17039562  0.84484671  0.67061411  1
  In  In61  1  0.83455685  0.85296322  -0.01512980  1
  In  In62  1  0.30355087  0.15086936  0.49315325  1
  In  In63  1  0.15466410  0.86340464  0.00561737  1
  In  In64  1  0.66097504  0.52676706  0.15201507  1
  In  In65  1  0.15276944  0.84034043  0.32852485  1
  In  In66  1  0.00515313  0.50390878  0.83804383  1
  In  In67  1  0.00225103  -0.00439856  0.34909635  1
  In  In68  1  0.01232804  0.32328420  0.67942253  1
  In  In69  1  0.46965115  0.15452467  0.33669572  1
  In  In70  1  0.65769067  0.66240120  0.34154546  1
  In  In71  1  0.34183419  0.33591734  0.32127120  1
  Te  Te72  1  0.08212046  0.09636732  0.03726714  1
  Te  Te73  1  0.09225795  0.08597057  0.41854034  1
  Te  Te74  1  0.05305779  0.10114937  0.77859264  1
  Te  Te75  1  0.08962598  0.41411070  0.07513376  1
  Te  Te76  1  0.07299124  0.40685774  0.42077363  1
  Te  Te77  1  0.10054665  0.41436273  0.76288602  1
  Te  Te78  1  0.07690453  0.75148582  0.08316034  1
  Te  Te79  1  0.06117204  0.76909341  0.41720492  1
  Te  Te80  1  0.09028366  0.74290716  0.75219171  1
  Te  Te81  1  0.41965411  0.09533301  0.08027592  1
  Te  Te82  1  0.40647273  0.05909775  0.43184047  1
  Te  Te83  1  0.44540399  0.05735894  0.76452943  1
  Te  Te84  1  0.45128796  0.41868519  0.06990294  1
  Te  Te85  1  0.39428531  0.42901150  0.42644581  1
  Te  Te86  1  0.42649297  0.42361320  0.75597883  1
  Te  Te87  1  0.40946001  0.77232508  0.10311440  1
  Te  Te88  1  0.46083919  0.74716783  0.43644834  1
  Te  Te89  1  0.38902997  0.79051688  0.74278511  1
  Te  Te90  1  0.77576307  0.08637102  0.03746890  1
  Te  Te91  1  0.74032172  0.08595673  0.42293519  1
  Te  Te92  1  0.73271782  0.05972967  0.73608698  1
  Te  Te93  1  0.72697466  0.41955920  0.06968565  1
  Te  Te94  1  0.75382770  0.39332401  0.41213047  1
  Te  Te95  1  0.67354328  0.43716594  0.67039861  1
  Te  Te96  1  0.77566817  0.75095789  0.07430634  1
  Te  Te97  1  0.73981212  0.76338677  0.41960333  1
  Te  Te98  1  0.77216017  0.77700871  0.71812640  1
  Te  Te99  1  0.05350364  0.23338649  0.25258669  1
  Te  Te100  1  0.09618946  0.24434169  0.58155632  1
  Te  Te101  1  0.10315058  0.22367704  0.95259810  1
  Te  Te102  1  0.11378365  0.59050537  0.23895179  1
  Te  Te103  1  0.07440115  0.56970958  0.56546716  1
  Te  Te104  1  0.06728036  0.59642070  0.93892267  1
  Te  Te105  1  0.10398294  0.95684419  0.24197613  1
  Te  Te106  1  0.06931304  0.93769148  0.61097242  1
  Te  Te107  1  0.05531995  0.89353949  0.89954162  1
  Te  Te108  1  0.43847962  0.26221600  0.23254582  1
  Te  Te109  1  0.40310532  0.24215526  0.56399469  1
  Te  Te110  1  0.40966633  0.23898600  0.92427016  1
  Te  Te111  1  0.39806884  0.57717114  0.25412174  1
  Te  Te112  1  0.42903303  0.60007413  0.61493053  1
  Te  Te113  1  0.41407689  0.60247309  0.89082548  1
  Te  Te114  1  0.41736796  0.91928134  0.26960687  1
  Te  Te115  1  0.39099644  0.89540001  0.61880835  1
  Te  Te116  1  0.42538163  0.92503829  0.91090383  1
  Te  Te117  1  0.76126514  0.25726471  0.22673309  1
  Te  Te118  1  0.74626868  0.24575289  0.61270309  1
  Te  Te119  1  0.76126304  0.24420242  0.88283625  1
  Te  Te120  1  0.75470307  0.60797933  0.23844144  1
  Te  Te121  1  0.77982893  0.59583087  0.57421949  1
  Te  Te122  1  0.75297722  0.61846923  0.92164229  1
  Te  Te123  1  0.72650851  0.91770710  0.26053008  1
  Te  Te124  1  0.72539232  0.87929768  0.60460213  1
  Te  Te125  1  0.72382340  0.89408734  0.89040317  1
  Te  Te126  1  0.25806139  0.20391942  0.11733784  1
  Te  Te127  1  0.24038529  0.24731725  0.39092723  1
  Te  Te128  1  0.26330418  0.25555115  0.74194604  1
  Te  Te129  1  0.26708941  0.58102284  0.07217650  1
  Te  Te130  1  0.25496772  0.61367587  0.41160934  1
  Te  Te131  1  0.24109814  0.58083324  0.76828679  1
  Te  Te132  1  0.24633514  0.92580572  0.09971321  1
  Te  Te133  1  0.25358407  0.90327881  0.43265758  1
  Te  Te134  1  0.24874647  0.93590221  0.75493648  1
  Te  Te135  1  0.59100230  0.21309895  0.06776766  1
  Te  Te136  1  0.56000327  0.25105964  0.41751229  1
  Te  Te137  1  0.57226527  0.23728508  0.73099308  1
  Te  Te138  1  0.58423622  0.61001929  0.05088926  1
  Te  Te139  1  0.58781945  0.58849427  0.45282020  1
  Te  Te140  1  0.60003966  0.60756948  0.76665537  1
  Te  Te141  1  0.59231948  0.93176193  0.09211170  1
  Te  Te142  1  0.54545135  0.87541277  0.42471853  1
  Te  Te143  1  0.60717045  0.87454488  0.70622893  1
  Te  Te144  1  0.90902152  0.25984260  0.07727684  1
  Te  Te145  1  0.91761604  0.22996554  0.43707781  1
  Te  Te146  1  0.94530728  0.23034956  0.77325438  1
  Te  Te147  1  0.90751776  0.53908606  0.10863507  1
  Te  Te148  1  0.90977247  0.58903661  0.39625470  1
  Te  Te149  1  0.90323584  0.57739868  0.75408285  1
  Te  Te150  1  0.93745665  0.93939029  0.06806975  1
  Te  Te151  1  0.90219408  0.93132178  0.44092229  1
  Te  Te152  1  0.93515369  0.92951493  0.71541292  1
  Te  Te153  1  0.27217471  0.12766140  0.25355682  1
  Te  Te154  1  0.25689642  0.06925013  0.61061454  1
  Te  Te155  1  0.24431798  0.08020859  0.91736311  1
  Te  Te156  1  0.23098085  0.40658751  0.23881410  1
  Te  Te157  1  0.24510552  0.44324833  0.58950100  1
  Te  Te158  1  0.27476057  0.40673138  0.91797770  1
  Te  Te159  1  0.26491038  0.76251841  0.27437947  1
  Te  Te160  1  0.22655388  0.73853991  0.57802997  1
  Te  Te161  1  0.25656988  0.78202498  0.92232885  1
  Te  Te162  1  0.59527830  0.09021428  0.26809682  1
  Te  Te163  1  0.58074090  0.06315343  0.56878815  1
  Te  Te164  1  0.55819058  0.07113435  0.89738503  1
  Te  Te165  1  0.58669834  0.43971155  0.26032453  1
  Te  Te166  1  0.56258865  0.40141696  0.56503791  1
  Te  Te167  1  0.60479945  0.41531544  0.89367599  1
  Te  Te168  1  0.57174431  0.74218938  0.24487384  1
  Te  Te169  1  0.56955941  0.76297434  0.60611233  1
  Te  Te170  1  0.59051863  0.76894020  0.90609824  1
  Te  Te171  1  0.89985091  0.06691258  0.24420342  1
  Te  Te172  1  0.91122076  0.08845809  0.58110851  1
  Te  Te173  1  0.88854458  0.03963404  0.93805950  1
  Te  Te174  1  0.95179456  0.44800315  0.24768614  1
  Te  Te175  1  0.90580239  0.41504349  0.62061158  1
  Te  Te176  1  0.90117980  0.40959139  0.89751810  1
  Te  Te177  1  0.91725642  0.76548129  0.23749155  1
  Te  Te178  1  0.94037063  0.76338633  0.59835416  1
  Te  Te179  1  0.93336522  0.78056216  0.90020531  1
