# generated using pymatgen
data_In2Te3
_symmetry_space_group_name_H-M   'P 1'
_cell_length_a   18.78047863
_cell_length_b   18.78262957
_cell_length_c   18.77544462
_cell_angle_alpha   90.02580731
_cell_angle_beta   89.93620202
_cell_angle_gamma   90.03021357
_symmetry_Int_Tables_number   1
_chemical_formula_structural   In2Te3
_chemical_formula_sum   'In72 Te108'
_cell_volume   6622.97180889
_cell_formula_units_Z   36
loop_
 _symmetry_equiv_pos_site_id
 _symmetry_equiv_pos_as_xyz
  1  'x, y, z'
loop_
 _atom_site_type_symbol
 _atom_site_label
 _atom_site_symmetry_multiplicity
 _atom_site_fract_x
 _atom_site_fract_y
 _atom_site_fract_z
 _atom_site_occupancy
  In  In0  1  0.65573322  0.86462259  0.84217181  1
  In  In1  1  0.32945798  0.85754543  0.52375941  1
  In  In2  1  0.66439101  0.30912366  0.65203462  1
  In  In3  1  0.16536878  0.48276562  0.30242990  1
  In  In4  1  0.66525694  0.48258943  0.14706404  1
  In  In5  1  0.49837380  0.16301747  0.33954108  1
  In  In6  1  0.32950427  0.85014304  0.16597398  1
  In  In7  1  0.85213699  0.67682566  0.84613909  1
  In  In8  1  0.19230415  0.28857065  0.46582166  1
  In  In9  1  -0.01505859  0.16859976  0.17767213  1
  In  In10  1  0.18931315  0.16550733  0.67160531  1
  In  In11  1  0.66225523  0.86707413  0.50228641  1
  In  In12  1  0.49195273  0.31072456  0.53079511  1
  In  In13  1  -0.00901070  0.34344453  0.33175272  1
  In  In14  1  0.17456886  0.00994413  0.49747264  1
  In  In15  1  0.85028775  0.49164966  0.35184635  1
  In  In16  1  0.50029134  0.85194008  -0.01107230  1
  In  In17  1  0.00912329  0.17238035  0.84111059  1
  In  In18  1  -0.01437939  0.68859840  0.00715185  1
  In  In19  1  0.34304696  0.47841364  0.49017791  1
  In  In20  1  0.83205933  0.85707392  0.32415205  1
  In  In21  1  0.47994600  0.86893556  0.34157684  1
  In  In22  1  0.48418197  0.50259057  0.35381309  1
  In  In23  1  0.66394371  0.67647914  0.33136630  1
  In  In24  1  0.67219701  0.85653925  0.14854996  1
  In  In25  1  0.35138240  0.00541354  0.67296998  1
  In  In26  1  0.49566493  0.30179541  0.16173875  1
  In  In27  1  -0.02822085  0.02006075  0.64315127  1
  In  In28  1  0.81466569  0.68472451  0.16010052  1
  In  In29  1  0.49586746  0.67266626  0.82766511  1
  In  In30  1  0.18162514  0.00615861  0.17290304  1
  In  In31  1  0.83275909  0.47571947  -0.00633836  1
  In  In32  1  0.32586246  0.32017753  0.00244693  1
  In  In33  1  0.67227050  0.14926770  0.16218711  1
  In  In34  1  0.16381113  0.68777027  0.49313416  1
  In  In35  1  0.16653661  0.30250263  0.83975060  1
  In  In36  1  0.80558033  0.13946399  0.35164867  1
  In  In37  1  0.18907477  0.49075843  0.64493755  1
  In  In38  1  0.50637022  0.67184086  0.50709316  1
  In  In39  1  0.34141226  0.67857347  0.65962521  1
  In  In40  1  0.65957853  0.31489854  0.33432211  1
  In  In41  1  -0.00073858  0.00824095  0.34378514  1
  In  In42  1  0.80964215  0.49577537  0.64209270  1
  In  In43  1  0.32996205  0.66339793  0.31768539  1
  In  In44  1  0.32657835  0.82763058  0.83893170  1
  In  In45  1  0.17554775  0.00523601  0.86079566  1
  In  In46  1  0.82289645  0.16712152  0.01139370  1
  In  In47  1  0.50982801  0.02114737  0.84542192  1
  In  In48  1  0.01362065  0.49340397  0.17818611  1
  In  In49  1  0.51182175  0.32852767  0.82205476  1
  In  In50  1  -0.00337313  0.84617530  0.15633285  1
  In  In51  1  -0.01188422  0.49587228  0.83491777  1
  In  In52  1  0.82927089  0.84199601  0.66544949  1
  In  In53  1  0.82596394  0.29689627  0.84353240  1
  In  In54  1  0.34448980  0.14073296  0.83717519  1
  In  In55  1  0.34399196  0.01014258  0.35067189  1
  In  In56  1  0.18800754  0.31173052  0.16247215  1
  In  In57  1  0.83160871  0.31729643  0.48177815  1
  In  In58  1  -0.02149399  0.50373289  0.48506726  1
  In  In59  1  0.16621739  0.50448090  0.02445269  1
  In  In60  1  0.50182226  0.50237829  -0.00997040  1
  In  In61  1  0.16728685  0.68810680  0.82947344  1
  In  In62  1  0.66283982  0.50113917  0.83946434  1
  In  In63  1  0.01549220  0.69461185  0.67454582  1
  In  In64  1  0.66867035  0.65668442  0.66096626  1
  In  In65  1  -0.00521433  -0.01167454  0.00637994  1
  In  In66  1  0.15755645  0.65739955  0.16987582  1
  In  In67  1  0.79950452  0.01925873  0.80946914  1
  In  In68  1  0.36400846  0.47856827  0.82906529  1
  In  In69  1  0.50164056  0.66856680  0.16824808  1
  In  In70  1  0.00678415  0.30397603  0.68348632  1
  In  In71  1  -0.00545447  0.84436727  0.50299624  1
  Te  Te72  1  0.07810336  0.08432203  0.09023203  1
  Te  Te73  1  0.08330986  0.10005190  0.42414843  1
  Te  Te74  1  0.08820871  0.07881530  0.74718935  1
  Te  Te75  1  0.08120403  0.39468088  0.08415387  1
  Te  Te76  1  0.09381169  0.41347835  0.42847787  1
  Te  Te77  1  0.09163569  0.41838438  0.74955954  1
  Te  Te78  1  0.09843591  0.76333465  0.07681945  1
  Te  Te79  1  0.07815641  0.76910274  0.40700531  1
  Te  Te80  1  0.07314853  0.78762967  0.77252502  1
  Te  Te81  1  0.46435846  0.05360628  0.02612162  1
  Te  Te82  1  0.43703171  0.07635149  0.44725621  1
  Te  Te83  1  0.44748941  0.11636799  0.72140653  1
  Te  Te84  1  0.41974961  0.41142252  0.08152682  1
  Te  Te85  1  0.41904642  0.37669108  0.40681860  1
  Te  Te86  1  0.43339043  0.40565807  0.72220193  1
  Te  Te87  1  0.41658226  0.75735058  0.07905192  1
  Te  Te88  1  0.40892900  0.75016473  0.41869243  1
  Te  Te89  1  0.42964678  0.77586350  0.73723804  1
  Te  Te90  1  0.76340807  0.05324680  0.08815654  1
  Te  Te91  1  0.70174061  0.07615787  0.43884286  1
  Te  Te92  1  0.68146234  0.07741414  0.73428272  1
  Te  Te93  1  0.74411373  0.38543996  0.07002271  1
  Te  Te94  1  0.73635046  0.41812078  0.42208364  1
  Te  Te95  1  0.75695508  0.40967979  0.75743695  1
  Te  Te96  1  0.74741234  0.76663652  0.05911331  1
  Te  Te97  1  0.74672125  0.76817081  0.41892916  1
  Te  Te98  1  0.74497599  0.75030398  0.75826063  1
  Te  Te99  1  0.08672664  0.24914400  0.26009350  1
  Te  Te100  1  0.09096054  0.23723871  0.57690286  1
  Te  Te101  1  0.08811729  0.23975845  0.94649152  1
  Te  Te102  1  0.06671022  0.59586622  0.27782181  1
  Te  Te103  1  0.08108402  0.58225823  0.58373778  1
  Te  Te104  1  0.07597541  0.58689316  0.92008487  1
  Te  Te105  1  0.08602354  0.91888764  0.25617278  1
  Te  Te106  1  0.08469568  0.92881218  0.59258162  1
  Te  Te107  1  0.08588352  0.90525568  0.92215271  1
  Te  Te108  1  0.39817207  0.22190925  0.24208944  1
  Te  Te109  1  0.41091379  0.20374173  0.59281934  1
  Te  Te110  1  0.42602938  0.24354302  0.91749282  1
  Te  Te111  1  0.41116459  0.56502594  0.23454665  1
  Te  Te112  1  0.42126568  0.57140323  0.58521856  1
  Te  Te113  1  0.40193147  0.59544970  0.92039691  1
  Te  Te114  1  0.42233783  0.95436172  0.22865591  1
  Te  Te115  1  0.44147950  0.93799235  0.57409480  1
  Te  Te116  1  0.39478139  0.94098312  0.91780103  1
  Te  Te117  1  0.76283518  0.24584202  0.24944252  1
  Te  Te118  1  0.76982402  0.22386867  0.58275305  1
  Te  Te119  1  0.72270049  0.21262109  0.90858561  1
  Te  Te120  1  0.74649756  0.57671421  0.24739008  1
  Te  Te121  1  0.75322498  0.59809307  0.55430170  1
  Te  Te122  1  0.75412658  0.58794213  0.92559915  1
  Te  Te123  1  0.72396422  0.93617092  0.26178920  1
  Te  Te124  1  0.75142089  0.94868076  0.59410114  1
  Te  Te125  1  0.74056695  0.94915366  0.92742943  1
  Te  Te126  1  0.26645861  0.20994451  0.08422281  1
  Te  Te127  1  0.28248780  0.21965353  0.37115721  1
  Te  Te128  1  0.27974002  0.25721503  0.75268927  1
  Te  Te129  1  0.26409832  0.58616921  0.09616250  1
  Te  Te130  1  0.24990100  0.57894049  0.41923769  1
  Te  Te131  1  0.25819396  0.58277040  0.74681332  1
  Te  Te132  1  0.25201379  0.92973157  0.06844997  1
  Te  Te133  1  0.24488740  0.90687156  0.40838054  1
  Te  Te134  1  0.24859346  0.92541230  0.74961010  1
  Te  Te135  1  0.58452929  0.22902725  0.06892900  1
  Te  Te136  1  0.59325933  0.23252038  0.44218552  1
  Te  Te137  1  0.60858216  0.22601937  0.76439454  1
  Te  Te138  1  0.59404145  0.59483109  0.07195259  1
  Te  Te139  1  0.59512033  0.57732256  0.42633365  1
  Te  Te140  1  0.57010943  0.57061490  0.74081265  1
  Te  Te141  1  0.57446264  0.95074707  0.07805501  1
  Te  Te142  1  0.58775386  0.95417857  0.40398501  1
  Te  Te143  1  0.57309464  0.93410380  0.74103389  1
  Te  Te144  1  0.91231987  0.25847300  0.08531521  1
  Te  Te145  1  0.92534027  0.22641607  0.40568056  1
  Te  Te146  1  0.89806482  0.21155615  0.73805387  1
  Te  Te147  1  0.91624310  0.57640053  0.08590977  1
  Te  Te148  1  0.91110308  0.61203712  0.41175352  1
  Te  Te149  1  0.91094116  0.58318719  0.73646415  1
  Te  Te150  1  0.88910642  0.92703168  0.09314667  1
  Te  Te151  1  0.89689850  0.94035407  0.43673067  1
  Te  Te152  1  0.91410962  0.93158425  0.75555857  1
  Te  Te153  1  0.23795371  0.09595869  0.28263010  1
  Te  Te154  1  0.27840978  0.10185667  0.56422186  1
  Te  Te155  1  0.24093500  0.11162122  0.94229675  1
  Te  Te156  1  0.27223119  0.40750697  0.23859451  1
  Te  Te157  1  0.26222169  0.37794161  0.57426401  1
  Te  Te158  1  0.24474888  0.42449778  0.91158756  1
  Te  Te159  1  0.23705730  0.76180283  0.25298802  1
  Te  Te160  1  0.23181495  0.76863027  0.60333809  1
  Te  Te161  1  0.25339726  0.74297837  0.93499061  1
  Te  Te162  1  0.57955786  0.07354232  0.25119531  1
  Te  Te163  1  0.64296203  0.07413831  0.58382552  1
  Te  Te164  1  0.59063892  0.08844207  0.95324848  1
  Te  Te165  1  0.57420769  0.41456448  0.25217403  1
  Te  Te166  1  0.58880032  0.41271208  0.57874890  1
  Te  Te167  1  0.59665933  0.39882120  0.93033632  1
  Te  Te168  1  0.57247293  0.77325964  0.25464172  1
  Te  Te169  1  0.58616121  0.76773444  0.59334929  1
  Te  Te170  1  0.59047089  0.74759094  0.91975867  1
  Te  Te171  1  0.89551829  0.06738412  0.24896301  1
  Te  Te172  1  0.88952350  0.12047755  0.57670475  1
  Te  Te173  1  0.91156015  0.07732420  0.90968210  1
  Te  Te174  1  0.89668426  0.40938808  0.23205233  1
  Te  Te175  1  0.92261612  0.39793107  0.58904131  1
  Te  Te176  1  0.93028193  0.38352616  0.91840342  1
  Te  Te177  1  0.91680596  0.75286110  0.24919677  1
  Te  Te178  1  0.90683179  0.74252008  0.57899296  1
  Te  Te179  1  0.91485040  0.78600571  0.92159617  1
