# generated using pymatgen
data_In2Te3
_symmetry_space_group_name_H-M   'P 1'
_cell_length_a   19.02415769
_cell_length_b   18.97019661
_cell_length_c   19.00389885
_cell_angle_alpha   89.81622194
_cell_angle_beta   89.98939804
_cell_angle_gamma   89.76472269
_symmetry_Int_Tables_number   1
_chemical_formula_structural   In2Te3
_chemical_formula_sum   'In72 Te108'
_cell_volume   6858.26208172
_cell_formula_units_Z   36
loop_
 _symmetry_equiv_pos_site_id
 _symmetry_equiv_pos_as_xyz
  1  'x, y, z'
loop_
 _atom_site_type_symbol
 _atom_site_label
 _atom_site_symmetry_multiplicity
 _atom_site_fract_x
 _atom_site_fract_y
 _atom_site_fract_z
 _atom_site_occupancy
  In  In0  1  0.47453636  0.19093722  -0.12038152  1
  In  In1  1  0.84043875  0.68242601  0.15479803  1
  In  In2  1  0.36443696  0.84061057  0.13355885  1
  In  In3  1  0.83639706  0.15835323  -0.01128116  1
  In  In4  1  0.49270292  0.67810014  0.84014680  1
  In  In5  1  0.16368006  -0.01595302  0.82913011  1
  In  In6  1  -0.01078944  0.84144000  0.15429449  1
  In  In7  1  0.48975731  -0.01359581  0.82295244  1
  In  In8  1  0.16218395  0.19279189  -0.00497802  1
  In  In9  1  0.50683707  0.84551288  0.33078553  1
  In  In10  1  0.67827425  -0.00923984  -0.01838409  1
  In  In11  1  0.53346392  0.64488094  0.16275667  1
  In  In12  1  0.85149370  0.51900506  -0.01350154  1
  In  In13  1  0.82407980  0.30214003  0.51167827  1
  In  In14  1  0.80591136  0.14652387  0.67991699  1
  In  In15  1  0.15122491  0.85812256  0.35089267  1
  In  In16  1  0.16787522  0.49989735  0.34988583  1
  In  In17  1  0.15739383  0.35808299  0.83808235  1
  In  In18  1  0.49942860  0.52000140  -0.02136380  1
  In  In19  1  0.18120369  0.33698108  0.51482740  1
  In  In20  1  0.51409337  0.02561209  0.15313730  1
  In  In21  1  0.50751862  0.34811266  0.17769950  1
  In  In22  1  0.51645475  0.85364213  -0.00301591  1
  In  In23  1  0.48684978  0.31964324  0.53819882  1
  In  In24  1  -0.00632693  0.81636269  0.47872038  1
  In  In25  1  0.34126764  0.47000999  0.53442625  1
  In  In26  1  0.12769998  0.52900975  -0.02567992  1
  In  In27  1  0.30659678  0.31711179  0.33581416  1
  In  In28  1  0.61592429  0.15809050  0.52578064  1
  In  In29  1  0.74194087  0.50521594  0.14412276  1
  In  In30  1  0.00829008  0.16403386  0.17223841  1
  In  In31  1  -0.03474742  -0.00957178  0.67684710  1
  In  In32  1  0.49740234  0.83717659  0.67068044  1
  In  In33  1  0.83845269  0.32554725  0.83849997  1
  In  In34  1  0.01605950  0.33946371  0.68478925  1
  In  In35  1  0.30890363  0.14246520  0.17565737  1
  In  In36  1  0.32955721  0.65488830  -0.02318705  1
  In  In37  1  -0.00036511  0.34371541  -0.01987559  1
  In  In38  1  0.69174772  -0.01173564  0.31661396  1
  In  In39  1  0.68138497  0.51140746  0.83494197  1
  In  In40  1  0.84622994  0.50144152  0.67736575  1
  In  In41  1  0.68549558  0.31855445  0.34358807  1
  In  In42  1  0.46083240  0.14749250  0.35839542  1
  In  In43  1  0.19017759  0.61396938  0.57041061  1
  In  In44  1  0.84660641  0.82041573  -0.01842486  1
  In  In45  1  0.33706962  0.01462470  -0.01185257  1
  In  In46  1  0.15456173  0.00198692  0.49133887  1
  In  In47  1  0.30841351  0.71124516  0.37111552  1
  In  In48  1  0.17782571  0.82313163  0.00492780  1
  In  In49  1  -0.01535265  0.66022577  0.32775194  1
  In  In50  1  0.45670574  0.17367728  0.68405387  1
  In  In51  1  -0.00750263  -0.00238147  0.33687476  1
  In  In52  1  0.80823842  0.00287822  0.51555615  1
  In  In53  1  0.18083078  0.15831679  0.66587429  1
  In  In54  1  0.67558076  0.18013198  0.17246024  1
  In  In55  1  0.82314936  0.83813231  0.69303150  1
  In  In56  1  0.50336283  0.49246180  0.33232536  1
  In  In57  1  0.35507053  0.51257435  0.15348373  1
  In  In58  1  0.32608203  0.64827519  0.67297523  1
  In  In59  1  0.66150337  0.33452992  -0.02893161  1
  In  In60  1  0.66514911  0.66097251  0.32828484  1
  In  In61  1  0.64987501  0.47571516  0.50169517  1
  In  In62  1  0.00781609  0.66909618  0.66087385  1
  In  In63  1  0.67497448  0.68984899  0.68584757  1
  In  In64  1  0.34273882  0.86927967  0.50975224  1
  In  In65  1  0.84020798  0.16081826  0.34122224  1
  In  In66  1  0.17370945  0.83898464  0.67526776  1
  In  In67  1  0.00532933  0.01161867  -0.01229905  1
  In  In68  1  0.82890352  0.64767664  0.49460573  1
  In  In69  1  0.15695564  0.32876403  0.15689421  1
  In  In70  1  0.66370116  0.84102044  0.50449823  1
  In  In71  1  0.16881963  0.66141758  0.20832648  1
  Te  Te72  1  0.09912956  0.08427491  0.08095820  1
  Te  Te73  1  0.06596591  0.09208782  0.41914639  1
  Te  Te74  1  0.07649602  0.07041547  0.73933927  1
  Te  Te75  1  0.07295038  0.42790730  0.08039555  1
  Te  Te76  1  0.08999219  0.39823605  0.41699801  1
  Te  Te77  1  0.07871582  0.45326088  0.75433596  1
  Te  Te78  1  0.09357436  0.74473444  0.10464652  1
  Te  Te79  1  0.09705615  0.73122662  0.40753118  1
  Te  Te80  1  0.10781851  0.73018264  0.75296707  1
  Te  Te81  1  0.41909737  0.10937223  0.07167092  1
  Te  Te82  1  0.41211408  0.09069891  0.48610683  1
  Te  Te83  1  0.38228481  0.06859661  0.76277072  1
  Te  Te84  1  0.42784111  0.41465426  0.06590335  1
  Te  Te85  1  0.41240672  0.40358891  0.41301426  1
  Te  Te86  1  0.42601497  0.32036872  0.72956012  1
  Te  Te87  1  0.43861419  0.72470034  0.06709710  1
  Te  Te88  1  0.43212225  0.76331726  0.43382979  1
  Te  Te89  1  0.39713319  0.75479724  0.75041332  1
  Te  Te90  1  0.74810376  0.08103389  0.08515055  1
  Te  Te91  1  0.73079885  0.10265290  0.43023091  1
  Te  Te92  1  0.79888108  0.04085170  0.78474154  1
  Te  Te93  1  0.77752340  0.39492352  0.04274081  1
  Te  Te94  1  0.76444385  0.41787093  0.42442887  1
  Te  Te95  1  0.74896003  0.40768059  0.74731118  1
  Te  Te96  1  0.74764617  0.75657751  0.07035873  1
  Te  Te97  1  0.74796057  0.75144729  0.41681683  1
  Te  Te98  1  0.77942425  0.72695521  0.78338610  1
  Te  Te99  1  0.10105353  0.23911413  0.25635713  1
  Te  Te100  1  0.08264391  0.24409919  0.58863736  1
  Te  Te101  1  0.06636385  0.24353633  0.89077818  1
  Te  Te102  1  0.06738491  0.55837962  0.25015735  1
  Te  Te103  1  0.05062306  0.56925526  0.56004570  1
  Te  Te104  1  0.07610729  0.64240443  0.89642521  1
  Te  Te105  1  0.08564099  0.92868480  0.23733505  1
  Te  Te106  1  0.06875831  0.90358312  0.57713025  1
  Te  Te107  1  0.07604937  0.89738824  0.91727510  1
  Te  Te108  1  0.41592727  0.24856628  0.24672446  1
  Te  Te109  1  0.37292513  0.22241726  0.55279254  1
  Te  Te110  1  0.36255187  0.28712327  0.86476151  1
  Te  Te111  1  0.42320067  0.59974739  0.25759695  1
  Te  Te112  1  0.42437659  0.57127528  0.59768934  1
  Te  Te113  1  0.39520858  0.56254563  0.87657507  1
  Te  Te114  1  0.42687010  0.93315885  0.23604721  1
  Te  Te115  1  0.44994959  0.94374251  0.57788839  1
  Te  Te116  1  0.40001242  0.89948162  0.91498818  1
  Te  Te117  1  0.77946118  0.26458853  0.23925376  1
  Te  Te118  1  0.71778821  0.24442051  0.60203582  1
  Te  Te119  1  0.73715473  0.22698970  0.89528567  1
  Te  Te120  1  0.78573295  0.58295642  0.27399342  1
  Te  Te121  1  0.73616646  0.57730024  0.59177894  1
  Te  Te122  1  0.74601998  0.60350095  0.92748397  1
  Te  Te123  1  0.78864716  0.89434009  0.27000172  1
  Te  Te124  1  0.72473917  0.92531128  0.61415829  1
  Te  Te125  1  0.77778254  0.92600878  0.89186480  1
  Te  Te126  1  0.26658066  0.25841017  0.08142689  1
  Te  Te127  1  0.24749802  0.22836046  0.43597055  1
  Te  Te128  1  0.24092520  0.25569663  0.76226045  1
  Te  Te129  1  0.24430787  0.59609029  0.08953624  1
  Te  Te130  1  0.27225075  0.57806887  0.42980403  1
  Te  Te131  1  0.21405412  0.55551311  0.70919067  1
  Te  Te132  1  0.25327382  0.93072645  0.08306550  1
  Te  Te133  1  0.27165559  0.94160361  0.38836795  1
  Te  Te134  1  0.26848402  0.93296144  0.73782028  1
  Te  Te135  1  0.58510647  0.25922635  0.08051965  1
  Te  Te136  1  0.56641274  0.26088944  0.41607695  1
  Te  Te137  1  0.55988246  0.24684516  0.77096531  1
  Te  Te138  1  0.61178894  0.55492233  0.07392974  1
  Te  Te139  1  0.57555526  0.58720162  0.42462037  1
  Te  Te140  1  0.58054563  0.59225458  0.75193427  1
  Te  Te141  1  0.60678047  0.92003408  0.09777339  1
  Te  Te142  1  0.58803900  0.93951311  0.41667379  1
  Te  Te143  1  0.58792075  0.88329305  0.77897081  1
  Te  Te144  1  0.92815779  0.24597228  0.07183247  1
  Te  Te145  1  0.91857079  0.26415167  0.40699693  1
  Te  Te146  1  0.91017235  0.24022514  0.73787352  1
  Te  Te147  1  0.93911029  0.60897402  0.07011731  1
  Te  Te148  1  0.93761447  0.56740961  0.43455776  1
  Te  Te149  1  0.90275143  0.61527233  0.75192711  1
  Te  Te150  1  0.90562779  0.93322101  0.07025660  1
  Te  Te151  1  0.89370420  0.91929416  0.42312493  1
  Te  Te152  1  0.94733528  0.87352430  0.76189563  1
  Te  Te153  1  0.26984877  0.06387814  0.28938833  1
  Te  Te154  1  0.25335299  0.05904883  0.58292977  1
  Te  Te155  1  0.23686393  0.09280867  0.90760973  1
  Te  Te156  1  0.26011174  0.42930820  0.23907959  1
  Te  Te157  1  0.24311058  0.41156131  0.62751560  1
  Te  Te158  1  0.23325706  0.43632026  0.93623253  1
  Te  Te159  1  0.27255159  0.77042539  0.23886980  1
  Te  Te160  1  0.25037950  0.76246154  0.56774446  1
  Te  Te161  1  0.24885839  0.74926085  0.89977982  1
  Te  Te162  1  0.58355911  0.10173316  0.26501612  1
  Te  Te163  1  0.57808345  0.09030238  0.64861373  1
  Te  Te164  1  0.57242643  0.07594735  0.91356888  1
  Te  Te165  1  0.61319717  0.42506225  0.25376558  1
  Te  Te166  1  0.56977741  0.41659769  0.60779912  1
  Te  Te167  1  0.56883855  0.41984016  0.88819368  1
  Te  Te168  1  0.59441358  0.76096071  0.23893626  1
  Te  Te169  1  0.57858949  0.74354670  0.58191150  1
  Te  Te170  1  0.59232896  0.76886862  0.90298736  1
  Te  Te171  1  0.90607272  0.07391540  0.23703392  1
  Te  Te172  1  0.91072773  0.09226757  0.57831322  1
  Te  Te173  1  0.91658166  0.08078998  0.88892222  1
  Te  Te174  1  0.86722522  0.47058933  0.21041994  1
  Te  Te175  1  0.91423276  0.40052975  0.58921770  1
  Te  Te176  1  0.92980829  0.43756117  0.88467934  1
  Te  Te177  1  0.90592691  0.77626145  0.26456028  1
  Te  Te178  1  0.89569883  0.75722631  0.57935830  1
  Te  Te179  1  0.95223203  0.71682104  0.95563729  1
