# generated using pymatgen
data_In2Te3
_symmetry_space_group_name_H-M   'P 1'
_cell_length_a   18.75529039
_cell_length_b   18.76264889
_cell_length_c   18.76000488
_cell_angle_alpha   90.04869883
_cell_angle_beta   90.03506318
_cell_angle_gamma   89.96609725
_symmetry_Int_Tables_number   1
_chemical_formula_structural   In2Te3
_chemical_formula_sum   'In72 Te108'
_cell_volume   6601.62083748
_cell_formula_units_Z   36
loop_
 _symmetry_equiv_pos_site_id
 _symmetry_equiv_pos_as_xyz
  1  'x, y, z'
loop_
 _atom_site_type_symbol
 _atom_site_label
 _atom_site_symmetry_multiplicity
 _atom_site_fract_x
 _atom_site_fract_y
 _atom_site_fract_z
 _atom_site_occupancy
  In  In0  1  0.67416281  -0.01531160  -0.01542400  1
  In  In1  1  0.16054716  0.14220924  -0.00355379  1
  In  In2  1  0.66242921  0.67462640  0.67623546  1
  In  In3  1  0.17959351  0.17052770  0.65713080  1
  In  In4  1  0.33537601  0.84279798  0.81814774  1
  In  In5  1  0.66504605  0.32682506  0.67821990  1
  In  In6  1  0.16362346  0.35273442  0.18463721  1
  In  In7  1  0.15845635  0.83157046  0.32998715  1
  In  In8  1  0.32433215  0.65188250  0.66061899  1
  In  In9  1  0.16212961  0.49010423  -0.00921773  1
  In  In10  1  0.83217392  -0.00498665  0.17333811  1
  In  In11  1  0.19207341  0.49481107  0.65635617  1
  In  In12  1  0.19394138  0.82700303  0.66575913  1
  In  In13  1  0.36365738  0.63912706  -0.02849451  1
  In  In14  1  -0.01531770  0.84035265  0.84955999  1
  In  In15  1  -0.02301350  0.33148401  0.00641776  1
  In  In16  1  0.67828340  0.68254293  0.33986029  1
  In  In17  1  0.50985095  0.81473337  -0.00833727  1
  In  In18  1  0.52572362  0.18812050  0.37966701  1
  In  In19  1  0.36273994  0.32375153  0.00069740  1
  In  In20  1  -0.01942360  0.84075650  0.48155419  1
  In  In21  1  0.81427005  0.15495644  0.33401366  1
  In  In22  1  -0.02031360  0.67088507  0.00440480  1
  In  In23  1  0.66286937  0.47753028  0.85078902  1
  In  In24  1  0.65762847  0.48351202  0.52491614  1
  In  In25  1  0.68633904  0.83122113  0.17694321  1
  In  In26  1  0.16935343  0.02100055  0.49647160  1
  In  In27  1  0.82564024  0.50222580  0.32436680  1
  In  In28  1  -0.02613896  0.62960597  0.68960145  1
  In  In29  1  0.34810202  0.84046869  0.52150881  1
  In  In30  1  0.33996909  0.49455725  0.49191028  1
  In  In31  1  0.35262097  0.16246174  0.85573905  1
  In  In32  1  -0.02814806  0.15988818  0.83412541  1
  In  In33  1  0.15267054  0.17648533  0.34637493  1
  In  In34  1  0.80278210  0.85169898  0.64626860  1
  In  In35  1  0.01593490  0.48479904  0.50038858  1
  In  In36  1  0.35329065  0.03221031  0.35321937  1
  In  In37  1  0.79065283  0.13523477  0.66984927  1
  In  In38  1  -0.01410982  0.33270603  0.32276784  1
  In  In39  1  0.49900894  0.33332618  0.16014013  1
  In  In40  1  0.31965833  0.32868485  0.33803719  1
  In  In41  1  0.83031194  0.51058398  0.00775534  1
  In  In42  1  0.66038065  0.18245714  0.18812190  1
  In  In43  1  0.49938201  0.03018837  0.16488383  1
  In  In44  1  0.82795610  0.33675264  0.84712327  1
  In  In45  1  -0.02613394  0.84007003  0.16732878  1
  In  In46  1  0.18603480  0.32549999  0.50371211  1
  In  In47  1  0.16326076  0.67646951  0.81552288  1
  In  In48  1  0.33954332  0.66176282  0.35973183  1
  In  In49  1  0.32057478  0.16965817  0.16758460  1
  In  In50  1  0.82385743  0.67513312  0.49759747  1
  In  In51  1  0.49285140  0.49008726  0.33756802  1
  In  In52  1  0.83369273  0.33122735  0.51063127  1
  In  In53  1  0.82235615  0.17587206  -0.01253863  1
  In  In54  1  0.52230777  0.84047378  0.67084999  1
  In  In55  1  0.67164482  0.67464950  0.00430539  1
  In  In56  1  0.17188883  0.32439739  0.81274531  1
  In  In57  1  0.82198740  -0.00321543  0.49785541  1
  In  In58  1  0.50452532  0.00268840  0.82940202  1
  In  In59  1  0.48082138  0.66691198  0.50889661  1
  In  In60  1  0.15089823  0.84713969  -0.01471224  1
  In  In61  1  0.34499372  0.85146175  0.17630619  1
  In  In62  1  0.14091355  -0.01089639  0.15142635  1
  In  In63  1  0.49167302  0.18950179  0.00203185  1
  In  In64  1  0.01012249  0.33407974  0.67016548  1
  In  In65  1  0.51103112  0.64869246  0.85019938  1
  In  In66  1  -0.00388241  0.68162028  0.30690684  1
  In  In67  1  0.00177922  0.00662606  0.66430062  1
  In  In68  1  0.52767952  0.65302300  0.16959730  1
  In  In69  1  0.15630854  0.63869401  0.17059201  1
  In  In70  1  0.51227055  0.17657196  0.63589907  1
  In  In71  1  0.67422993  0.48712701  0.15444880  1
  Te  Te72  1  0.05493538  0.08611792  0.08159625  1
  Te  Te73  1  0.06405497  0.07945003  0.41287495  1
  Te  Te74  1  0.08776780  0.09484533  0.75391681  1
  Te  Te75  1  0.06685562  0.42548645  0.09033149  1
  Te  Te76  1  0.10001525  0.40245269  0.40362207  1
  Te  Te77  1  0.08664953  0.43631734  0.75338621  1
  Te  Te78  1  0.08939554  0.75711310  0.09355142  1
  Te  Te79  1  0.07991323  0.73881587  0.42184127  1
  Te  Te80  1  0.07048554  0.76514882  0.73636495  1
  Te  Te81  1  0.39677880  0.08522701  0.06542572  1
  Te  Te82  1  0.46398957  0.06946479  0.45155522  1
  Te  Te83  1  0.42380562  0.09300408  0.73879001  1
  Te  Te84  1  0.40337572  0.42710471  0.09888654  1
  Te  Te85  1  0.43349839  0.38412121  0.42979413  1
  Te  Te86  1  0.37418691  0.46778262  0.72823432  1
  Te  Te87  1  0.41652468  0.73872821  0.08696955  1
  Te  Te88  1  0.43219104  0.77295409  0.41075229  1
  Te  Te89  1  0.42460976  0.73782547  0.74741284  1
  Te  Te90  1  0.72948275  0.08233247  0.09058228  1
  Te  Te91  1  0.72033060  0.08850324  0.43215553  1
  Te  Te92  1  0.73557113  0.04556573  0.77645791  1
  Te  Te93  1  0.74902158  0.39924597  0.06145597  1
  Te  Te94  1  0.74039016  0.41195766  0.41649480  1
  Te  Te95  1  0.75954126  0.42672318  0.74224737  1
  Te  Te96  1  0.76677700  0.76767892  0.07009215  1
  Te  Te97  1  0.75512095  0.78588630  0.42085261  1
  Te  Te98  1  0.76692597  0.74972569  0.74837126  1
  Te  Te99  1  0.07366439  0.23947790  0.23269133  1
  Te  Te100  1  0.07595278  0.24134273  0.56836431  1
  Te  Te101  1  0.07492153  0.25462448  0.91061138  1
  Te  Te102  1  0.06791157  0.56218195  0.25884484  1
  Te  Te103  1  0.08529390  0.58643923  0.59270642  1
  Te  Te104  1  0.08065807  0.59591772  0.91453536  1
  Te  Te105  1  0.05984942  0.92554010  0.26419967  1
  Te  Te106  1  0.08733062  0.91149991  0.57646249  1
  Te  Te107  1  0.07950959  0.94272876  0.89999435  1
  Te  Te108  1  0.42565508  0.23494901  0.25815650  1
  Te  Te109  1  0.43667182  0.28515817  0.56835053  1
  Te  Te110  1  0.45311024  0.28460509  0.88004689  1
  Te  Te111  1  0.41492572  0.58486377  0.24812229  1
  Te  Te112  1  0.43572068  0.55604779  0.60323163  1
  Te  Te113  1  0.43835421  0.52568185  0.90467219  1
  Te  Te114  1  0.43514487  0.93311403  0.26795127  1
  Te  Te115  1  0.43570757  0.93352625  0.59436879  1
  Te  Te116  1  0.41842780  0.91631807  0.92359286  1
  Te  Te117  1  0.75908657  0.26943835  0.25535321  1
  Te  Te118  1  0.72437161  0.23430250  0.56201524  1
  Te  Te119  1  0.72584833  0.24100248  0.89356070  1
  Te  Te120  1  0.74764863  0.59880224  0.23290391  1
  Te  Te121  1  0.75547375  0.58021171  0.59398968  1
  Te  Te122  1  0.75197596  0.59036311  0.90260622  1
  Te  Te123  1  0.72842095  0.93973635  0.27301288  1
  Te  Te124  1  0.69918117  0.94191433  0.57578736  1
  Te  Te125  1  0.76660117  0.93633193  0.88101569  1
  Te  Te126  1  0.23558356  0.25945539  0.07709564  1
  Te  Te127  1  0.27183165  0.21867743  0.43317785  1
  Te  Te128  1  0.28127876  0.24504761  0.74510248  1
  Te  Te129  1  0.25614493  0.58088117  0.07083365  1
  Te  Te130  1  0.23821199  0.57193771  0.41836428  1
  Te  Te131  1  0.26906765  0.56485028  0.78101409  1
  Te  Te132  1  0.25532165  0.92186727  0.07511902  1
  Te  Te133  1  0.25904723  0.91536500  0.41070012  1
  Te  Te134  1  0.25474549  0.93834813  0.73982289  1
  Te  Te135  1  0.60395557  0.26711190  0.07158834  1
  Te  Te136  1  0.62618800  0.27394578  0.44475636  1
  Te  Te137  1  0.59585926  0.21973972  0.75354460  1
  Te  Te138  1  0.58038433  0.56443501  0.05883423  1
  Te  Te139  1  0.58546937  0.58221239  0.42034199  1
  Te  Te140  1  0.58560210  0.56372668  0.74607146  1
  Te  Te141  1  0.57435104  0.91502391  0.09063018  1
  Te  Te142  1  0.66224138  0.91304442  0.41345659  1
  Te  Te143  1  0.61251346  0.92783667  0.75604710  1
  Te  Te144  1  0.89665805  0.24655678  0.09506948  1
  Te  Te145  1  0.91729370  0.24113192  0.42314829  1
  Te  Te146  1  0.89658157  0.24700941  0.73194326  1
  Te  Te147  1  0.91858788  0.58092659  0.10375311  1
  Te  Te148  1  0.91667826  0.57816194  0.42363376  1
  Te  Te149  1  0.90676417  0.55559783  0.79486619  1
  Te  Te150  1  0.90834096  0.92453438  0.06554904  1
  Te  Te151  1  0.90150748  0.92700703  0.39270755  1
  Te  Te152  1  0.90368570  0.92199949  0.74102100  1
  Te  Te153  1  0.24087576  0.06975378  0.25155869  1
  Te  Te154  1  0.27210975  0.08255827  0.58147998  1
  Te  Te155  1  0.24956010  0.06878275  0.90547321  1
  Te  Te156  1  0.26720239  0.43519922  0.25038211  1
  Te  Te157  1  0.28750519  0.38742067  0.60129721  1
  Te  Te158  1  0.25765927  0.40008742  0.91426357  1
  Te  Te159  1  0.25542653  0.74571381  0.24621940  1
  Te  Te160  1  0.24562671  0.73223365  0.55725007  1
  Te  Te161  1  0.25731952  0.74801855  0.91835137  1
  Te  Te162  1  0.58544790  0.08471213  0.27784859  1
  Te  Te163  1  0.58573884  0.06933986  0.55944771  1
  Te  Te164  1  0.58356538  0.09312290  0.92394269  1
  Te  Te165  1  0.59234105  0.40710184  0.25762711  1
  Te  Te166  1  0.55755804  0.39539255  0.59564685  1
  Te  Te167  1  0.54956300  0.41016433  0.91677891  1
  Te  Te168  1  0.57511492  0.76476132  0.26127505  1
  Te  Te169  1  0.59277740  0.75377951  0.56484034  1
  Te  Te170  1  0.60903048  0.76157500  0.89163479  1
  Te  Te171  1  0.91805145  0.08746391  0.25139592  1
  Te  Te172  1  0.90977230  0.09520674  0.58156131  1
  Te  Te173  1  0.90632446  0.06695845  0.92833948  1
  Te  Te174  1  0.89971344  0.41274404  0.23305319  1
  Te  Te175  1  0.91204781  0.42919476  0.59799527  1
  Te  Te176  1  0.93216802  0.43810421  0.90053460  1
  Te  Te177  1  0.88434672  0.76210518  0.25660855  1
  Te  Te178  1  0.91985407  0.75030278  0.59166186  1
  Te  Te179  1  0.88939777  0.75164134  0.91960724  1
