# generated using pymatgen
data_In2Te3
_symmetry_space_group_name_H-M   'P 1'
_cell_length_a   18.75186345
_cell_length_b   18.74635010
_cell_length_c   18.74323028
_cell_angle_alpha   90.00425348
_cell_angle_beta   89.94916045
_cell_angle_gamma   90.04440454
_symmetry_Int_Tables_number   1
_chemical_formula_structural   In2Te3
_chemical_formula_sum   'In72 Te108'
_cell_volume   6588.78435587
_cell_formula_units_Z   36
loop_
 _symmetry_equiv_pos_site_id
 _symmetry_equiv_pos_as_xyz
  1  'x, y, z'
loop_
 _atom_site_type_symbol
 _atom_site_label
 _atom_site_symmetry_multiplicity
 _atom_site_fract_x
 _atom_site_fract_y
 _atom_site_fract_z
 _atom_site_occupancy
  In  In0  1  0.67337106  0.31713074  0.32180506  1
  In  In1  1  -0.03264663  0.31381400  0.66383700  1
  In  In2  1  0.31110533  0.66759318  0.66582521  1
  In  In3  1  -0.00010390  0.17466740  0.17270775  1
  In  In4  1  -0.01509731  0.00051977  0.33785094  1
  In  In5  1  0.35957041  0.00232902  0.00858716  1
  In  In6  1  0.49924873  0.83133945  0.31846105  1
  In  In7  1  -0.03836703  0.17957236  0.79418349  1
  In  In8  1  -0.00798508  0.64870391  0.67816530  1
  In  In9  1  0.51468906  0.16024422  0.32421678  1
  In  In10  1  0.67950258  0.66629588  0.65473306  1
  In  In11  1  0.82372774  0.17533897  0.00372243  1
  In  In12  1  0.00163581  0.82233331  0.82035071  1
  In  In13  1  0.69441599  0.47909802  0.13845263  1
  In  In14  1  0.33400164  0.31661759  0.32281733  1
  In  In15  1  0.81591694  0.65826638  0.49124983  1
  In  In16  1  0.66592576  0.83693620  0.18618036  1
  In  In17  1  0.33279454  0.02224152  0.67210875  1
  In  In18  1  0.17029193  0.31666027  0.18137070  1
  In  In19  1  -0.03063062  0.48851871  0.16773316  1
  In  In20  1  0.52796828  0.03276839  0.52213180  1
  In  In21  1  -0.02240166  0.83661727  0.18711041  1
  In  In22  1  0.68573527  0.47495995  0.83104154  1
  In  In23  1  0.48467107  0.84547932  0.00289397  1
  In  In24  1  0.50638196  0.85691840  0.67514898  1
  In  In25  1  0.11860634  0.34490370  0.49075912  1
  In  In26  1  0.51698304  0.47934074  0.66250776  1
  In  In27  1  0.17240784  0.52191637  0.67338283  1
  In  In28  1  0.17430087  0.16879248  0.64389813  1
  In  In29  1  0.33851715  0.85017693  0.84818635  1
  In  In30  1  0.82163301  0.49416413  0.32270584  1
  In  In31  1  0.33425856  0.66212810  0.33354956  1
  In  In32  1  0.83329603  0.83260068  -0.00965943  1
  In  In33  1  0.66723619  0.64244034  -0.00095608  1
  In  In34  1  0.18114066  0.49620425  -0.00439016  1
  In  In35  1  0.34383669  0.16568785  0.50197918  1
  In  In36  1  0.17999371  0.86256726  0.36073810  1
  In  In37  1  0.16598552  0.34282869  0.85458055  1
  In  In38  1  0.49647706  0.65888673  0.85596800  1
  In  In39  1  0.35269725  0.33243473  0.66412834  1
  In  In40  1  0.68428273  0.16829693  0.81772680  1
  In  In41  1  -0.02062249  0.64784787  0.02604236  1
  In  In42  1  0.15366620  0.14562526  0.33780900  1
  In  In43  1  0.50806455  0.66980412  0.46508150  1
  In  In44  1  0.36094356  0.47119313  0.15212185  1
  In  In45  1  0.34765954  0.83716789  0.16262949  1
  In  In46  1  0.82306856  0.31399394  0.51007919  1
  In  In47  1  -0.01238080  0.85061561  0.48842312  1
  In  In48  1  0.35278808  0.66905576  0.00447513  1
  In  In49  1  0.82139086  0.17505460  0.33998230  1
  In  In50  1  0.67693423  0.01436850  0.33205093  1
  In  In51  1  -0.01027936  0.03002834  0.00662084  1
  In  In52  1  0.33117331  0.15632904  0.15902060  1
  In  In53  1  0.19373510  0.84086497  0.00395732  1
  In  In54  1  0.52337932  0.32021881  0.85060385  1
  In  In55  1  -0.02895240  0.01364717  0.63501428  1
  In  In56  1  -0.02935752  0.47567790  0.83472122  1
  In  In57  1  0.52508591  0.32694977  0.50897830  1
  In  In58  1  0.15709537  0.66954145  0.51378154  1
  In  In59  1  0.17375881  0.17743321  0.01451626  1
  In  In60  1  0.66854217  0.01023862  0.00043926  1
  In  In61  1  -0.01498877  0.33829536  -0.01482263  1
  In  In62  1  0.69116616  0.83671254  0.49030725  1
  In  In63  1  0.14817214  0.65266213  0.80126149  1
  In  In64  1  0.82581302  0.84949096  0.66166485  1
  In  In65  1  0.66216045  0.84766532  0.80707836  1
  In  In66  1  0.13770521  0.66119310  0.18028225  1
  In  In67  1  0.36490919  0.17210662  0.83022174  1
  In  In68  1  -0.02004899  0.66052651  0.31689100  1
  In  In69  1  0.33361429  0.50266898  0.50662885  1
  In  In70  1  0.16893841  -0.00468170  0.82629900  1
  In  In71  1  0.52276729  0.50525558  0.33673312  1
  Te  Te72  1  0.09843340  0.07947720  0.10422348  1
  Te  Te73  1  0.06258315  0.08108883  0.43494130  1
  Te  Te74  1  0.08076449  0.08622816  0.74043559  1
  Te  Te75  1  0.08668163  0.40808302  0.08174430  1
  Te  Te76  1  0.08181081  0.44391065  0.39199796  1
  Te  Te77  1  0.08247951  0.40863041  0.74399234  1
  Te  Te78  1  0.07555941  0.75959600  0.07847693  1
  Te  Te79  1  0.07665385  0.74726597  0.40319682  1
  Te  Te80  1  0.09147519  0.76280314  0.71214675  1
  Te  Te81  1  0.44476943  0.09684814  0.08295711  1
  Te  Te82  1  0.42175691  0.07418052  0.40932787  1
  Te  Te83  1  0.44645144  0.08126784  0.74626326  1
  Te  Te84  1  0.45699330  0.40081983  0.06154098  1
  Te  Te85  1  0.42142272  0.40952177  0.42080540  1
  Te  Te86  1  0.42542476  0.41495068  0.76634450  1
  Te  Te87  1  0.44665864  0.73667979  0.10404821  1
  Te  Te88  1  0.39886137  0.76566053  0.42448579  1
  Te  Te89  1  0.42025287  0.75014959  0.75421016  1
  Te  Te90  1  0.74181838  0.09526803  0.10198220  1
  Te  Te91  1  0.76783085  0.07260033  0.43524251  1
  Te  Te92  1  0.77152108  0.09703597  0.71624610  1
  Te  Te93  1  0.74659350  0.38028951  0.04046018  1
  Te  Te94  1  0.73773960  0.41066259  0.42212645  1
  Te  Te95  1  0.76962032  0.41177365  0.72452785  1
  Te  Te96  1  0.74180659  0.75045214  0.08023254  1
  Te  Te97  1  0.74576165  0.74145015  0.39125032  1
  Te  Te98  1  0.76342759  0.74557307  0.75560013  1
  Te  Te99  1  0.06878955  0.26067610  0.27955709  1
  Te  Te100  1  0.05623357  0.22936041  0.56806696  1
  Te  Te101  1  0.07079765  0.23009413  0.91373079  1
  Te  Te102  1  0.07948125  0.54606830  0.26433849  1
  Te  Te103  1  0.06486877  0.56274615  0.57374273  1
  Te  Te104  1  0.07302377  0.57383530  0.91544569  1
  Te  Te105  1  0.08720426  0.92001768  0.25395032  1
  Te  Te106  1  0.07565191  0.92415787  0.58051645  1
  Te  Te107  1  0.07617109  0.92068275  0.92397961  1
  Te  Te108  1  0.43708623  0.25579683  0.23129428  1
  Te  Te109  1  0.44295642  0.23031754  0.59846268  1
  Te  Te110  1  0.44292866  0.23014607  0.94181872  1
  Te  Te111  1  0.42505177  0.57809604  0.24372877  1
  Te  Te112  1  0.42897221  0.58984993  0.58783446  1
  Te  Te113  1  0.43098471  0.55951753  0.94365441  1
  Te  Te114  1  0.41967124  0.93351254  0.24747441  1
  Te  Te115  1  0.42042370  0.93531297  0.57722671  1
  Te  Te116  1  0.44626682  0.94624391  0.89408446  1
  Te  Te117  1  0.73801440  0.22443465  0.22317234  1
  Te  Te118  1  0.74249835  0.21644459  0.59553340  1
  Te  Te119  1  0.71824086  0.26355976  0.93981992  1
  Te  Te120  1  0.72812496  0.57756302  0.24307637  1
  Te  Te121  1  0.76290427  0.56190591  0.59212614  1
  Te  Te122  1  0.76021872  0.58594391  0.89936750  1
  Te  Te123  1  0.76655882  0.91348752  0.26623569  1
  Te  Te124  1  0.73709842  0.93992902  0.58653015  1
  Te  Te125  1  0.75377084  0.92842742  0.90167583  1
  Te  Te126  1  0.27343933  0.27349286  0.07548597  1
  Te  Te127  1  0.24314595  0.25801188  0.43125234  1
  Te  Te128  1  0.24684785  0.24523413  0.75545243  1
  Te  Te129  1  0.24938992  0.59157548  0.09739874  1
  Te  Te130  1  0.23750528  0.57770991  0.41685935  1
  Te  Te131  1  0.27571496  0.56670318  0.77595222  1
  Te  Te132  1  0.25106211  0.94102092  0.10002981  1
  Te  Te133  1  0.26155290  0.94937315  0.44197568  1
  Te  Te134  1  0.25173856  0.90579566  0.73488542  1
  Te  Te135  1  0.55765741  0.30514754  0.11517108  1
  Te  Te136  1  0.60549908  0.22683870  0.42705053  1
  Te  Te137  1  0.59499343  0.25747604  0.73609055  1
  Te  Te138  1  0.57940217  0.55895892  0.08371513  1
  Te  Te139  1  0.61080020  0.56914388  0.43665469  1
  Te  Te140  1  0.58674124  0.58644929  0.75471320  1
  Te  Te141  1  0.57859141  0.92416194  0.09307122  1
  Te  Te142  1  0.57871742  0.92012020  0.42092333  1
  Te  Te143  1  0.59053958  0.96000718  0.74125794  1
  Te  Te144  1  0.90675432  0.26672296  0.09671817  1
  Te  Te145  1  0.92067624  0.25999338  0.41173262  1
  Te  Te146  1  0.86131929  0.29370118  0.77335848  1
  Te  Te147  1  0.87221079  0.56916877  0.08982786  1
  Te  Te148  1  0.91731771  0.56797196  0.42000398  1
  Te  Te149  1  0.89122004  0.56649189  0.74791454  1
  Te  Te150  1  0.90551082  0.92884521  0.08604859  1
  Te  Te151  1  0.88242467  0.91122187  0.40313007  1
  Te  Te152  1  0.91680428  0.93103974  0.75511197  1
  Te  Te153  1  0.26561356  0.07977653  0.26792396  1
  Te  Te154  1  0.23258151  0.06133138  0.55183465  1
  Te  Te155  1  0.25562477  0.08265813  0.91705031  1
  Te  Te156  1  0.25381956  0.42560411  0.25273006  1
  Te  Te157  1  0.24191807  0.40599338  0.58873534  1
  Te  Te158  1  0.27759919  0.40846512  0.92490056  1
  Te  Te159  1  0.24240653  0.75468416  0.24848205  1
  Te  Te160  1  0.25858578  0.76326447  0.56725684  1
  Te  Te161  1  0.24383486  0.73458202  0.90400413  1
  Te  Te162  1  0.60489769  0.09204912  0.22554967  1
  Te  Te163  1  0.62317695  0.11281843  0.60399047  1
  Te  Te164  1  0.59269748  0.11384494  0.92372976  1
  Te  Te165  1  0.57746703  0.40208716  0.23806926  1
  Te  Te166  1  0.62190713  0.39806193  0.59809495  1
  Te  Te167  1  0.59478644  0.42107956  0.93796288  1
  Te  Te168  1  0.59327230  0.73126829  0.26384339  1
  Te  Te169  1  0.58029664  0.75785635  0.57980789  1
  Te  Te170  1  0.58884806  0.76688181  0.91868857  1
  Te  Te171  1  0.90221510  0.08129247  0.23941906  1
  Te  Te172  1  0.87143104  0.12074720  0.59644562  1
  Te  Te173  1  0.89548077  0.08671900  0.90157488  1
  Te  Te174  1  0.90092466  0.38868824  0.25270030  1
  Te  Te175  1  0.90276488  0.41947320  0.58252720  1
  Te  Te176  1  0.87219956  0.42619012  0.93716203  1
  Te  Te177  1  0.88237160  0.73585317  0.23652569  1
  Te  Te178  1  0.91377490  0.74794790  0.58044699  1
  Te  Te179  1  0.91817210  0.73212313  0.91015561  1
