# generated using pymatgen
data_In2Te3
_symmetry_space_group_name_H-M   'P 1'
_cell_length_a   18.95957444
_cell_length_b   19.00043874
_cell_length_c   18.95505539
_cell_angle_alpha   90.25249115
_cell_angle_beta   90.15446611
_cell_angle_gamma   90.11354243
_symmetry_Int_Tables_number   1
_chemical_formula_structural   In2Te3
_chemical_formula_sum   'In72 Te108'
_cell_volume   6828.26887621
_cell_formula_units_Z   36
loop_
 _symmetry_equiv_pos_site_id
 _symmetry_equiv_pos_as_xyz
  1  'x, y, z'
loop_
 _atom_site_type_symbol
 _atom_site_label
 _atom_site_symmetry_multiplicity
 _atom_site_fract_x
 _atom_site_fract_y
 _atom_site_fract_z
 _atom_site_occupancy
  In  In0  1  0.03047803  0.32373649  -0.01785725  1
  In  In1  1  0.34591631  0.00770945  -0.00186859  1
  In  In2  1  0.51375473  0.67806030  0.15651673  1
  In  In3  1  0.52183027  0.84250575  0.33702699  1
  In  In4  1  0.82603546  0.17564907  0.67232855  1
  In  In5  1  -0.00401145  -0.00058234  0.33606672  1
  In  In6  1  0.49278274  0.53519833  0.36523318  1
  In  In7  1  0.67120371  0.33861895  0.31568689  1
  In  In8  1  0.14899589  0.33237380  0.53452641  1
  In  In9  1  0.34608852  0.81044706  0.50466461  1
  In  In10  1  -0.00787439  0.49617034  0.51950137  1
  In  In11  1  0.34600432  -0.01526904  0.63831852  1
  In  In12  1  0.18928050  0.50457835  0.67677079  1
  In  In13  1  0.52469754  0.34569796  0.85675622  1
  In  In14  1  0.65995982  0.16722256  0.84728091  1
  In  In15  1  0.33787306  0.16507487  0.46892246  1
  In  In16  1  0.69280428  0.64761717  0.02312049  1
  In  In17  1  0.82747253  0.00290873  0.16878233  1
  In  In18  1  -0.00969106  0.34229360  0.32379772  1
  In  In19  1  0.85385607  0.86903073  -0.00905241  1
  In  In20  1  0.67380505  0.16623393  0.15401204  1
  In  In21  1  0.66381755  0.35069402  0.65583349  1
  In  In22  1  0.31628043  0.64408183  0.32835316  1
  In  In23  1  -0.00540671  0.31243144  0.71624417  1
  In  In24  1  0.29992802  0.80295091  0.18560790  1
  In  In25  1  0.49055097  0.34046163  0.46641166  1
  In  In26  1  0.83913062  0.33151033  0.49495918  1
  In  In27  1  0.13807067  0.14242074  0.68759688  1
  In  In28  1  0.16573153  0.81798169  0.62905931  1
  In  In29  1  0.17557711  0.82754897  0.00093159  1
  In  In30  1  0.00347901  0.18644218  0.13991377  1
  In  In31  1  -0.03583345  0.00784689  0.67788543  1
  In  In32  1  0.52161277  0.18668053  0.00247122  1
  In  In33  1  0.67477230  -0.00525932  0.66753122  1
  In  In34  1  0.34297497  0.32666215  0.68911169  1
  In  In35  1  0.47107628  0.36300096  0.19429380  1
  In  In36  1  0.65724583  0.80986180  0.80471799  1
  In  In37  1  0.80866965  0.50933690  0.67427366  1
  In  In38  1  0.33437793  0.68143022  -0.02906716  1
  In  In39  1  0.51785780  0.14630035  0.64236019  1
  In  In40  1  0.68483689  0.83028915  0.50297474  1
  In  In41  1  0.34429655  0.17071613  0.81102704  1
  In  In42  1  0.49494281  0.00618741  0.14964324  1
  In  In43  1  0.83344888  0.50165626  0.33555728  1
  In  In44  1  0.00787238  0.49876906  0.85858253  1
  In  In45  1  0.33407449  -0.00379380  0.33832805  1
  In  In46  1  0.82534970  0.68653539  0.83594906  1
  In  In47  1  0.16680804  0.50421286  0.00368435  1
  In  In48  1  0.49933521  0.84122330  -0.03013079  1
  In  In49  1  0.49642236  0.66374403  0.81439034  1
  In  In50  1  0.16018683  0.01287965  0.81509182  1
  In  In51  1  0.01726957  0.80664025  0.45371356  1
  In  In52  1  0.82611934  0.66336291  0.49677334  1
  In  In53  1  0.26349830  0.35322799  0.07607773  1
  In  In54  1  -0.00351743  0.83798475  0.18952183  1
  In  In55  1  0.68862312  0.36984936  0.03451499  1
  In  In56  1  0.50691767  0.16241355  0.30583325  1
  In  In57  1  0.16166083  0.62378178  0.18375519  1
  In  In58  1  0.51949022  0.81057578  0.64118674  1
  In  In59  1  0.81638885  0.13977718  0.36052222  1
  In  In60  1  0.15230881  0.17578138  0.32218048  1
  In  In61  1  0.30279310  0.37930315  0.28595984  1
  In  In62  1  0.16675744  -0.00259419  0.50852206  1
  In  In63  1  0.32855223  0.48644917  0.85545346  1
  In  In64  1  -0.00408325  0.64286205  0.02086530  1
  In  In65  1  0.14918026  0.02944319  0.15872721  1
  In  In66  1  0.69143041  0.82184783  0.18673331  1
  In  In67  1  0.67498208  -0.00566231  0.00086585  1
  In  In68  1  0.85650501  0.64970636  0.18178613  1
  In  In69  1  0.01172346  0.66432021  0.66212552  1
  In  In70  1  0.50189878  0.56405903  0.61203602  1
  In  In71  1  0.00253656  0.85427572  0.81799795  1
  Te  Te72  1  0.10002089  0.11602112  0.04178302  1
  Te  Te73  1  0.08198580  0.08986116  0.42562803  1
  Te  Te74  1  0.02924205  0.10027843  0.79125947  1
  Te  Te75  1  0.06832436  0.43206782  0.09105878  1
  Te  Te76  1  0.08062969  0.41457510  0.42651262  1
  Te  Te77  1  0.09168473  0.41893131  0.76046939  1
  Te  Te78  1  0.08262153  0.74931015  0.09234801  1
  Te  Te79  1  0.13847718  0.72769314  0.43278353  1
  Te  Te80  1  0.09556539  0.75516821  0.74906852  1
  Te  Te81  1  0.41360960  0.11469208  0.08595180  1
  Te  Te82  1  0.44287607  0.07267140  0.41173566  1
  Te  Te83  1  0.42793003  0.06926591  0.73658259  1
  Te  Te84  1  0.39686528  0.41220198  0.07823061  1
  Te  Te85  1  0.38747982  0.43020060  0.40301110  1
  Te  Te86  1  0.43199089  0.42350192  0.76247200  1
  Te  Te87  1  0.41359746  0.76674995  0.08027802  1
  Te  Te88  1  0.41671932  0.74655690  0.38784900  1
  Te  Te89  1  0.41770902  0.75727429  0.73346873  1
  Te  Te90  1  0.77039340  0.09665526  0.06194679  1
  Te  Te91  1  0.72245342  0.04924737  0.42484060  1
  Te  Te92  1  0.75338630  0.07982055  0.76791324  1
  Te  Te93  1  0.76690012  0.44976007  0.13374568  1
  Te  Te94  1  0.73961453  0.41996266  0.42439389  1
  Te  Te95  1  0.74248532  0.41341419  0.76182277  1
  Te  Te96  1  0.78745192  0.76134757  0.08468038  1
  Te  Te97  1  0.76424234  0.75669693  0.40266059  1
  Te  Te98  1  0.73556797  0.71738622  0.72277633  1
  Te  Te99  1  0.09242138  0.27880067  0.23023836  1
  Te  Te100  1  0.05408577  0.23411378  0.59961064  1
  Te  Te101  1  0.06695148  0.20663345  0.89949452  1
  Te  Te102  1  0.05696703  0.52411236  0.21298649  1
  Te  Te103  1  0.10424504  0.58210904  0.57640860  1
  Te  Te104  1  0.09910319  0.60653716  0.91523726  1
  Te  Te105  1  0.10234287  0.92507099  0.25876425  1
  Te  Te106  1  0.06482122  0.92535181  0.59172029  1
  Te  Te107  1  0.09183607  0.92565399  0.91922712  1
  Te  Te108  1  0.39170489  0.25684544  0.26616315  1
  Te  Te109  1  0.41989606  0.24496151  0.57519239  1
  Te  Te110  1  0.41756935  0.25563395  0.91567475  1
  Te  Te111  1  0.41991956  0.58616803  0.23714052  1
  Te  Te112  1  0.37421186  0.60231631  0.54938940  1
  Te  Te113  1  0.43263777  0.57906021  0.92158343  1
  Te  Te114  1  0.41574663  0.91257983  0.24064486  1
  Te  Te115  1  0.44660019  0.91463329  0.55232818  1
  Te  Te116  1  0.39657650  0.91348324  0.89591971  1
  Te  Te117  1  0.76411954  0.23549512  0.25408121  1
  Te  Te118  1  0.73691153  0.24975890  0.57063037  1
  Te  Te119  1  0.72894798  0.25443391  0.94392478  1
  Te  Te120  1  0.74230398  0.57684308  0.24434225  1
  Te  Te121  1  0.73413545  0.56447095  0.55946670  1
  Te  Te122  1  0.76427066  0.58051916  0.91451373  1
  Te  Te123  1  0.79026134  0.89918158  0.26478347  1
  Te  Te124  1  0.76790275  0.89613040  0.60838021  1
  Te  Te125  1  0.73605804  0.90510167  0.89778165  1
  Te  Te126  1  0.20500031  0.22219557  0.09126554  1
  Te  Te127  1  0.23103459  0.26165243  0.42313861  1
  Te  Te128  1  0.22930471  0.25025913  0.75206053  1
  Te  Te129  1  0.26530697  0.59670315  0.07329857  1
  Te  Te130  1  0.25117926  0.60114418  0.45286282  1
  Te  Te131  1  0.26132064  0.58665919  0.77361931  1
  Te  Te132  1  0.25164700  0.92973211  0.09238680  1
  Te  Te133  1  0.25221072  0.90585656  0.42552558  1
  Te  Te134  1  0.23859521  0.92185137  0.72196135  1
  Te  Te135  1  0.57671281  0.27504669  0.11542490  1
  Te  Te136  1  0.58905060  0.24454279  0.40402010  1
  Te  Te137  1  0.57556471  0.24654381  0.74404085  1
  Te  Te138  1  0.58457595  0.57054643  0.08530398  1
  Te  Te139  1  0.59479393  0.58917414  0.45753517  1
  Te  Te140  1  0.58882872  0.58873948  0.72840266  1
  Te  Te141  1  0.59270925  0.89894836  0.08978961  1
  Te  Te142  1  0.62074852  0.92978763  0.40612089  1
  Te  Te143  1  0.56971663  0.91472830  0.74302402  1
  Te  Te144  1  0.91468368  0.26874220  0.05889561  1
  Te  Te145  1  0.92497050  0.23902954  0.41326988  1
  Te  Te146  1  0.87326019  0.26451836  0.78107900  1
  Te  Te147  1  0.88968437  0.55324570  0.07167652  1
  Te  Te148  1  0.93298148  0.58510686  0.41378341  1
  Te  Te149  1  0.92488434  0.58057087  0.75256408  1
  Te  Te150  1  0.95378285  0.94872350  0.08839924  1
  Te  Te151  1  0.91867934  0.90873125  0.42020487  1
  Te  Te152  1  0.88661447  0.89672968  0.73696590  1
  Te  Te153  1  0.25704301  0.09115207  0.25032968  1
  Te  Te154  1  0.25327659  0.10285815  0.58580029  1
  Te  Te155  1  0.25735793  0.09033309  0.90466864  1
  Te  Te156  1  0.20710843  0.48897781  0.25104168  1
  Te  Te157  1  0.26918634  0.41076622  0.58742799  1
  Te  Te158  1  0.23763817  0.39056726  0.92955276  1
  Te  Te159  1  0.19610146  0.73666341  0.28223556  1
  Te  Te160  1  0.28555692  0.72790553  0.61409122  1
  Te  Te161  1  0.26472727  0.78321792  0.89292939  1
  Te  Te162  1  0.60301049  0.06420923  0.23955116  1
  Te  Te163  1  0.61597487  0.07668375  0.55729731  1
  Te  Te164  1  0.56818978  0.06810000  0.92147835  1
  Te  Te165  1  0.57408697  0.44430212  0.26960755  1
  Te  Te166  1  0.55331576  0.42140384  0.57814677  1
  Te  Te167  1  0.59641208  0.44016393  0.94296065  1
  Te  Te168  1  0.60148217  0.73207992  0.26918654  1
  Te  Te169  1  0.57741657  0.72597129  0.53193974  1
  Te  Te170  1  0.59536643  0.73364231  0.92672572  1
  Te  Te171  1  0.92757266  0.09927242  0.24474883  1
  Te  Te172  1  0.89880574  0.09002026  0.57789695  1
  Te  Te173  1  0.90677911  0.00144901  0.95335029  1
  Te  Te174  1  0.88418675  0.40052808  0.23612859  1
  Te  Te175  1  0.91203137  0.40435613  0.60884567  1
  Te  Te176  1  0.91883154  0.40459057  0.92464319  1
  Te  Te177  1  0.95296764  0.72257924  0.26721713  1
  Te  Te178  1  0.93168211  0.74880806  0.56870440  1
  Te  Te179  1  0.93722610  0.75175884  0.92003454  1
