# generated using pymatgen
data_In2Te3
_symmetry_space_group_name_H-M   'P 1'
_cell_length_a   18.95030759
_cell_length_b   18.95593271
_cell_length_c   18.97835983
_cell_angle_alpha   89.92416274
_cell_angle_beta   90.07828142
_cell_angle_gamma   89.92298449
_symmetry_Int_Tables_number   1
_chemical_formula_structural   In2Te3
_chemical_formula_sum   'In72 Te108'
_cell_volume   6817.40224807
_cell_formula_units_Z   36
loop_
 _symmetry_equiv_pos_site_id
 _symmetry_equiv_pos_as_xyz
  1  'x, y, z'
loop_
 _atom_site_type_symbol
 _atom_site_label
 _atom_site_symmetry_multiplicity
 _atom_site_fract_x
 _atom_site_fract_y
 _atom_site_fract_z
 _atom_site_occupancy
  In  In0  1  -0.01544018  0.32424620  0.64979772  1
  In  In1  1  0.85319936  0.67694628  0.17047610  1
  In  In2  1  0.31599851  -0.00037580  0.69299120  1
  In  In3  1  -0.00034390  0.15584152  0.49021370  1
  In  In4  1  0.33418953  0.32250254  0.66156248  1
  In  In5  1  0.34322797  0.49462024  0.83147922  1
  In  In6  1  0.32299524  0.47061006  0.47345000  1
  In  In7  1  0.50536535  0.15941489  0.33021634  1
  In  In8  1  0.41024525  0.11091679  -0.02900534  1
  In  In9  1  0.83501663  0.82310817  0.66557682  1
  In  In10  1  0.68249353  0.17557695  0.16958084  1
  In  In11  1  0.16831419  0.82870806  0.68101082  1
  In  In12  1  0.35244468  0.65977281  0.32993757  1
  In  In13  1  0.49491590  -0.01449893  0.52200672  1
  In  In14  1  0.84837341  0.66540461  0.48837595  1
  In  In15  1  0.17267361  0.66811697  0.15732303  1
  In  In16  1  0.18566927  0.16687585  -0.00406576  1
  In  In17  1  -0.00704002  0.67507440  0.31623433  1
  In  In18  1  0.47877413  0.48190172  0.01804722  1
  In  In19  1  0.15522265  0.17004351  0.67713845  1
  In  In20  1  0.48423380  0.16595419  0.65008200  1
  In  In21  1  0.66382857  -0.01102125  0.66831000  1
  In  In22  1  0.83495913  0.47810241  0.64847438  1
  In  In23  1  0.48258574  0.00454639  0.14221884  1
  In  In24  1  0.66669025  0.51461136  0.81690303  1
  In  In25  1  0.35058474  0.67746458  0.67177915  1
  In  In26  1  0.80296245  0.01490985  0.84494491  1
  In  In27  1  0.69663976  0.49711278  0.16265882  1
  In  In28  1  0.49716201  0.30126816  0.83790425  1
  In  In29  1  0.82113553  0.48567391  0.35942421  1
  In  In30  1  0.49249372  0.32655737  0.17554844  1
  In  In31  1  0.51570353  0.49713157  0.34309854  1
  In  In32  1  0.14869275  0.65536314  0.50974876  1
  In  In33  1  0.68779061  0.19774655  0.48872984  1
  In  In34  1  0.33201590  0.83631769  0.15837397  1
  In  In35  1  0.85302501  0.32251869  0.82321498  1
  In  In36  1  0.01809354  0.32164088  0.00278586  1
  In  In37  1  0.66266625  -0.00021004  0.02150444  1
  In  In38  1  0.83638823  0.17931376  0.32481534  1
  In  In39  1  -0.01627768  0.83359949  0.48836675  1
  In  In40  1  0.49544142  0.64603417  0.49353225  1
  In  In41  1  0.53604234  0.48773398  0.63929200  1
  In  In42  1  0.30654544  0.01513082  0.33424054  1
  In  In43  1  -0.00847884  0.02628868  0.66900570  1
  In  In44  1  0.70499168  -0.02202820  0.30360332  1
  In  In45  1  0.01334577  0.33063790  0.33559963  1
  In  In46  1  0.00202522  0.50758334  0.84207073  1
  In  In47  1  0.64672905  0.67874976  -0.02142609  1
  In  In48  1  0.01710020  0.66430553  0.00550562  1
  In  In49  1  -0.01802562  -0.00277560  0.00382383  1
  In  In50  1  0.16037159  0.82908530  0.01733039  1
  In  In51  1  0.84204537  0.18876239  0.00414832  1
  In  In52  1  0.00035997  0.00415237  0.33092390  1
  In  In53  1  0.83334705  0.84415472  0.02437654  1
  In  In54  1  0.67253782  0.66352355  0.66222910  1
  In  In55  1  0.67195229  0.81782106  0.50071875  1
  In  In56  1  0.17638963  0.50736487  0.66614905  1
  In  In57  1  0.01376207  0.83580405  0.82470693  1
  In  In58  1  0.64407398  0.15608157  0.82725527  1
  In  In59  1  0.65870338  0.34583549  0.01257210  1
  In  In60  1  0.15308486  0.32385228  0.17772724  1
  In  In61  1  0.48830796  0.85319543  -0.01012910  1
  In  In62  1  0.00623415  0.49124025  0.17547674  1
  In  In63  1  0.50993657  0.82336663  0.33208531  1
  In  In64  1  0.48339806  0.85008858  0.68813117  1
  In  In65  1  0.31021484  0.19737730  0.47158767  1
  In  In66  1  0.51135612  0.65605826  0.19503635  1
  In  In67  1  0.82256471  0.67207364  0.83285864  1
  In  In68  1  0.15507695  0.01077982  0.17671941  1
  In  In69  1  0.32478218  0.66293648  0.00377351  1
  In  In70  1  0.18151110  0.33054057  0.83027440  1
  In  In71  1  0.16330709  0.00511260  0.49848542  1
  Te  Te72  1  0.07688883  0.09149865  0.07415047  1
  Te  Te73  1  0.10513587  0.10107456  0.39857972  1
  Te  Te74  1  0.09943857  0.06322233  0.75910696  1
  Te  Te75  1  0.09810238  0.42775436  0.07465415  1
  Te  Te76  1  0.12435023  0.40933817  0.39459361  1
  Te  Te77  1  0.07823273  0.40976650  0.74723006  1
  Te  Te78  1  0.06170776  0.76292502  0.11094736  1
  Te  Te79  1  0.08400466  0.75210433  0.41077607  1
  Te  Te80  1  0.07970051  0.73210911  0.74797429  1
  Te  Te81  1  0.38607639  0.11344177  0.12068564  1
  Te  Te82  1  0.41264260  0.07868350  0.43199176  1
  Te  Te83  1  0.43690654  0.06809179  0.74928825  1
  Te  Te84  1  0.39090260  0.38094909  0.07893346  1
  Te  Te85  1  0.43544396  0.39738261  0.41642720  1
  Te  Te86  1  0.43207801  0.41060702  0.73718500  1
  Te  Te87  1  0.43409181  0.74350025  0.09516743  1
  Te  Te88  1  0.41449128  0.75685403  0.42923499  1
  Te  Te89  1  0.40308174  0.76504664  0.77739473  1
  Te  Te90  1  0.77022444  0.08308334  0.08809480  1
  Te  Te91  1  0.74773183  0.08183344  0.40208563  1
  Te  Te92  1  0.74814606  0.09910030  0.73146635  1
  Te  Te93  1  0.77346742  0.40160497  0.08252980  1
  Te  Te94  1  0.73696430  0.40083968  0.44835669  1
  Te  Te95  1  0.74691896  0.40626697  0.74966156  1
  Te  Te96  1  0.74341423  0.73730452  0.08206655  1
  Te  Te97  1  0.76947111  0.76051905  0.40822581  1
  Te  Te98  1  0.72867728  0.76623265  0.75803733  1
  Te  Te99  1  0.04992717  0.22986494  0.23165637  1
  Te  Te100  1  0.09096804  0.25101620  0.56829800  1
  Te  Te101  1  0.08422577  0.23666363  0.89814423  1
  Te  Te102  1  0.09627499  0.58094521  0.25635457  1
  Te  Te103  1  0.06621930  0.55740720  0.58202529  1
  Te  Te104  1  0.10089209  0.58776325  0.91489011  1
  Te  Te105  1  0.10078108  0.91325386  0.27187843  1
  Te  Te106  1  0.07373087  0.91869311  0.58761317  1
  Te  Te107  1  0.08643508  0.92435035  0.92237838  1
  Te  Te108  1  0.40572085  0.24395371  0.26213390  1
  Te  Te109  1  0.42287608  0.26538218  0.55220202  1
  Te  Te110  1  0.39656890  0.25827863  0.93142037  1
  Te  Te111  1  0.41199298  0.55215717  0.24249808  1
  Te  Te112  1  0.40631503  0.55993479  0.58089497  1
  Te  Te113  1  0.42653776  0.58550703  0.92043913  1
  Te  Te114  1  0.41563085  0.92093695  0.25910733  1
  Te  Te115  1  0.38445148  0.90959153  0.58874056  1
  Te  Te116  1  0.39818273  0.95900890  0.94128686  1
  Te  Te117  1  0.73872559  0.27228935  0.26303733  1
  Te  Te118  1  0.75859891  0.30199772  0.56786612  1
  Te  Te119  1  0.73609211  0.25013978  0.90956059  1
  Te  Te120  1  0.76638440  0.58777942  0.26066316  1
  Te  Te121  1  0.75093482  0.57891555  0.56866049  1
  Te  Te122  1  0.75005567  0.57711810  0.92612919  1
  Te  Te123  1  0.79277345  0.90360157  0.21509764  1
  Te  Te124  1  0.75970236  0.91807272  0.57454596  1
  Te  Te125  1  0.73520100  0.90684273  0.92520962  1
  Te  Te126  1  0.25020894  0.27193220  0.07793599  1
  Te  Te127  1  0.22650356  0.28573153  0.38546698  1
  Te  Te128  1  0.27045393  0.22867998  0.75959968  1
  Te  Te129  1  0.26234510  0.57025723  0.09703803  1
  Te  Te130  1  0.24873495  0.58736982  0.41353147  1
  Te  Te131  1  0.25489992  0.59601098  0.75844972  1
  Te  Te132  1  0.24954843  0.93415232  0.08164075  1
  Te  Te133  1  0.23790115  0.91256212  0.41207296  1
  Te  Te134  1  0.25584737  0.89644677  0.77809329  1
  Te  Te135  1  0.57695443  0.23991180  0.08105938  1
  Te  Te136  1  0.59637814  0.25847145  0.39084988  1
  Te  Te137  1  0.58480390  0.25383532  0.72461690  1
  Te  Te138  1  0.58506706  0.57317692  0.08135271  1
  Te  Te139  1  0.60340354  0.59133904  0.41399294  1
  Te  Te140  1  0.56328499  0.59682678  0.74305435  1
  Te  Te141  1  0.58290808  0.89828811  0.10152403  1
  Te  Te142  1  0.58931724  0.92456261  0.41771083  1
  Te  Te143  1  0.56017768  0.95173265  0.76576267  1
  Te  Te144  1  0.92687447  0.25914496  0.10121822  1
  Te  Te145  1  0.91328906  0.26260910  0.42568144  1
  Te  Te146  1  0.92007620  0.22595382  0.73734018  1
  Te  Te147  1  0.92063672  0.57515878  0.08030139  1
  Te  Te148  1  0.93721884  0.57057656  0.41088767  1
  Te  Te149  1  0.90264892  0.57628156  0.74923910  1
  Te  Te150  1  0.91898811  0.92304909  0.11744891  1
  Te  Te151  1  0.90874377  0.94286299  0.42812415  1
  Te  Te152  1  0.89985211  0.92357498  0.76121549  1
  Te  Te153  1  0.25825544  0.10667703  0.22915736  1
  Te  Te154  1  0.25967743  0.09924870  0.57982473  1
  Te  Te155  1  0.27482484  0.07383901  0.91985512  1
  Te  Te156  1  0.23113349  0.40161413  0.28021644  1
  Te  Te157  1  0.23592163  0.40011236  0.57730512  1
  Te  Te158  1  0.24365407  0.43027849  0.91599034  1
  Te  Te159  1  0.25523065  0.75109703  0.25564609  1
  Te  Te160  1  0.24806954  0.74501176  0.58199133  1
  Te  Te161  1  0.25110411  0.76140540  0.92476768  1
  Te  Te162  1  0.59178730  0.06496509  0.23858385  1
  Te  Te163  1  0.59589098  0.09168079  0.56776004  1
  Te  Te164  1  0.57403170  0.08976960  0.94062460  1
  Te  Te165  1  0.59679371  0.41570184  0.24271235  1
  Te  Te166  1  0.62602944  0.40450563  0.55977242  1
  Te  Te167  1  0.57728309  0.42160595  0.90561121  1
  Te  Te168  1  0.60851625  0.73889372  0.26565607  1
  Te  Te169  1  0.56700913  0.75689452  0.59225590  1
  Te  Te170  1  0.56329309  0.76618971  0.89701166  1
  Te  Te171  1  0.93369534  0.10378741  0.24195622  1
  Te  Te172  1  0.89999268  0.09532509  0.57959491  1
  Te  Te173  1  0.91415830  0.09470885  0.90879604  1
  Te  Te174  1  0.90850222  0.41205999  0.25892887  1
  Te  Te175  1  0.93869363  0.42838091  0.55552796  1
  Te  Te176  1  0.91866440  0.41175666  0.92464085  1
  Te  Te177  1  0.89547243  0.77952119  0.27111948  1
  Te  Te178  1  0.93289508  0.73485207  0.59419419  1
  Te  Te179  1  0.91449185  0.75607478  0.92212727  1
