# generated using pymatgen
data_In2Te3
_symmetry_space_group_name_H-M   'P 1'
_cell_length_a   19.01622295
_cell_length_b   19.01335910
_cell_length_c   19.01490853
_cell_angle_alpha   89.64609554
_cell_angle_beta   89.95861650
_cell_angle_gamma   90.11888839
_symmetry_Int_Tables_number   1
_chemical_formula_structural   In2Te3
_chemical_formula_sum   'In72 Te108'
_cell_volume   6874.92579110
_cell_formula_units_Z   36
loop_
 _symmetry_equiv_pos_site_id
 _symmetry_equiv_pos_as_xyz
  1  'x, y, z'
loop_
 _atom_site_type_symbol
 _atom_site_label
 _atom_site_symmetry_multiplicity
 _atom_site_fract_x
 _atom_site_fract_y
 _atom_site_fract_z
 _atom_site_occupancy
  In  In0  1  0.80899151  0.00215028  0.48273147  1
  In  In1  1  0.83311037  0.18456196  0.66215938  1
  In  In2  1  0.66057264  0.86156768  0.51518592  1
  In  In3  1  0.49497294  0.84952373  0.30331377  1
  In  In4  1  0.61351407  0.08501226  0.43497484  1
  In  In5  1  0.80578606  0.00612996  0.14545454  1
  In  In6  1  0.34576309  0.34367797  0.67698880  1
  In  In7  1  0.16917917  0.68095445  0.14056873  1
  In  In8  1  0.19186180  0.70647721  0.49099690  1
  In  In9  1  0.31792590  0.27613510  0.28946949  1
  In  In10  1  0.63320305  0.68097317  0.33612357  1
  In  In11  1  0.18371194  0.31343916  0.52794382  1
  In  In12  1  0.47992310  0.47332928  0.31641161  1
  In  In13  1  0.83277052  0.66594917  0.17579992  1
  In  In14  1  0.35274481  0.58299786  0.83037862  1
  In  In15  1  0.02402103  0.49627656  0.84732401  1
  In  In16  1  0.01236613  0.17183516  0.47630020  1
  In  In17  1  0.64798878  -0.00578853  0.68177343  1
  In  In18  1  0.02676870  0.66627889  0.67191111  1
  In  In19  1  0.32057004  0.85067581  0.13098996  1
  In  In20  1  0.45934048  0.82043990  0.68912970  1
  In  In21  1  -0.02582507  0.01501217  0.30877177  1
  In  In22  1  0.82636876  0.33536126  0.17002716  1
  In  In23  1  0.63570091  0.67148299  0.00902887  1
  In  In24  1  -0.00476974  0.70165484  0.01516411  1
  In  In25  1  0.83790102  0.52221232  0.65220186  1
  In  In26  1  0.51621481  0.32356554  0.83407889  1
  In  In27  1  0.64897374  0.15649442  0.85843912  1
  In  In28  1  0.24261877  0.08899741  -0.00510984  1
  In  In29  1  0.67424538  0.65500521  0.69700366  1
  In  In30  1  0.68272294  0.50273764  0.16364497  1
  In  In31  1  0.18183113  0.13641399  0.68244205  1
  In  In32  1  0.00282364  0.02485524  0.67644403  1
  In  In33  1  0.33240791  0.33870197  0.00573146  1
  In  In34  1  0.18903601  0.69838706  0.82540167  1
  In  In35  1  0.68139863  0.29490642  0.33010760  1
  In  In36  1  0.01776526  -0.01835725  -0.01999424  1
  In  In37  1  0.01232590  0.82751352  0.53236268  1
  In  In38  1  0.17051892  0.50575951  -0.00173509  1
  In  In39  1  0.50573875  0.33245642  0.50174548  1
  In  In40  1  0.52169391  0.53568375  0.68776164  1
  In  In41  1  0.82456081  0.67035916  0.85456095  1
  In  In42  1  0.35781440  0.00861568  0.66531704  1
  In  In43  1  0.28781803  0.01440670  0.33270688  1
  In  In44  1  0.84729873  -0.00037916  0.83623645  1
  In  In45  1  0.64467183  0.83005972  0.86531229  1
  In  In46  1  0.16587285  0.31373953  0.15100855  1
  In  In47  1  0.36453731  0.67639305  0.32481949  1
  In  In48  1  0.85286331  0.31770313  0.49013870  1
  In  In49  1  0.50760183  0.68471681  0.50474893  1
  In  In50  1  -0.00073983  0.32346656  0.29855235  1
  In  In51  1  0.84791492  0.67455672  0.48113291  1
  In  In52  1  0.00162837  0.65768836  0.30769011  1
  In  In53  1  0.19957370  0.86346669  0.66210758  1
  In  In54  1  0.46315212  0.15018611  0.00735987  1
  In  In55  1  0.34456381  0.68444644  -0.01582877  1
  In  In56  1  -0.01793580  0.32434958  0.01021060  1
  In  In57  1  0.15442428  0.34664235  0.81982017  1
  In  In58  1  0.49708090  0.29459489  0.17130641  1
  In  In59  1  0.64065330  0.50775486  0.85323441  1
  In  In60  1  0.00448836  0.15923989  0.84105145  1
  In  In61  1  0.15258076  0.85445932  0.30628630  1
  In  In62  1  0.61319627  -0.00994751  0.03489989  1
  In  In63  1  0.66744067  0.47230883  0.48163869  1
  In  In64  1  0.68739668  0.32628101  0.68904770  1
  In  In65  1  0.82373978  0.83836663  -0.00885682  1
  In  In66  1  0.00554987  0.50182422  0.50257525  1
  In  In67  1  0.34935956  0.50736933  0.49668327  1
  In  In68  1  0.83035788  0.32739770  0.84217024  1
  In  In69  1  0.34691699  0.16260035  0.47732693  1
  In  In70  1  0.16406848  0.48124060  0.33049573  1
  In  In71  1  0.83083176  0.85317217  0.32191394  1
  Te  Te72  1  0.10175904  0.08461662  0.04485766  1
  Te  Te73  1  0.07545077  0.06400321  0.40328080  1
  Te  Te74  1  0.10347037  0.05878378  0.78733925  1
  Te  Te75  1  0.08047470  0.41731376  0.08125069  1
  Te  Te76  1  0.08680514  0.39628271  0.43083470  1
  Te  Te77  1  0.07733020  0.43203603  0.72921155  1
  Te  Te78  1  0.09187650  0.79376318  0.08190697  1
  Te  Te79  1  0.06715580  0.74732527  0.41160515  1
  Te  Te80  1  0.09416784  0.78027451  0.74108952  1
  Te  Te81  1  0.42780746  0.04924766  0.11452969  1
  Te  Te82  1  0.41096056  0.05627745  0.40300419  1
  Te  Te83  1  0.40942740  0.10512267  0.76267624  1
  Te  Te84  1  0.42312825  0.39927296  0.10113156  1
  Te  Te85  1  0.39543724  0.38997990  0.41307736  1
  Te  Te86  1  0.43317170  0.43381036  0.76125385  1
  Te  Te87  1  0.42495252  0.75471179  0.08752780  1
  Te  Te88  1  0.42202061  0.77562430  0.42148596  1
  Te  Te89  1  0.41398699  0.71739323  0.78148472  1
  Te  Te90  1  0.70608419  0.09651640  0.08044478  1
  Te  Te91  1  0.75192411  0.07587414  0.36644511  1
  Te  Te92  1  0.75340296  0.09404446  0.75355220  1
  Te  Te93  1  0.75138207  0.41525577  0.07092190  1
  Te  Te94  1  0.76909102  0.40387773  0.39718979  1
  Te  Te95  1  0.74942721  0.44804651  0.75357098  1
  Te  Te96  1  0.74540988  0.74808203  0.08252602  1
  Te  Te97  1  0.74126165  0.76202681  0.41744364  1
  Te  Te98  1  0.74612927  0.76673050  0.76829121  1
  Te  Te99  1  0.09136540  0.22692844  0.24282405  1
  Te  Te100  1  0.08381921  0.22538338  0.59900543  1
  Te  Te101  1  0.08560985  0.25795366  0.92125187  1
  Te  Te102  1  0.09840340  0.57451301  0.22984433  1
  Te  Te103  1  0.10389251  0.59840886  0.56275574  1
  Te  Te104  1  0.09090591  0.61140599  0.92054976  1
  Te  Te105  1  0.08160620  0.95515774  0.22823654  1
  Te  Te106  1  0.09249041  0.94189032  0.58556643  1
  Te  Te107  1  0.11557206  0.87489509  0.94455120  1
  Te  Te108  1  0.42282221  0.18200420  0.23848605  1
  Te  Te109  1  0.41655694  0.24513779  0.58791681  1
  Te  Te110  1  0.40591855  0.25036248  0.90673050  1
  Te  Te111  1  0.42428681  0.58024612  0.23441031  1
  Te  Te112  1  0.41899998  0.59913708  0.59392428  1
  Te  Te113  1  0.42977215  0.56812211  0.95272312  1
  Te  Te114  1  0.38678737  0.93385594  0.24253677  1
  Te  Te115  1  0.44633292  0.92240686  0.58493412  1
  Te  Te116  1  0.37507897  0.94680249  1.02034668  1
  Te  Te117  1  0.72970488  0.22869204  0.21057308  1
  Te  Te118  1  0.73706858  0.25188749  0.56606541  1
  Te  Te119  1  0.74636520  0.24252979  0.92492225  1
  Te  Te120  1  0.73998495  0.59414790  0.27339921  1
  Te  Te121  1  0.73629086  0.58615261  0.55926790  1
  Te  Te122  1  0.74135170  0.58127644  0.93964562  1
  Te  Te123  1  0.73272896  0.89353031  0.21686178  1
  Te  Te124  1  0.76234223  0.92547028  0.60632513  1
  Te  Te125  1  0.73182736  0.94076180  0.92476205  1
  Te  Te126  1  0.25770319  0.22490140  0.06967175  1
  Te  Te127  1  0.23037961  0.23471732  0.41160288  1
  Te  Te128  1  0.25099059  0.25161392  0.75250197  1
  Te  Te129  1  0.26729379  0.58591682  0.07893102  1
  Te  Te130  1  0.25499976  0.58441258  0.40490654  1
  Te  Te131  1  0.23490116  0.58491819  0.74689074  1
  Te  Te132  1  0.23040062  0.96548584  0.08582770  1
  Te  Te133  1  0.23225288  0.90533518  0.41615668  1
  Te  Te134  1  0.28128378  0.92709442  0.76871741  1
  Te  Te135  1  0.57685177  0.22006007  0.07275336  1
  Te  Te136  1  0.56762221  0.23379203  0.40884785  1
  Te  Te137  1  0.58397001  0.22909978  0.73748554  1
  Te  Te138  1  0.57259142  0.56812258  0.09211360  1
  Te  Te139  1  0.55907486  0.56523711  0.41914846  1
  Te  Te140  1  0.56517763  0.63090438  0.79930161  1
  Te  Te141  1  0.59013597  0.90321868  0.15406097  1
  Te  Te142  1  0.59664504  0.92016435  0.39415612  1
  Te  Te143  1  0.55803108  0.90821195  0.76827368  1
  Te  Te144  1  0.91539389  0.23244267  0.10414955  1
  Te  Te145  1  0.90914771  0.23046845  0.38222183  1
  Te  Te146  1  0.92901829  0.25797379  0.75216844  1
  Te  Te147  1  0.91924105  0.59679803  0.08123345  1
  Te  Te148  1  0.91707710  0.56887194  0.39988770  1
  Te  Te149  1  0.91885204  0.59255298  0.76036981  1
  Te  Te150  1  0.91492961  0.92170814  0.07538012  1
  Te  Te151  1  0.91706604  0.90444324  0.43660630  1
  Te  Te152  1  0.92913366  0.92035728  0.74697500  1
  Te  Te153  1  0.26763118  0.13759243  0.24733723  1
  Te  Te154  1  0.25788653  0.07651812  0.57021427  1
  Te  Te155  1  0.31801832  0.05286837  0.86516310  1
  Te  Te156  1  0.25390450  0.40598753  0.23637769  1
  Te  Te157  1  0.25621495  0.43014079  0.58986605  1
  Te  Te158  1  0.25403665  0.42367234  0.90475291  1
  Te  Te159  1  0.24970466  0.74810232  0.25225047  1
  Te  Te160  1  0.27598586  0.75692277  0.59679293  1
  Te  Te161  1  0.24369431  0.78546338  0.93320731  1
  Te  Te162  1  0.62002323  0.04846002  0.29117809  1
  Te  Te163  1  0.57325513  0.06356882  0.57729331  1
  Te  Te164  1  0.54812046  0.05968691  0.91582122  1
  Te  Te165  1  0.59359046  0.39890951  0.25387549  1
  Te  Te166  1  0.58245139  0.42101031  0.60084732  1
  Te  Te167  1  0.60142123  0.39098260  0.93136951  1
  Te  Te168  1  0.56855677  0.74890037  0.22234600  1
  Te  Te169  1  0.59770376  0.75445701  0.60410387  1
  Te  Te170  1  0.54913791  0.78628355  0.96960773  1
  Te  Te171  1  0.91112585  0.09632375  0.20193531  1
  Te  Te172  1  0.90573977  0.09111936  0.56833400  1
  Te  Te173  1  0.91064607  0.09041477  0.93630157  1
  Te  Te174  1  0.91797272  0.42722187  0.24069760  1
  Te  Te175  1  0.91870254  0.41132397  0.58995266  1
  Te  Te176  1  0.91195912  0.42700086  0.92180626  1
  Te  Te177  1  0.92627571  0.76878185  0.23831442  1
  Te  Te178  1  0.90808739  0.73959255  0.60130342  1
  Te  Te179  1  0.92588139  0.77266224  0.90047860  1
