# generated using pymatgen
data_In2Te3
_symmetry_space_group_name_H-M   'P 1'
_cell_length_a   18.98861991
_cell_length_b   18.98529996
_cell_length_c   19.00823558
_cell_angle_alpha   90.11412700
_cell_angle_beta   90.35409329
_cell_angle_gamma   89.87918008
_symmetry_Int_Tables_number   1
_chemical_formula_structural   In2Te3
_chemical_formula_sum   'In72 Te108'
_cell_volume   6852.39770069
_cell_formula_units_Z   36
loop_
 _symmetry_equiv_pos_site_id
 _symmetry_equiv_pos_as_xyz
  1  'x, y, z'
loop_
 _atom_site_type_symbol
 _atom_site_label
 _atom_site_symmetry_multiplicity
 _atom_site_fract_x
 _atom_site_fract_y
 _atom_site_fract_z
 _atom_site_occupancy
  In  In0  1  -0.00860331  0.50121304  0.15198055  1
  In  In1  1  0.11689802  0.35990725  0.19000921  1
  In  In2  1  0.17549054  0.50069773  0.66075057  1
  In  In3  1  -0.01325259  0.48363165  0.47991338  1
  In  In4  1  0.68305332  0.47730436  0.13771129  1
  In  In5  1  0.54356414  0.18426853  0.35386131  1
  In  In6  1  0.54735705  0.66660188  0.83266594  1
  In  In7  1  0.30219005  0.00807317  0.69120874  1
  In  In8  1  0.16850732  0.67502923  0.52207865  1
  In  In9  1  0.83360375  0.66871671  0.85037016  1
  In  In10  1  0.14128134  0.13322928  0.34953439  1
  In  In11  1  0.32348816  0.82754551  0.81682982  1
  In  In12  1  0.33362028  0.32971039  0.34816460  1
  In  In13  1  0.69657050  0.17771365  0.16897142  1
  In  In14  1  0.70868624  0.03439915  0.65600784  1
  In  In15  1  0.33333984  0.63733873  0.01226650  1
  In  In16  1  0.49383813  0.81766776  -0.00815970  1
  In  In17  1  0.18302385  0.33154000  0.83434870  1
  In  In18  1  0.69171035  0.35266186  0.33043505  1
  In  In19  1  0.81953394  0.83282366  0.03494795  1
  In  In20  1  0.49857776  -0.00763082  0.16673260  1
  In  In21  1  0.69691609  0.50025121  0.85972352  1
  In  In22  1  0.34232066  0.15650233  0.51872244  1
  In  In23  1  0.51178818  0.85308072  0.65585029  1
  In  In24  1  0.19042273  0.82594789  0.33359436  1
  In  In25  1  0.52595010  -0.00240949  0.50458683  1
  In  In26  1  -0.02501668  0.32789051  0.69950323  1
  In  In27  1  -0.02918064  0.35571250  0.33747538  1
  In  In28  1  0.64748382  0.80915883  0.17914676  1
  In  In29  1  -0.01752244  0.65800195  0.32496884  1
  In  In30  1  0.13696225  0.69265033  0.83774467  1
  In  In31  1  0.51344394  0.65243780  0.49504828  1
  In  In32  1  0.54043997  0.37757380  0.50192460  1
  In  In33  1  0.66224154  0.19564875  0.85183534  1
  In  In34  1  0.34629157  0.18038482  0.14743522  1
  In  In35  1  0.32524359  0.18195418  0.83199315  1
  In  In36  1  -0.03481344  0.01138762  0.32923142  1
  In  In37  1  0.34660243  0.00835391  0.30425544  1
  In  In38  1  -0.01992076  0.85308025  0.81754643  1
  In  In39  1  0.50582517  0.20500111  0.66310758  1
  In  In40  1  0.83322701  0.84989529  0.67960709  1
  In  In41  1  0.84144195  -0.00606283  0.86885019  1
  In  In42  1  0.74487701  0.59116289  0.68461822  1
  In  In43  1  0.36634745  0.34353430  -0.01237685  1
  In  In44  1  0.83336459  0.33024536  0.52072408  1
  In  In45  1  0.82585237  0.81705002  0.30414819  1
  In  In46  1  0.15567850  0.15540757  -0.03112018  1
  In  In47  1  0.51225552  0.15969088  0.02880795  1
  In  In48  1  0.82465234  0.18583713  -0.00255849  1
  In  In49  1  0.00705524  0.65513384  0.00789352  1
  In  In50  1  -0.03330459  0.33937601  -0.02386154  1
  In  In51  1  0.34459760  0.66937753  0.63811649  1
  In  In52  1  0.51432921  0.00987232  0.82876613  1
  In  In53  1  -0.03785235  0.65917655  0.67530508  1
  In  In54  1  0.51224040  0.36686577  0.82987138  1
  In  In55  1  0.22906681  0.52599202  0.27451184  1
  In  In56  1  0.37082580  0.81086788  0.50024043  1
  In  In57  1  0.15970778  -0.03044091  0.17570399  1
  In  In58  1  0.34270894  0.50806725  0.81760830  1
  In  In59  1  0.33622633  0.81017170  0.14356146  1
  In  In60  1  -0.01809216  0.16560538  0.14729087  1
  In  In61  1  0.14224150  -0.01139531  0.48553891  1
  In  In62  1  0.48770895  0.36022706  0.16918752  1
  In  In63  1  0.13404124  0.16275273  0.70207279  1
  In  In64  1  0.13821117  0.32300070  0.51427654  1
  In  In65  1  0.66130472  0.81450256  0.47888883  1
  In  In66  1  0.67402988  0.63200305  0.30963794  1
  In  In67  1  -0.01842124  0.83518098  0.50080432  1
  In  In68  1  0.14383493  0.81581190  0.01417632  1
  In  In69  1  0.68013470  0.00272806  0.36340034  1
  In  In70  1  0.34189089  0.50844451  0.49115803  1
  In  In71  1  -0.01871937  -0.01932042  0.00411937  1
  Te  Te72  1  0.09197067  0.07712860  0.08981771  1
  Te  Te73  1  0.03342084  0.08754133  0.44324404  1
  Te  Te74  1  0.03478023  0.07588214  0.75815478  1
  Te  Te75  1  0.07988272  0.41066086  0.05675818  1
  Te  Te76  1  0.09779640  0.41613407  0.40269688  1
  Te  Te77  1  0.09058630  0.41882083  0.75194175  1
  Te  Te78  1  0.06616543  0.74244120  0.11208688  1
  Te  Te79  1  0.08640297  0.75163290  0.42011192  1
  Te  Te80  1  0.06272274  0.76045030  0.72585962  1
  Te  Te81  1  0.40324898  0.06286101  0.07067322  1
  Te  Te82  1  0.42870150  0.08731185  0.41276675  1
  Te  Te83  1  0.42652166  0.09473284  0.73520250  1
  Te  Te84  1  0.42987050  0.45255111  0.06804436  1
  Te  Te85  1  0.43202921  0.43175554  0.39783815  1
  Te  Te86  1  0.40963564  0.40886723  0.73467037  1
  Te  Te87  1  0.44007245  0.71386823  0.08801215  1
  Te  Te88  1  0.41250863  0.71173599  0.40385000  1
  Te  Te89  1  0.43229249  0.75203377  0.73900368  1
  Te  Te90  1  0.75359264  0.08356607  0.07295823  1
  Te  Te91  1  0.76104208  0.10108867  0.43096288  1
  Te  Te92  1  0.75321004  0.09230598  0.79167247  1
  Te  Te93  1  0.77351079  0.38236213  0.06820981  1
  Te  Te94  1  0.76632295  0.43321328  0.43299884  1
  Te  Te95  1  0.78587935  0.40506653  0.78489348  1
  Te  Te96  1  0.73740898  0.72836014  0.09527538  1
  Te  Te97  1  0.75358408  0.72665530  0.40097177  1
  Te  Te98  1  0.75237718  0.73273198  0.73822072  1
  Te  Te99  1  0.06773543  0.23567026  0.26022552  1
  Te  Te100  1  0.04808362  0.24042692  0.59883612  1
  Te  Te101  1  0.06868741  0.25426375  0.89639477  1
  Te  Te102  1  0.08134551  0.56875021  0.25439797  1
  Te  Te103  1  0.06800803  0.58110089  0.58514860  1
  Te  Te104  1  0.09983313  0.58125573  0.92092659  1
  Te  Te105  1  0.07398417  0.91139767  0.28139437  1
  Te  Te106  1  0.06446929  0.92012106  0.58683285  1
  Te  Te107  1  0.08301934  0.91428119  0.91613246  1
  Te  Te108  1  0.43152579  0.24029767  0.26082063  1
  Te  Te109  1  0.43108639  0.27410953  0.55215111  1
  Te  Te110  1  0.44563704  0.23830486  0.90663530  1
  Te  Te111  1  0.35424299  0.58352587  0.22353369  1
  Te  Te112  1  0.43842525  0.56175395  0.59571543  1
  Te  Te113  1  0.43070185  0.59953012  0.89996938  1
  Te  Te114  1  0.41909018  0.89034911  0.24492281  1
  Te  Te115  1  0.40519996  0.93829134  0.58898263  1
  Te  Te116  1  0.41975447  0.91467605  0.89774137  1
  Te  Te117  1  0.77388658  0.24329403  0.27514495  1
  Te  Te118  1  0.78470360  0.24605232  0.63514363  1
  Te  Te119  1  0.72600864  0.29031523  0.95161245  1
  Te  Te120  1  0.77317951  0.55585086  0.22856331  1
  Te  Te121  1  0.72166139  0.54790876  0.54296622  1
  Te  Te122  1  0.76183120  0.59351298  0.95620420  1
  Te  Te123  1  0.73165972  0.92051652  0.24731012  1
  Te  Te124  1  0.73656998  0.90688045  0.57641382  1
  Te  Te125  1  0.75256378  0.88819004  0.91461952  1
  Te  Te126  1  0.26164371  0.24401509  0.04035001  1
  Te  Te127  1  0.24011814  0.23151651  0.42207466  1
  Te  Te128  1  0.25358236  0.25643307  0.72268335  1
  Te  Te129  1  0.24452773  0.58472817  0.12224733  1
  Te  Te130  1  0.24031739  0.59166528  0.41910435  1
  Te  Te131  1  0.24544423  0.60929316  0.74235683  1
  Te  Te132  1  0.25114861  0.91371593  0.07208237  1
  Te  Te133  1  0.26590852  0.93395013  0.40948617  1
  Te  Te134  1  0.21786406  0.91221197  0.75955930  1
  Te  Te135  1  0.58636090  0.26513022  0.10457604  1
  Te  Te136  1  0.62783478  0.26624600  0.44483300  1
  Te  Te137  1  0.60593642  0.28552062  0.74137972  1
  Te  Te138  1  0.57672486  0.53870160  0.05538698  1
  Te  Te139  1  0.60624735  0.56130931  0.42384469  1
  Te  Te140  1  0.60865713  0.56147559  0.74481161  1
  Te  Te141  1  0.58212472  0.90950058  0.07645457  1
  Te  Te142  1  0.56620199  0.90017715  0.39823033  1
  Te  Te143  1  0.60699474  0.93643004  0.73604827  1
  Te  Te144  1  0.89939227  0.28607530  0.10358484  1
  Te  Te145  1  0.91478335  0.25416805  0.42393042  1
  Te  Te146  1  0.86154043  0.26604339  0.77234975  1
  Te  Te147  1  0.90079279  0.56089639  0.05055052  1
  Te  Te148  1  0.90551146  0.59386544  0.42926257  1
  Te  Te149  1  0.93040060  0.57116897  0.78980852  1
  Te  Te150  1  0.91823146  0.90985231  0.11287135  1
  Te  Te151  1  0.88675083  0.91109761  0.41070816  1
  Te  Te152  1  0.92310672  0.96882630  0.73232537  1
  Te  Te153  1  0.24670669  0.10161804  0.23685103  1
  Te  Te154  1  0.22453458  0.08556080  0.58460885  1
  Te  Te155  1  0.24628073  0.07369365  0.88861792  1
  Te  Te156  1  0.26171882  0.38265590  0.22157406  1
  Te  Te157  1  0.25162052  0.41155937  0.56644596  1
  Te  Te158  1  0.26117844  0.43121586  0.91851250  1
  Te  Te159  1  0.24093857  0.73495862  0.22864827  1
  Te  Te160  1  0.25299189  0.78234992  0.58823802  1
  Te  Te161  1  0.25789542  0.74495053  0.92892473  1
  Te  Te162  1  0.58983396  0.08183857  0.25211836  1
  Te  Te163  1  0.59071414  0.10617364  0.58314232  1
  Te  Te164  1  0.59847700  0.07911674  0.93409770  1
  Te  Te165  1  0.58752969  0.43351526  0.25297821  1
  Te  Te166  1  0.64117820  0.42964970  0.59667205  1
  Te  Te167  1  0.58546447  0.43496098  0.94092238  1
  Te  Te168  1  0.56581243  0.71218284  0.25083509  1
  Te  Te169  1  0.59153910  0.74224295  0.59193676  1
  Te  Te170  1  0.61113653  0.76105262  0.92214744  1
  Te  Te171  1  0.88855930  0.09346142  0.23414302  1
  Te  Te172  1  0.81707542  0.10680892  0.57461480  1
  Te  Te173  1  0.93218649  0.10197392  0.92936288  1
  Te  Te174  1  0.89390613  0.44818854  0.25235375  1
  Te  Te175  1  0.91742753  0.43043057  0.60277808  1
  Te  Te176  1  0.90486993  0.43410387  0.87883652  1
  Te  Te177  1  0.90963243  0.72943486  0.22031828  1
  Te  Te178  1  0.88604958  0.74600290  0.57758116  1
  Te  Te179  1  0.92540963  0.76475067  0.92624399  1
