# generated using pymatgen
data_In2Te3
_symmetry_space_group_name_H-M   'P 1'
_cell_length_a   18.84052664
_cell_length_b   18.84533556
_cell_length_c   18.83629986
_cell_angle_alpha   90.05294778
_cell_angle_beta   90.02704115
_cell_angle_gamma   90.20307945
_symmetry_Int_Tables_number   1
_chemical_formula_structural   In2Te3
_chemical_formula_sum   'In72 Te108'
_cell_volume   6687.89654085
_cell_formula_units_Z   36
loop_
 _symmetry_equiv_pos_site_id
 _symmetry_equiv_pos_as_xyz
  1  'x, y, z'
loop_
 _atom_site_type_symbol
 _atom_site_label
 _atom_site_symmetry_multiplicity
 _atom_site_fract_x
 _atom_site_fract_y
 _atom_site_fract_z
 _atom_site_occupancy
  In  In0  1  0.02902557  0.51962336  0.80793800  1
  In  In1  1  -0.01263716  0.68241517  0.68349852  1
  In  In2  1  0.50347998  0.16374936  -0.00240265  1
  In  In3  1  0.50581323  0.83774617  0.65857498  1
  In  In4  1  0.49189629  -0.00777565  0.51000616  1
  In  In5  1  0.83923945  -0.03026451  0.80013411  1
  In  In6  1  0.67715335  0.52282115  0.82135044  1
  In  In7  1  0.65346176  0.83321330  0.49811202  1
  In  In8  1  0.16806742  0.80774309  0.34197486  1
  In  In9  1  0.32595345  0.18115428  0.50022718  1
  In  In10  1  0.48899531  0.31927107  0.83828913  1
  In  In11  1  0.32365959  -0.00532601  0.33215623  1
  In  In12  1  0.19003923  0.65953289  0.17389410  1
  In  In13  1  0.34040443  0.65537949  0.65628445  1
  In  In14  1  0.80899404  -0.01249691  0.50441924  1
  In  In15  1  0.85255212  0.53690007  -0.01944160  1
  In  In16  1  0.78758408  -0.03104598  0.17992854  1
  In  In17  1  0.20480663  0.51415226  0.00957449  1
  In  In18  1  0.82236257  0.14799179  0.66114636  1
  In  In19  1  0.00173368  0.31527749  0.35591793  1
  In  In20  1  0.81837794  0.68366385  0.49755251  1
  In  In21  1  0.66051616  0.31899737  0.35248921  1
  In  In22  1  0.50315951  0.69716124  0.16784680  1
  In  In23  1  0.17605978  0.48900171  0.66355955  1
  In  In24  1  0.79488153  0.47870615  0.33420148  1
  In  In25  1  0.22165980  0.31302251  0.15032912  1
  In  In26  1  0.82681874  0.33167136  0.49210287  1
  In  In27  1  -0.01370922  0.17148048  0.83507897  1
  In  In28  1  0.16992680  0.67519104  0.82413735  1
  In  In29  1  0.16058153  0.16698812  0.66439237  1
  In  In30  1  0.00812704  0.49658495  0.16759445  1
  In  In31  1  0.65410901  0.14996735  0.48537454  1
  In  In32  1  0.20342459  0.29990699  0.49162413  1
  In  In33  1  0.80351810  0.52904986  0.64419614  1
  In  In34  1  -0.00069548  0.14906879  0.49540756  1
  In  In35  1  0.17093728  0.00501454  0.16162863  1
  In  In36  1  0.49588441  0.83823534  0.34266463  1
  In  In37  1  0.50621162  0.51542951  0.39392872  1
  In  In38  1  0.35942653  0.66537026  0.34080137  1
  In  In39  1  0.50121292  0.50840392  0.01112130  1
  In  In40  1  0.36070532  -0.00375603  0.02091187  1
  In  In41  1  0.18849218  0.47368601  0.31769349  1
  In  In42  1  0.01366439  0.31832095  -0.00463398  1
  In  In43  1  0.16691372  -0.00895558  0.82707887  1
  In  In44  1  -0.02626550  -0.00725335  0.33909332  1
  In  In45  1  -0.01226384  0.68766995  0.33446684  1
  In  In46  1  0.47741129  0.31185958  0.17750650  1
  In  In47  1  0.18884820  0.68571278  0.49248205  1
  In  In48  1  0.65107486  0.51655952  0.17698351  1
  In  In49  1  0.61618175  0.13988744  0.18977096  1
  In  In50  1  0.52308188  0.50702608  0.64202221  1
  In  In51  1  0.35898297  0.15299604  0.84227734  1
  In  In52  1  -0.00062040  0.51100350  0.50480649  1
  In  In53  1  0.64175119  -0.01675313  -0.00710103  1
  In  In54  1  0.80543910  0.33049175  0.17321541  1
  In  In55  1  0.35055011  0.33671184  0.66943351  1
  In  In56  1  0.49585506  0.15636449  0.66806624  1
  In  In57  1  0.31797728  0.83567181  0.83342202  1
  In  In58  1  0.52741724  0.69118311  0.86474567  1
  In  In59  1  0.82882697  0.15801073  0.00063932  1
  In  In60  1  -0.02591480  0.68431138  -0.01231841  1
  In  In61  1  0.50545468  -0.02062901  0.81657408  1
  In  In62  1  0.19822576  0.18481980  0.35682228  1
  In  In63  1  0.81172040  0.71660850  0.81228830  1
  In  In64  1  0.16829426  0.34719077  0.84980115  1
  In  In65  1  0.82635152  0.34998300  0.81287644  1
  In  In66  1  -0.00692854  0.84976368  0.15039852  1
  In  In67  1  0.16979644  0.83851576  -0.00706531  1
  In  In68  1  0.13851067  -0.03099751  0.52176367  1
  In  In69  1  0.02823460  0.13909507  0.19024388  1
  In  In70  1  0.69162622  0.34000087  -0.00941845  1
  In  In71  1  0.78440938  0.71043003  0.15403977  1
  Te  Te72  1  0.07919362  0.07405970  0.06999872  1
  Te  Te73  1  0.09580486  0.07626197  0.40279397  1
  Te  Te74  1  0.06877107  0.07912900  0.74563442  1
  Te  Te75  1  0.10035672  0.41183436  0.07986845  1
  Te  Te76  1  0.09234678  0.41598798  0.42865680  1
  Te  Te77  1  0.07860295  0.39519699  0.73572828  1
  Te  Te78  1  0.08597109  0.73918905  0.09243125  1
  Te  Te79  1  0.06293364  0.76061566  0.44482722  1
  Te  Te80  1  0.06947069  0.76961374  0.77271015  1
  Te  Te81  1  0.45823242  0.07212211  0.10535822  1
  Te  Te82  1  0.41226937  0.08545946  0.41801537  1
  Te  Te83  1  0.40080946  0.05562272  0.73391861  1
  Te  Te84  1  0.41511696  0.41852337  0.09335474  1
  Te  Te85  1  0.40968748  0.40961491  0.41523650  1
  Te  Te86  1  0.43401586  0.43100172  0.75249436  1
  Te  Te87  1  0.45237699  0.79521407  0.06919783  1
  Te  Te88  1  0.41494827  0.76148870  0.44119528  1
  Te  Te89  1  0.41893264  0.74609045  0.75710696  1
  Te  Te90  1  0.72324787  0.08637609  0.08570262  1
  Te  Te91  1  0.74938866  0.07342647  0.40226787  1
  Te  Te92  1  0.74037394  0.06777746  0.75254337  1
  Te  Te93  1  0.75917062  0.44512797  0.08113563  1
  Te  Te94  1  0.70761974  0.43024514  0.45671619  1
  Te  Te95  1  0.72579171  0.41834747  0.72029448  1
  Te  Te96  1  0.73100111  0.80289899  0.04833039  1
  Te  Te97  1  0.75910525  0.78280161  0.40196865  1
  Te  Te98  1  0.72128050  0.78114077  0.71271220  1
  Te  Te99  1  0.10045460  0.26105239  0.25079225  1
  Te  Te100  1  0.07751511  0.25479327  0.57156974  1
  Te  Te101  1  0.10501270  0.22662119  0.91762126  1
  Te  Te102  1  0.08850274  0.58994540  0.27488195  1
  Te  Te103  1  0.08708282  0.59532173  0.59655877  1
  Te  Te104  1  0.08073150  0.58266756  0.93565999  1
  Te  Te105  1  0.08956567  0.91126397  0.26031067  1
  Te  Te106  1  0.06394686  0.90063263  0.62893087  1
  Te  Te107  1  0.07365412  0.91421261  0.91366713  1
  Te  Te108  1  0.39539759  0.21741639  0.25486295  1
  Te  Te109  1  0.43734045  0.25892941  0.57199021  1
  Te  Te110  1  0.39216406  0.26151233  0.95234956  1
  Te  Te111  1  0.45390934  0.58279277  0.25772936  1
  Te  Te112  1  0.41796719  0.57338409  0.56045004  1
  Te  Te113  1  0.42720686  0.59875971  0.92112320  1
  Te  Te114  1  0.42986400  0.93163618  0.24469947  1
  Te  Te115  1  0.39837946  0.91175415  0.58990751  1
  Te  Te116  1  0.42715160  0.90042513  0.92091444  1
  Te  Te117  1  0.73166454  0.22686848  0.25239158  1
  Te  Te118  1  0.73673955  0.24358841  0.57684203  1
  Te  Te119  1  0.75415757  0.24093569  0.89558219  1
  Te  Te120  1  0.74322452  0.60216224  0.26131346  1
  Te  Te121  1  0.70406481  0.61192574  0.56668530  1
  Te  Te122  1  0.74506280  0.62004269  0.91800776  1
  Te  Te123  1  0.72044363  0.86187276  0.25764045  1
  Te  Te124  1  0.73535725  0.90260920  0.60507738  1
  Te  Te125  1  0.75211211  0.91672821  0.91549402  1
  Te  Te126  1  0.27485964  0.22393223  0.05065332  1
  Te  Te127  1  0.31521778  0.29318649  0.36560188  1
  Te  Te128  1  0.26204404  0.24233993  0.75347248  1
  Te  Te129  1  0.29441401  0.60291892  0.08749638  1
  Te  Te130  1  0.25552812  0.57722514  0.41255773  1
  Te  Te131  1  0.25929979  0.57087179  0.76079089  1
  Te  Te132  1  0.26211652  0.90294161  0.09571458  1
  Te  Te133  1  0.24545330  0.90573287  0.43031196  1
  Te  Te134  1  0.24202296  0.90801567  0.72947405  1
  Te  Te135  1  0.59363561  0.26463932  0.07874615  1
  Te  Te136  1  0.55779247  0.22826463  0.40496814  1
  Te  Te137  1  0.58006720  0.24250234  0.75445726  1
  Te  Te138  1  0.59530445  0.61132638  0.07410374  1
  Te  Te139  1  0.61262390  0.60406337  0.43881090  1
  Te  Te140  1  0.58357808  0.61221913  0.74514029  1
  Te  Te141  1  0.58425304  0.87245515  0.08180087  1
  Te  Te142  1  0.59533954  0.94550295  0.40621191  1
  Te  Te143  1  0.60787463  0.88053809  0.76104548  1
  Te  Te144  1  0.91054382  0.25323922  0.08938745  1
  Te  Te145  1  0.89524238  0.22201590  0.40841233  1
  Te  Te146  1  0.91154714  0.25325393  0.73114353  1
  Te  Te147  1  0.91041000  0.60159603  0.10707781  1
  Te  Te148  1  0.90135230  0.57831871  0.40975024  1
  Te  Te149  1  0.89750093  0.57937362  0.76288157  1
  Te  Te150  1  0.89803104  0.94075056  0.08605871  1
  Te  Te151  1  0.90738749  0.90129443  0.43063410  1
  Te  Te152  1  0.93111945  0.89094651  0.71009988  1
  Te  Te153  1  0.26210593  0.10046955  0.23881203  1
  Te  Te154  1  0.24018789  0.07700888  0.57244558  1
  Te  Te155  1  0.26547584  0.06438315  0.92267331  1
  Te  Te156  1  0.28249863  0.43454138  0.21068631  1
  Te  Te157  1  0.26945760  0.41786321  0.56899778  1
  Te  Te158  1  0.27282063  0.42954687  0.90999836  1
  Te  Te159  1  0.27872765  0.75860016  0.24951468  1
  Te  Te160  1  0.24141043  0.75586778  0.61005162  1
  Te  Te161  1  0.26021582  0.73285196  0.93233916  1
  Te  Te162  1  0.56762401  0.02122639  0.26173362  1
  Te  Te163  1  0.59392071  0.06365222  0.59882826  1
  Te  Te164  1  0.58361996  0.08619582  0.89505963  1
  Te  Te165  1  0.58278941  0.40370623  0.24952014  1
  Te  Te166  1  0.60407695  0.40752256  0.57152831  1
  Te  Te167  1  0.59497102  0.42519209  0.90880870  1
  Te  Te168  1  0.60057616  0.75944997  0.26655082  1
  Te  Te169  1  0.54635598  0.74130026  0.54969033  1
  Te  Te170  1  0.61239784  0.78826043  0.94539934  1
  Te  Te171  1  0.89971156  0.07141030  0.23432981  1
  Te  Te172  1  0.92228443  0.05995346  0.58683354  1
  Te  Te173  1  0.90739109  0.06711442  0.90974971  1
  Te  Te174  1  0.91494828  0.40484640  0.26309745  1
  Te  Te175  1  0.90541621  0.42561151  0.58682342  1
  Te  Te176  1  0.91936428  0.41246089  0.91867805  1
  Te  Te177  1  0.90134726  0.76877500  0.24153860  1
  Te  Te178  1  0.89454816  0.76401678  0.59971637  1
  Te  Te179  1  0.90221826  0.78517801  0.91003864  1
