# generated using pymatgen
data_In2Te3
_symmetry_space_group_name_H-M   'P 1'
_cell_length_a   18.92148542
_cell_length_b   18.91234847
_cell_length_c   18.93172061
_cell_angle_alpha   90.12693310
_cell_angle_beta   90.00200441
_cell_angle_gamma   89.96752031
_symmetry_Int_Tables_number   1
_chemical_formula_structural   In2Te3
_chemical_formula_sum   'In72 Te108'
_cell_volume   6774.69331130
_cell_formula_units_Z   36
loop_
 _symmetry_equiv_pos_site_id
 _symmetry_equiv_pos_as_xyz
  1  'x, y, z'
loop_
 _atom_site_type_symbol
 _atom_site_label
 _atom_site_symmetry_multiplicity
 _atom_site_fract_x
 _atom_site_fract_y
 _atom_site_fract_z
 _atom_site_occupancy
  In  In0  1  0.82513646  0.51398553  0.01278097  1
  In  In1  1  -0.00177393  0.01028701  0.65642947  1
  In  In2  1  0.84305540  0.15513632  0.68664345  1
  In  In3  1  0.82200319  0.82521914  0.35957254  1
  In  In4  1  0.33240283  -0.00444989  0.63612453  1
  In  In5  1  0.15138621  0.82774811  0.32506154  1
  In  In6  1  -0.01041732  0.35222608  0.65484324  1
  In  In7  1  0.83928350  0.86648719  -0.00941081  1
  In  In8  1  0.32664109  -0.00164667  0.00661974  1
  In  In9  1  0.49563454  0.36724727  0.45821590  1
  In  In10  1  0.48808952  -0.01855161  0.17942283  1
  In  In11  1  0.02389194  0.34707782  0.31972431  1
  In  In12  1  0.48632192  0.13818053  0.35741414  1
  In  In13  1  0.31001562  0.48256800  0.84191543  1
  In  In14  1  -0.02150035  0.85963283  0.83671040  1
  In  In15  1  0.18238110  0.34039792  0.17332100  1
  In  In16  1  0.53797721  0.37807198  0.86047098  1
  In  In17  1  -0.01499183  -0.01245493  0.33750552  1
  In  In18  1  0.34526687  0.82916702  0.81374459  1
  In  In19  1  0.36446943  0.22336574  0.84931744  1
  In  In20  1  0.33731488  0.16217582  0.18729763  1
  In  In21  1  0.65817916  0.66638622  0.00755533  1
  In  In22  1  0.50834229  0.84667898  0.63514630  1
  In  In23  1  0.17605268  0.48283659  0.32829586  1
  In  In24  1  0.17725554  0.65701209  0.82872599  1
  In  In25  1  0.49369201  0.63182645  0.15597066  1
  In  In26  1  0.82827627  0.68124675  0.81062678  1
  In  In27  1  0.82488407  0.16679362  0.33801665  1
  In  In28  1  0.47386831  0.64624610  0.84130442  1
  In  In29  1  0.18183820  0.83924343  0.65379304  1
  In  In30  1  -0.00810190  0.68227205  0.67380170  1
  In  In31  1  0.80418548  0.35420622  0.85538408  1
  In  In32  1  0.00772714  0.65655540  0.32351338  1
  In  In33  1  0.17480650  0.69903066  0.49845820  1
  In  In34  1  0.19435127  0.14198585  0.67345574  1
  In  In35  1  0.03246884  0.67573829  0.01226048  1
  In  In36  1  0.50375640  0.02017243  0.81953899  1
  In  In37  1  0.84070518  -0.01288307  0.17030060  1
  In  In38  1  0.66957499  0.16078417  0.16917910  1
  In  In39  1  0.51684537  0.62231005  0.47009403  1
  In  In40  1  0.19983235  0.82861989  0.01732592  1
  In  In41  1  0.17697438  0.32830317  0.48317083  1
  In  In42  1  0.65958161  0.32535549  0.67348119  1
  In  In43  1  0.79403315  0.84461950  0.61103835  1
  In  In44  1  0.82758075  0.34758258  0.49399916  1
  In  In45  1  0.82608232  0.66216480  0.18956218  1
  In  In46  1  0.52597100  0.84593908  0.34817191  1
  In  In47  1  0.65309839  0.82200984  0.16493661  1
  In  In48  1  0.17235593  0.50057735  0.66286155  1
  In  In49  1  0.32934716  0.65978398  0.32260268  1
  In  In50  1  0.50643904  0.16976797  0.65656636  1
  In  In51  1  0.30228565  0.62158207  0.04706882  1
  In  In52  1  0.18396010  0.16749895  0.34480744  1
  In  In53  1  0.16113658  0.18346385  0.01235293  1
  In  In54  1  0.49693488  0.51407723  0.65438379  1
  In  In55  1  0.34275773  0.32060608  0.66264681  1
  In  In56  1  -0.00608454  0.17897229  0.52982292  1
  In  In57  1  0.80851257  0.49798154  0.32256694  1
  In  In58  1  0.18132401  -0.00681238  0.49046037  1
  In  In59  1  0.65627817  0.66034800  0.65991680  1
  In  In60  1  -0.01270535  0.51373152  0.84917655  1
  In  In61  1  0.00271929  0.19371702  0.87572318  1
  In  In62  1  0.49182479  0.80833299  0.01667323  1
  In  In63  1  0.16263650  0.01679642  0.86984104  1
  In  In64  1  0.79524853  0.65506701  0.49180021  1
  In  In65  1  0.66330717  0.15139455  0.49283079  1
  In  In66  1  0.83164761  0.18210421  0.00467313  1
  In  In67  1  0.79573830  -0.00048732  0.82579418  1
  In  In68  1  0.50118673  0.19177164  -0.01722041  1
  In  In69  1  0.84539270  0.32275001  0.15948225  1
  In  In70  1  -0.01001863  0.03253684  0.02943976  1
  In  In71  1  0.50402505  0.36421189  0.16853719  1
  Te  Te72  1  0.11636945  0.06906493  0.09248340  1
  Te  Te73  1  0.07544636  0.09510552  0.43192477  1
  Te  Te74  1  0.07514345  0.08881412  0.76234503  1
  Te  Te75  1  0.09821211  0.44859008  0.11672967  1
  Te  Te76  1  0.07632429  0.43061297  0.43520690  1
  Te  Te77  1  0.07575267  0.42884037  0.75429612  1
  Te  Te78  1  0.12084855  0.74126843  0.11092885  1
  Te  Te79  1  0.05751713  0.75909122  0.42402161  1
  Te  Te80  1  0.08489985  0.76197017  0.76653645  1
  Te  Te81  1  0.43102758  0.08963593  0.07831281  1
  Te  Te82  1  0.41703939  0.05395693  0.45642395  1
  Te  Te83  1  0.39672984  0.09115496  0.73830849  1
  Te  Te84  1  0.40681619  0.42673971  0.07497385  1
  Te  Te85  1  0.41050693  0.44332818  0.36251763  1
  Te  Te86  1  0.42281327  0.41611323  0.75203592  1
  Te  Te87  1  0.39284346  0.73383913  0.10167205  1
  Te  Te88  1  0.43285978  0.73326833  0.40442844  1
  Te  Te89  1  0.43541264  0.74363515  0.73032812  1
  Te  Te90  1  0.75466974  0.07265567  0.07833580  1
  Te  Te91  1  0.73670022  0.06297901  0.39652106  1
  Te  Te92  1  0.72345480  0.08512988  0.73274817  1
  Te  Te93  1  0.74945332  0.39883428  0.07136188  1
  Te  Te94  1  0.72239209  0.42095155  0.41847787  1
  Te  Te95  1  0.74285671  0.42466237  0.74364558  1
  Te  Te96  1  0.76584467  0.75711550  0.07493241  1
  Te  Te97  1  0.71533633  0.73152855  0.39590317  1
  Te  Te98  1  0.73534601  0.77006214  0.73180629  1
  Te  Te99  1  0.09395243  0.23673946  0.24383645  1
  Te  Te100  1  0.10647142  0.25470781  0.60008898  1
  Te  Te101  1  0.09916267  0.29517796  0.93219784  1
  Te  Te102  1  0.08470649  0.56087015  0.23739953  1
  Te  Te103  1  0.09008877  0.60442676  0.58842227  1
  Te  Te104  1  0.10454375  0.57021730  0.92943784  1
  Te  Te105  1  0.08319973  0.93236747  0.24584308  1
  Te  Te106  1  0.07784819  0.91225838  0.57230296  1
  Te  Te107  1  0.08947354  0.90152332  0.93434002  1
  Te  Te108  1  0.44903731  0.24280685  0.24925070  1
  Te  Te109  1  0.43676107  0.26237336  0.55992890  1
  Te  Te110  1  0.42257085  0.32706687  0.95597782  1
  Te  Te111  1  0.40762353  0.55202521  0.25019609  1
  Te  Te112  1  0.40771102  0.57299174  0.55582995  1
  Te  Te113  1  0.39646109  0.56171558  0.94138634  1
  Te  Te114  1  0.41278445  0.89335984  0.26731806  1
  Te  Te115  1  0.41586313  0.92004506  0.53853390  1
  Te  Te116  1  0.41881808  0.91154971  0.91980227  1
  Te  Te117  1  0.74249917  0.26353902  0.25585132  1
  Te  Te118  1  0.75784098  0.24414493  0.58283759  1
  Te  Te119  1  0.74000479  0.23257331  0.90370838  1
  Te  Te120  1  0.72193370  0.55922449  0.21611100  1
  Te  Te121  1  0.74068515  0.56195041  0.59109717  1
  Te  Te122  1  0.74964502  0.59366049  0.90720889  1
  Te  Te123  1  0.74341300  0.90684364  0.25153265  1
  Te  Te124  1  0.68504724  0.92629407  0.55274737  1
  Te  Te125  1  0.72515935  0.90196772  0.90850090  1
  Te  Te126  1  0.27256240  0.25501820  0.08607559  1
  Te  Te127  1  0.28382971  0.26440829  0.40108057  1
  Te  Te128  1  0.24407178  0.25955944  0.76075055  1
  Te  Te129  1  0.24317119  0.50566022  0.11712720  1
  Te  Te130  1  0.24083318  0.58522320  0.42141747  1
  Te  Te131  1  0.27286990  0.58970164  0.73453499  1
  Te  Te132  1  0.26464715  0.92017579  0.11228891  1
  Te  Te133  1  0.25231611  0.89224445  0.41243777  1
  Te  Te134  1  0.23982279  0.93204975  0.76109431  1
  Te  Te135  1  0.59060662  0.25934424  0.08615108  1
  Te  Te136  1  0.58218046  0.24806227  0.40927616  1
  Te  Te137  1  0.56490243  0.25575682  0.76873239  1
  Te  Te138  1  0.57181124  0.55236471  0.05289939  1
  Te  Te139  1  0.59986430  0.52786773  0.38750665  1
  Te  Te140  1  0.58300060  0.57370036  0.76533786  1
  Te  Te141  1  0.58044072  0.91813433  0.07385171  1
  Te  Te142  1  0.61168203  0.94616900  0.41702232  1
  Te  Te143  1  0.57442405  0.91403783  0.74779693  1
  Te  Te144  1  0.94137323  0.24441135  0.07819880  1
  Te  Te145  1  0.93138484  0.25824731  0.41272248  1
  Te  Te146  1  0.92424638  0.26091811  0.75920209  1
  Te  Te147  1  0.92444850  0.59899649  0.09032343  1
  Te  Te148  1  0.90313836  0.58350028  0.40573263  1
  Te  Te149  1  0.90579966  0.57357359  0.73585773  1
  Te  Te150  1  0.94352945  0.90265386  0.09290161  1
  Te  Te151  1  0.90033091  0.92353062  0.43764375  1
  Te  Te152  1  0.89752864  0.91470427  0.72110086  1
  Te  Te153  1  0.27619295  0.07110726  0.28368176  1
  Te  Te154  1  0.27463765  0.10759857  0.54814562  1
  Te  Te155  1  0.27292379  0.11237011  0.91683210  1
  Te  Te156  1  0.28002865  0.37884134  0.28598189  1
  Te  Te157  1  0.26345305  0.41621202  0.57471124  1
  Te  Te158  1  0.21720087  0.39641265  0.91195993  1
  Te  Te159  1  0.22492939  0.72681139  0.24069854  1
  Te  Te160  1  0.27860836  0.75497027  0.58705148  1
  Te  Te161  1  0.27338608  0.73907855  0.91541887  1
  Te  Te162  1  0.58309812  0.07182723  0.25675317  1
  Te  Te163  1  0.58173132  0.06407651  0.58254817  1
  Te  Te164  1  0.58663090  0.09193829  0.91692697  1
  Te  Te165  1  0.59503749  0.45418936  0.24992388  1
  Te  Te166  1  0.58123053  0.41353641  0.57764881  1
  Te  Te167  1  0.62406419  0.42977819  0.96903552  1
  Te  Te168  1  0.57058604  0.72835196  0.24542908  1
  Te  Te169  1  0.57953646  0.73834721  0.55634943  1
  Te  Te170  1  0.57298868  0.74315618  0.90679362  1
  Te  Te171  1  0.91894302  0.09395732  0.24398671  1
  Te  Te172  1  0.89127372  0.07332810  0.56655824  1
  Te  Te173  1  0.91405934  0.06644253  0.90493792  1
  Te  Te174  1  0.91887729  0.42570835  0.24330701  1
  Te  Te175  1  0.91451823  0.44081650  0.56734467  1
  Te  Te176  1  0.91697359  0.41370227  0.93763908  1
  Te  Te177  1  0.91875597  0.76078353  0.25607886  1
  Te  Te178  1  0.90035954  0.74265406  0.57050980  1
  Te  Te179  1  0.92520210  0.73793888  0.91548032  1
