# generated using pymatgen
data_In2Te3
_symmetry_space_group_name_H-M   'P 1'
_cell_length_a   18.99799656
_cell_length_b   19.01772190
_cell_length_c   19.01574797
_cell_angle_alpha   90.17346662
_cell_angle_beta   90.10391641
_cell_angle_gamma   89.82638401
_symmetry_Int_Tables_number   1
_chemical_formula_structural   In2Te3
_chemical_formula_sum   'In72 Te108'
_cell_volume   6870.28919380
_cell_formula_units_Z   36
loop_
 _symmetry_equiv_pos_site_id
 _symmetry_equiv_pos_as_xyz
  1  'x, y, z'
loop_
 _atom_site_type_symbol
 _atom_site_label
 _atom_site_symmetry_multiplicity
 _atom_site_fract_x
 _atom_site_fract_y
 _atom_site_fract_z
 _atom_site_occupancy
  In  In0  1  0.49657570  0.50088219  0.66066681  1
  In  In1  1  -0.00184710  -0.01010836  0.67240791  1
  In  In2  1  0.21939813  -0.01385260  0.11535727  1
  In  In3  1  0.82712507  0.32372168  0.18829102  1
  In  In4  1  0.65557756  0.49226376  0.51108009  1
  In  In5  1  0.29062170  0.81029865  0.49350544  1
  In  In6  1  0.84830694  0.65413414  0.46888439  1
  In  In7  1  0.03432792  0.81521554  0.49095678  1
  In  In8  1  0.31875008  0.33254052  0.68055557  1
  In  In9  1  0.86018785  0.16002480  0.34558831  1
  In  In10  1  0.65452009  0.14252134  0.16187212  1
  In  In11  1  0.02107303  0.66923360  0.67626354  1
  In  In12  1  -0.01463593  0.49217587  0.85058209  1
  In  In13  1  0.80740937  0.45710984  0.71765000  1
  In  In14  1  0.82928646  0.81678836  0.30516288  1
  In  In15  1  0.16117926  0.35087822  0.17175458  1
  In  In16  1  0.31202786  0.54171392  0.46561319  1
  In  In17  1  0.49236159  0.17020988  -0.01443799  1
  In  In18  1  0.34083160  0.00904445  0.67774853  1
  In  In19  1  0.50675823  -0.03601011  0.46397746  1
  In  In20  1  0.01955320  0.34277215  0.33096552  1
  In  In21  1  -0.01829183  0.32990641  0.67063303  1
  In  In22  1  0.67773608  0.82401468  0.14002093  1
  In  In23  1  0.00951282  0.15255515  0.16349192  1
  In  In24  1  0.00213282  0.17731912  0.82119109  1
  In  In25  1  0.32704323  0.16591094  0.17413839  1
  In  In26  1  0.66420543  0.00402548  0.66807740  1
  In  In27  1  0.18859626  0.00046613  0.86451673  1
  In  In28  1  0.68048181  0.15582389  0.49895852  1
  In  In29  1  0.66639319  0.15523512  0.83496158  1
  In  In30  1  0.16167722  0.51275188  0.03643070  1
  In  In31  1  0.62361893  0.33077651  0.31348506  1
  In  In32  1  0.48701350  0.82657853  0.66126557  1
  In  In33  1  0.34166712  0.16074961  0.51004726  1
  In  In34  1  0.47564769  0.53322434  0.32838112  1
  In  In35  1  0.17620719  0.30516967  0.83286091  1
  In  In36  1  0.35257204  0.33608831  0.00257287  1
  In  In37  1  0.66316526  0.66517354  0.66280313  1
  In  In38  1  0.65992529  0.33830758  0.00934188  1
  In  In39  1  0.84161846  0.84525164  0.66275115  1
  In  In40  1  0.48915692  0.37343493  0.50069631  1
  In  In41  1  0.83129528  0.50386441  0.35125962  1
  In  In42  1  0.84700036  -0.00386116  0.50554749  1
  In  In43  1  0.34190836  0.51111726  0.85920310  1
  In  In44  1  -0.00173460  0.66897180  -0.01504112  1
  In  In45  1  0.81378970  0.31730778  0.52024442  1
  In  In46  1  0.49909003  0.30186416  0.85477159  1
  In  In47  1  0.19010237  0.31061230  0.51326616  1
  In  In48  1  0.83686567  0.49253135  0.00187747  1
  In  In49  1  0.16412408  0.51634712  0.67611215  1
  In  In50  1  0.50273691  0.83992207  -0.02249711  1
  In  In51  1  0.83961929  0.15717910  0.01319623  1
  In  In52  1  0.35001469  0.82632903  0.83234078  1
  In  In53  1  0.66898762  0.68534314  0.31887295  1
  In  In54  1  0.50831123  0.01006298  0.81466286  1
  In  In55  1  0.17727069  0.69360276  0.82298821  1
  In  In56  1  0.49444726  0.16149540  0.32726498  1
  In  In57  1  -0.00305614  0.00729599  0.33238277  1
  In  In58  1  0.18372028  0.69161847  0.17134071  1
  In  In59  1  0.48800158  0.50709039  0.02039806  1
  In  In60  1  0.83724839  0.67802115  0.14767648  1
  In  In61  1  0.48149446  0.67728012  0.16000296  1
  In  In62  1  0.02969076  0.50064226  0.51567617  1
  In  In63  1  -0.01398559  0.82983662  0.15744529  1
  In  In64  1  0.48343283  0.35912616  0.18262512  1
  In  In65  1  0.48005358  0.69651224  0.47751867  1
  In  In66  1  0.16141580  0.85609869  0.33086258  1
  In  In67  1  0.00368761  -0.00570847  0.01311841  1
  In  In68  1  0.01232463  0.13487154  0.51506771  1
  In  In69  1  0.69290253  0.85698106  0.87083358  1
  In  In70  1  0.46131891  -0.03029467  0.18053595  1
  In  In71  1  0.84054336  0.65776004  0.83683755  1
  Te  Te72  1  0.11087863  0.08522540  0.07400829  1
  Te  Te73  1  0.09125903  0.09587678  0.40062561  1
  Te  Te74  1  0.08875381  0.06732162  0.76422184  1
  Te  Te75  1  0.06343838  0.41986514  0.08596021  1
  Te  Te76  1  0.11455801  0.41258557  0.42582987  1
  Te  Te77  1  0.08664138  0.41095683  0.75064990  1
  Te  Te78  1  0.08620836  0.75644243  0.07209639  1
  Te  Te79  1  0.10588220  0.73213628  0.39100605  1
  Te  Te80  1  0.08240928  0.77810806  0.74926641  1
  Te  Te81  1  0.41965234  0.08310839  0.08769452  1
  Te  Te82  1  0.40935365  0.06817868  0.40791732  1
  Te  Te83  1  0.43914239  0.10692516  0.72987172  1
  Te  Te84  1  0.38270630  0.44197777  0.10836547  1
  Te  Te85  1  0.39204819  0.42874245  0.39966457  1
  Te  Te86  1  0.41847064  0.40904076  0.76617322  1
  Te  Te87  1  0.40623065  0.77513819  0.07364218  1
  Te  Te88  1  0.39659516  0.78253265  0.38915736  1
  Te  Te89  1  0.41693300  0.72984239  0.74341106  1
  Te  Te90  1  0.73686467  0.06430840  0.06730426  1
  Te  Te91  1  0.75616169  0.06525255  0.40459223  1
  Te  Te92  1  0.75453701  0.05590036  0.77019989  1
  Te  Te93  1  0.74578571  0.41862847  0.10290137  1
  Te  Te94  1  0.73669611  0.40130507  0.41317046  1
  Te  Te95  1  0.69993795  0.43690710  0.80989702  1
  Te  Te96  1  0.74453200  0.73080837  0.04795079  1
  Te  Te97  1  0.75147332  0.76058663  0.42135467  1
  Te  Te98  1  0.75425064  0.75383580  0.75007061  1
  Te  Te99  1  0.09498613  0.23616118  0.25576294  1
  Te  Te100  1  0.08058426  0.24367048  0.59465151  1
  Te  Te101  1  0.08480247  0.24153709  0.92407532  1
  Te  Te102  1  0.14904149  0.56358343  0.25029539  1
  Te  Te103  1  0.12266755  0.61894771  0.56604705  1
  Te  Te104  1  0.09606861  0.58207667  0.89974250  1
  Te  Te105  1  0.07438209  0.93015687  0.22695960  1
  Te  Te106  1  0.08796535  0.92518372  0.57294931  1
  Te  Te107  1  0.10068968  0.91121701  0.94014386  1
  Te  Te108  1  0.40181039  0.26392699  0.26542814  1
  Te  Te109  1  0.41875509  0.27027485  0.58440202  1
  Te  Te110  1  0.37171646  0.21620997  0.90133333  1
  Te  Te111  1  0.38619401  0.62753023  0.26221511  1
  Te  Te112  1  0.41642942  0.59043598  0.56344020  1
  Te  Te113  1  0.42438275  0.60498206  0.93263417  1
  Te  Te114  1  0.38157581  0.89448060  0.27997657  1
  Te  Te115  1  0.40352698  0.91294709  0.57095009  1
  Te  Te116  1  0.41014061  0.94541999  0.90760298  1
  Te  Te117  1  0.73768217  0.22937417  0.26663991  1
  Te  Te118  1  0.73870984  0.23144002  0.61015655  1
  Te  Te119  1  0.74534962  0.24553935  0.92962657  1
  Te  Te120  1  0.76051858  0.58939795  0.24794439  1
  Te  Te121  1  0.75752390  0.58507978  0.57243622  1
  Te  Te122  1  0.74794748  0.56103633  0.90162036  1
  Te  Te123  1  0.76067352  0.91356163  0.22270787  1
  Te  Te124  1  0.74029147  0.91269531  0.57243008  1
  Te  Te125  1  0.76990418  0.92789836  0.97198438  1
  Te  Te126  1  0.25118639  0.26023515  0.08442427  1
  Te  Te127  1  0.26187299  0.23588362  0.41147857  1
  Te  Te128  1  0.24020307  0.21858159  0.73145083  1
  Te  Te129  1  0.26052597  0.61121387  0.07446326  1
  Te  Te130  1  0.23733214  0.62249526  0.36725626  1
  Te  Te131  1  0.26905387  0.59298591  0.75237483  1
  Te  Te132  1  0.28832673  0.87468620  0.04714199  1
  Te  Te133  1  0.21639506  0.92946945  0.44769998  1
  Te  Te134  1  0.25478513  0.91219250  0.75149098  1
  Te  Te135  1  0.56562401  0.25410633  0.10100833  1
  Te  Te136  1  0.56986736  0.25201844  0.43140349  1
  Te  Te137  1  0.56899308  0.22734976  0.74998305  1
  Te  Te138  1  0.58122526  0.59149002  0.09497184  1
  Te  Te139  1  0.58970989  0.59230243  0.41884288  1
  Te  Te140  1  0.57411759  0.58782066  0.74826507  1
  Te  Te141  1  0.57079828  0.91917415  0.08683468  1
  Te  Te142  1  0.57422574  0.87404973  0.37176092  1
  Te  Te143  1  0.58812992  0.89390757  0.75533041  1
  Te  Te144  1  0.92289770  0.25542641  0.09354396  1
  Te  Te145  1  0.92695842  0.26497764  0.43055279  1
  Te  Te146  1  0.89497321  0.26451423  0.76670047  1
  Te  Te147  1  0.93229749  0.57746500  0.08428940  1
  Te  Te148  1  0.95844335  0.57336773  0.40243458  1
  Te  Te149  1  0.92319472  0.56792254  0.73212831  1
  Te  Te150  1  0.89556913  0.89999248  0.06205358  1
  Te  Te151  1  0.92562247  0.90235223  0.41436380  1
  Te  Te152  1  0.89953026  0.93181703  0.76440340  1
  Te  Te153  1  0.25655917  0.05468979  0.23844894  1
  Te  Te154  1  0.24766681  0.10183115  0.60779413  1
  Te  Te155  1  0.29064002  0.08564011  0.92488115  1
  Te  Te156  1  0.24205826  0.44787317  0.24408160  1
  Te  Te157  1  0.25814828  0.43633684  0.58650949  1
  Te  Te158  1  0.24540872  0.41578579  0.92590244  1
  Te  Te159  1  0.26176818  0.81014396  0.22760909  1
  Te  Te160  1  0.23310159  0.72387115  0.59224977  1
  Te  Te161  1  0.25013433  0.76984237  0.92905796  1
  Te  Te162  1  0.57214080  0.05617295  0.25288823  1
  Te  Te163  1  0.57688725  0.06515955  0.56055169  1
  Te  Te164  1  0.58830400  0.06857556  0.93055732  1
  Te  Te165  1  0.58060710  0.45681046  0.24432672  1
  Te  Te166  1  0.59615423  0.39685877  0.60932650  1
  Te  Te167  1  0.57057719  0.42016142  0.91859782  1
  Te  Te168  1  0.56886358  0.77556701  0.25176654  1
  Te  Te169  1  0.58486115  0.75647129  0.56890018  1
  Te  Te170  1  0.60295899  0.75161899  0.91540138  1
  Te  Te171  1  0.90124335  0.07163374  0.23004126  1
  Te  Te172  1  0.90091595  0.09541387  0.60417356  1
  Te  Te173  1  0.92633648  0.08184817  0.91726647  1
  Te  Te174  1  0.91941462  0.42493498  0.25321860  1
  Te  Te175  1  0.91171427  0.42427805  0.57299185  1
  Te  Te176  1  0.90669240  0.39249682  0.91927600  1
  Te  Te177  1  0.93763203  0.72564870  0.25492548  1
  Te  Te178  1  0.92164310  0.74132863  0.57361430  1
  Te  Te179  1  0.93123189  0.75743098  0.89036706  1
