# generated using pymatgen
data_In2Te3
_symmetry_space_group_name_H-M   'P 1'
_cell_length_a   18.96769115
_cell_length_b   18.95250997
_cell_length_c   18.96016298
_cell_angle_alpha   89.86588754
_cell_angle_beta   90.05326703
_cell_angle_gamma   90.07661460
_symmetry_Int_Tables_number   1
_chemical_formula_structural   In2Te3
_chemical_formula_sum   'In72 Te108'
_cell_volume   6815.87324436
_cell_formula_units_Z   36
loop_
 _symmetry_equiv_pos_site_id
 _symmetry_equiv_pos_as_xyz
  1  'x, y, z'
loop_
 _atom_site_type_symbol
 _atom_site_label
 _atom_site_symmetry_multiplicity
 _atom_site_fract_x
 _atom_site_fract_y
 _atom_site_fract_z
 _atom_site_occupancy
  In  In0  1  0.16571038  0.32721397  0.50660537  1
  In  In1  1  0.33678013  0.31495581  0.29461990  1
  In  In2  1  0.66953850  0.33566824  0.34937655  1
  In  In3  1  0.15614725  0.65955356  0.14960239  1
  In  In4  1  -0.00825686  0.65482056  0.66222446  1
  In  In5  1  0.33442099  -0.00798718  0.65618082  1
  In  In6  1  0.29683489  0.83438533  0.14782692  1
  In  In7  1  0.85307202  0.17617837  0.01559610  1
  In  In8  1  0.16093538  0.03735105  0.46701957  1
  In  In9  1  0.50066946  0.33407156  0.50270589  1
  In  In10  1  -0.00708229  0.50529379  0.50472645  1
  In  In11  1  -0.00962517  -0.00551843  -0.00549654  1
  In  In12  1  0.35286825  0.17268366  0.49586118  1
  In  In13  1  0.66405948  0.81902321  0.83367936  1
  In  In14  1  0.67235133  0.50025707  0.16831934  1
  In  In15  1  0.65132549  0.68655024  0.66126726  1
  In  In16  1  0.68622077  0.53720674  0.85095838  1
  In  In17  1  0.02394060  0.32144874  0.66314467  1
  In  In18  1  0.62933797  0.14783706  0.20079944  1
  In  In19  1  -0.00107942  0.69459989  0.33854752  1
  In  In20  1  0.82885103  -0.00319652  0.48863336  1
  In  In21  1  0.82870128  0.01765817  0.18933704  1
  In  In22  1  0.80757930  0.53004077  0.33274760  1
  In  In23  1  0.46991151  0.83625012  0.65687487  1
  In  In24  1  0.48904496  0.48796101  0.00026719  1
  In  In25  1  0.82431867  0.15861692  0.66363049  1
  In  In26  1  0.78997042  0.51901707  0.65137503  1
  In  In27  1  0.32708332  0.50000255  0.51673061  1
  In  In28  1  0.14748453  -0.00837483  0.84612959  1
  In  In29  1  0.50835776  0.66314472  0.17829123  1
  In  In30  1  0.51868894  0.88869501  0.33008889  1
  In  In31  1  0.14282498  0.49141463  0.66989744  1
  In  In32  1  0.16915372  0.67230089  0.82137715  1
  In  In33  1  0.84929667  0.17627618  0.33644621  1
  In  In34  1  0.00767983  0.31896995  0.31532654  1
  In  In35  1  -0.00858160  0.00617007  0.69005272  1
  In  In36  1  0.16200311  0.16457926  -0.00218702  1
  In  In37  1  0.18837369  0.49838075  0.31808887  1
  In  In38  1  0.64932228  0.33813238  0.65301494  1
  In  In39  1  0.51008122  0.49673629  0.35129240  1
  In  In40  1  0.66434490  -0.00294075  0.00226260  1
  In  In41  1  -0.00794446  0.51255429  0.86124578  1
  In  In42  1  0.49811192  0.66477029  0.48403328  1
  In  In43  1  0.30320398  0.19828554  0.82225409  1
  In  In44  1  0.67058973  -0.00340017  0.65157483  1
  In  In45  1  0.66351078  0.31170080  0.02406642  1
  In  In46  1  0.16814896  0.82207048  0.65265141  1
  In  In47  1  0.33285592  0.66814840  0.31727502  1
  In  In48  1  0.51774833  0.83655393  0.00239951  1
  In  In49  1  0.50666718  -0.00372907  0.86025303  1
  In  In50  1  0.82791490  0.34619668  0.49181509  1
  In  In51  1  0.83129558  0.80734361  -0.00985223  1
  In  In52  1  0.33064114  0.83848824  0.50142881  1
  In  In53  1  0.51034534  0.32663254  0.83059840  1
  In  In54  1  0.68625413  0.84502299  0.16157497  1
  In  In55  1  0.16868749  0.48060800  0.02453033  1
  In  In56  1  0.81965242  0.80386615  0.36089311  1
  In  In57  1  -0.02439767  0.51598784  0.14600681  1
  In  In58  1  0.34173076  0.00702606  0.34972558  1
  In  In59  1  0.34146719  0.47061509  0.81646329  1
  In  In60  1  0.01253052  0.17485611  0.84307488  1
  In  In61  1  0.50713659  0.15259364  0.67473729  1
  In  In62  1  0.84132562  0.35294668  0.85548304  1
  In  In63  1  0.35151300  0.32456198  0.00897308  1
  In  In64  1  0.00325374  0.83439067  0.16426859  1
  In  In65  1  0.16086747  -0.00401823  0.17832251  1
  In  In66  1  0.36604793  0.13861427  0.14391664  1
  In  In67  1  0.32568866  0.65715855  -0.00810790  1
  In  In68  1  0.00554725  0.83973984  0.50566801  1
  In  In69  1  0.84001803  0.84518329  0.67766891  1
  In  In70  1  0.84348395  0.33580643  0.15801289  1
  In  In71  1  0.36569120  0.83385059  0.84042019  1
  Te  Te72  1  0.07033028  0.08270984  0.08614621  1
  Te  Te73  1  0.07226391  0.09596485  0.36445426  1
  Te  Te74  1  0.09962061  0.09675244  0.74713167  1
  Te  Te75  1  0.07931233  0.41411977  0.12163452  1
  Te  Te76  1  0.08725509  0.42563709  0.41501090  1
  Te  Te77  1  0.07272307  0.41056763  0.77478063  1
  Te  Te78  1  0.07643062  0.75118027  0.06844671  1
  Te  Te79  1  0.09558727  0.74957247  0.43316158  1
  Te  Te80  1  0.06711804  0.75577693  0.74624516  1
  Te  Te81  1  0.44451328  0.03790087  0.07182590  1
  Te  Te82  1  0.44189612  0.10208986  0.40256282  1
  Te  Te83  1  0.40908759  0.07251766  0.76117293  1
  Te  Te84  1  0.42794728  0.40580353  0.10352719  1
  Te  Te85  1  0.39332093  0.41228356  0.41099204  1
  Te  Te86  1  0.44683030  0.41418614  0.73258055  1
  Te  Te87  1  0.41315702  0.74476526  0.08408959  1
  Te  Te88  1  0.41806898  0.76634025  0.39566533  1
  Te  Te89  1  0.41913674  0.73470409  0.74892390  1
  Te  Te90  1  0.73972124  0.10172974  0.09923178  1
  Te  Te91  1  0.75114511  0.09790877  0.41328492  1
  Te  Te92  1  0.75593189  0.06254479  0.74957943  1
  Te  Te93  1  0.75807363  0.42272481  0.06906092  1
  Te  Te94  1  0.73014805  0.44601088  0.43455992  1
  Te  Te95  1  0.74077546  0.41563112  0.75526310  1
  Te  Te96  1  0.71282068  0.74798472  0.05463192  1
  Te  Te97  1  0.71538246  0.71538911  0.41368990  1
  Te  Te98  1  0.76292789  0.73811021  0.75393142  1
  Te  Te99  1  0.11283012  0.22222633  0.28964504  1
  Te  Te100  1  0.08288282  0.22442656  0.57229044  1
  Te  Te101  1  0.08781393  0.26833639  0.92507241  1
  Te  Te102  1  0.06577602  0.58033541  0.25329916  1
  Te  Te103  1  0.09639745  0.59602145  0.56985737  1
  Te  Te104  1  0.10782297  0.58352856  0.92847122  1
  Te  Te105  1  0.07535318  0.91231044  0.26403414  1
  Te  Te106  1  0.09145439  0.93691919  0.58735696  1
  Te  Te107  1  0.06642636  0.89383861  0.91953642  1
  Te  Te108  1  0.43973410  0.22745037  0.23773511  1
  Te  Te109  1  0.41934432  0.25458083  0.60444522  1
  Te  Te110  1  0.42130669  0.23282632  0.91068325  1
  Te  Te111  1  0.41776042  0.56375276  0.24911788  1
  Te  Te112  1  0.42623836  0.58354985  0.58320881  1
  Te  Te113  1  0.41468325  0.57632786  0.90206186  1
  Te  Te114  1  0.38813077  0.90371849  0.24638264  1
  Te  Te115  1  0.43045186  0.94154780  0.55166854  1
  Te  Te116  1  0.40264794  0.93276606  0.95610671  1
  Te  Te117  1  0.74467143  0.25387921  0.24082677  1
  Te  Te118  1  0.74280242  0.24986156  0.57194841  1
  Te  Te119  1  0.75520895  0.24629714  0.92199333  1
  Te  Te120  1  0.76030078  0.60682082  0.21800281  1
  Te  Te121  1  0.74431066  0.62603354  0.56018067  1
  Te  Te122  1  0.79182165  0.59452578  0.93494476  1
  Te  Te123  1  0.75443174  0.91949138  0.27743514  1
  Te  Te124  1  0.74774571  0.89589635  0.56859789  1
  Te  Te125  1  0.75155413  0.91478886  0.91113849  1
  Te  Te126  1  0.25839260  0.23584722  0.08935003  1
  Te  Te127  1  0.25520717  0.25180162  0.40993204  1
  Te  Te128  1  0.23909730  0.28686314  0.72912281  1
  Te  Te129  1  0.26729190  0.56900043  0.10002617  1
  Te  Te130  1  0.25098148  0.59098873  0.42010215  1
  Te  Te131  1  0.24847353  0.57174913  0.74366267  1
  Te  Te132  1  0.21785805  0.92327148  0.06366464  1
  Te  Te133  1  0.23424302  0.91763245  0.41301479  1
  Te  Te134  1  0.25146086  0.90939269  0.75423241  1
  Te  Te135  1  0.56457088  0.22760570  0.09366575  1
  Te  Te136  1  0.58172699  0.24334199  0.42113727  1
  Te  Te137  1  0.60583224  0.23468647  0.75587713  1
  Te  Te138  1  0.58299708  0.58249472  0.07503036  1
  Te  Te139  1  0.59862497  0.61263267  0.38357668  1
  Te  Te140  1  0.59540724  0.57730674  0.74488442  1
  Te  Te141  1  0.56870908  0.93793754  0.10677123  1
  Te  Te142  1  0.63469591  0.95548209  0.39556361  1
  Te  Te143  1  0.57083493  0.91291611  0.74954746  1
  Te  Te144  1  0.94499654  0.24315847  0.10735730  1
  Te  Te145  1  0.93406595  0.25644316  0.43461177  1
  Te  Te146  1  0.90831426  0.25417014  0.75032447  1
  Te  Te147  1  0.92075919  0.60583117  0.04239544  1
  Te  Te148  1  0.91079952  0.60013180  0.42211255  1
  Te  Te149  1  0.90625883  0.55945975  0.74128753  1
  Te  Te150  1  0.88776382  0.92146149  0.08664488  1
  Te  Te151  1  0.92179396  0.91326790  0.40343086  1
  Te  Te152  1  0.92552662  0.90968126  0.77789528  1
  Te  Te153  1  0.26431214  0.08490476  0.24549875  1
  Te  Te154  1  0.25213278  0.09153713  0.57673757  1
  Te  Te155  1  0.25191575  0.08256124  0.90947734  1
  Te  Te156  1  0.23612862  0.39795423  0.22363768  1
  Te  Te157  1  0.25284611  0.39307420  0.61405304  1
  Te  Te158  1  0.25630374  0.40626511  0.92383644  1
  Te  Te159  1  0.22350340  0.74982993  0.25170020  1
  Te  Te160  1  0.27591959  0.74121362  0.59641139  1
  Te  Te161  1  0.25140927  0.76215171  0.91288649  1
  Te  Te162  1  0.57060577  0.02965385  0.27782499  1
  Te  Te163  1  0.58171826  0.08057332  0.57219273  1
  Te  Te164  1  0.59555823  0.09563174  0.91888336  1
  Te  Te165  1  0.58166138  0.40968698  0.24939877  1
  Te  Te166  1  0.58469413  0.43699821  0.56596801  1
  Te  Te167  1  0.59800786  0.41500646  0.92115001  1
  Te  Te168  1  0.58261841  0.77408133  0.24840153  1
  Te  Te169  1  0.57019947  0.77368416  0.56377460  1
  Te  Te170  1  0.57191550  0.73590956  0.91207318  1
  Te  Te171  1  0.93988461  0.08882715  0.25681795  1
  Te  Te172  1  0.92114307  0.08006462  0.57747216  1
  Te  Te173  1  0.90726093  0.08608411  0.90632633  1
  Te  Te174  1  0.90042668  0.41957463  0.27384840  1
  Te  Te175  1  0.91053272  0.41761772  0.59920394  1
  Te  Te176  1  0.93094483  0.41456604  0.95234200  1
  Te  Te177  1  0.89877836  0.75112030  0.23932976  1
  Te  Te178  1  0.90853892  0.75013097  0.57968270  1
  Te  Te179  1  0.90734672  0.70058956  0.91693722  1
