# generated using pymatgen
data_In2Te3
_symmetry_space_group_name_H-M   'P 1'
_cell_length_a   18.77604692
_cell_length_b   18.78328593
_cell_length_c   18.77973791
_cell_angle_alpha   89.98639078
_cell_angle_beta   90.02020446
_cell_angle_gamma   89.92148238
_symmetry_Int_Tables_number   1
_chemical_formula_structural   In2Te3
_chemical_formula_sum   'In72 Te108'
_cell_volume   6623.15336416
_cell_formula_units_Z   36
loop_
 _symmetry_equiv_pos_site_id
 _symmetry_equiv_pos_as_xyz
  1  'x, y, z'
loop_
 _atom_site_type_symbol
 _atom_site_label
 _atom_site_symmetry_multiplicity
 _atom_site_fract_x
 _atom_site_fract_y
 _atom_site_fract_z
 _atom_site_occupancy
  In  In0  1  0.16957995  0.51008252  0.65755673  1
  In  In1  1  0.51942408  0.48785145  0.35134979  1
  In  In2  1  0.16412240  -0.02081698  0.50181002  1
  In  In3  1  0.84071764  0.34339256  0.83506388  1
  In  In4  1  0.84175389  0.84607665  0.67908550  1
  In  In5  1  0.15651820  0.84163265  0.33002079  1
  In  In6  1  0.32195719  0.85275831  0.16643406  1
  In  In7  1  0.50301270  0.31772881  0.83280389  1
  In  In8  1  0.68412111  0.67458623  -0.01070801  1
  In  In9  1  0.84100485  -0.01975048  0.48826207  1
  In  In10  1  0.50296188  0.15763109  0.31895330  1
  In  In11  1  -0.01715195  0.50197532  0.83809294  1
  In  In12  1  -0.00668478  0.68069060  0.01794846  1
  In  In13  1  0.34812189  -0.00187088  0.68563775  1
  In  In14  1  -0.00284688  0.12704270  0.87640415  1
  In  In15  1  -0.00734305  0.52048122  0.16564518  1
  In  In16  1  0.33164384  0.49736617  0.16441163  1
  In  In17  1  0.65601618  -0.01493461  0.33242965  1
  In  In18  1  0.84405069  0.82305564  0.00286852  1
  In  In19  1  0.50567421  0.51542642  -0.00379947  1
  In  In20  1  0.80495879  0.53383866  0.29018199  1
  In  In21  1  0.19102804  0.28427394  0.81560704  1
  In  In22  1  0.67703306  0.15948537  0.14323041  1
  In  In23  1  0.00826633  0.66729475  0.33488291  1
  In  In24  1  0.48912415  0.32693079  0.51297926  1
  In  In25  1  0.49562625  0.68686520  0.16586612  1
  In  In26  1  0.00541573  0.33382339  0.34647414  1
  In  In27  1  0.49450749  0.83465504  0.66165835  1
  In  In28  1  0.14710456  -0.02934022  0.84374390  1
  In  In29  1  0.34150843  0.50627263  0.50082642  1
  In  In30  1  0.00756060  -0.01149370  0.67652727  1
  In  In31  1  0.17353112  0.34508707  0.16246005  1
  In  In32  1  0.14884580  0.71047064  0.80688464  1
  In  In33  1  0.84001867  0.67436863  0.84316578  1
  In  In34  1  0.33828126  0.84554346  0.85018566  1
  In  In35  1  0.49727069  0.32498915  0.20184373  1
  In  In36  1  0.66195155  0.00288966  0.66720833  1
  In  In37  1  0.15334144  0.50285816  0.00729593  1
  In  In38  1  0.33718352  0.01205029  0.32598772  1
  In  In39  1  0.00544593  0.83267285  0.17603212  1
  In  In40  1  0.65543218  0.15720657  0.84620608  1
  In  In41  1  0.66475110  0.32602414  0.31230449  1
  In  In42  1  0.66548338  0.84542490  0.83671834  1
  In  In43  1  0.83956047  0.32288556  0.14896861  1
  In  In44  1  0.01930169  0.32751218  0.66716061  1
  In  In45  1  0.50677120  0.82564552  0.34104636  1
  In  In46  1  0.16265061  0.16323485  -0.01052910  1
  In  In47  1  0.33410351  0.15148429  0.50012129  1
  In  In48  1  0.50100252  0.14002140  0.00963492  1
  In  In49  1  0.32575698  0.69197855  0.01177244  1
  In  In50  1  0.50613037  0.66476346  0.51077444  1
  In  In51  1  0.01797338  0.17933357  0.50047811  1
  In  In52  1  0.83656193  0.69570430  0.49539424  1
  In  In53  1  -0.00803516  0.14529037  0.14910950  1
  In  In54  1  0.85451504  0.32755379  0.48172260  1
  In  In55  1  0.16279460  0.33856614  0.50523935  1
  In  In56  1  0.16635881  0.14541157  0.33944987  1
  In  In57  1  0.65858175  0.34340445  0.67302726  1
  In  In58  1  0.83380996  0.52204070  0.66814673  1
  In  In59  1  0.33967253  -0.00282883  0.01455666  1
  In  In60  1  0.67639039  0.35596211  -0.00208600  1
  In  In61  1  0.83113864  0.84297967  0.32539151  1
  In  In62  1  0.34311184  0.48934234  0.82562959  1
  In  In63  1  0.32668865  0.66631741  0.34915467  1
  In  In64  1  0.67194213  0.50816325  0.49823418  1
  In  In65  1  0.31436547  0.69638495  0.64318109  1
  In  In66  1  0.65912122  0.12916578  0.50736019  1
  In  In67  1  0.33019149  0.31451625  -0.00175017  1
  In  In68  1  0.84907674  -0.01453233  0.15163691  1
  In  In69  1  0.54131016  0.65612065  0.80179569  1
  In  In70  1  0.01252540  0.53150101  0.50958458  1
  In  In71  1  0.81574999  0.16495177  0.66674902  1
  Te  Te72  1  0.08947018  0.06368900  0.07126885  1
  Te  Te73  1  0.06607503  0.06026649  0.41725473  1
  Te  Te74  1  0.08698501  0.08874181  0.75863555  1
  Te  Te75  1  0.06087014  0.40825204  0.08170573  1
  Te  Te76  1  0.09187201  0.43934966  0.41503797  1
  Te  Te77  1  0.09651310  0.41955409  0.76001286  1
  Te  Te78  1  0.09763518  0.74856050  0.09586644  1
  Te  Te79  1  0.09279137  0.74783104  0.42991080  1
  Te  Te80  1  0.06030730  0.78884830  0.71863944  1
  Te  Te81  1  0.40758022  0.08837542  0.11123742  1
  Te  Te82  1  0.43982886  0.06886970  0.42540320  1
  Te  Te83  1  0.39852840  0.10413165  0.77512236  1
  Te  Te84  1  0.42370880  0.40960371  0.07545236  1
  Te  Te85  1  0.40785099  0.40222356  0.40678936  1
  Te  Te86  1  0.42171655  0.40070814  0.74003750  1
  Te  Te87  1  0.43475903  0.78855926  0.06576513  1
  Te  Te88  1  0.40833918  0.75741959  0.43816259  1
  Te  Te89  1  0.41098345  0.74225434  0.76235280  1
  Te  Te90  1  0.77175441  0.07868518  0.05761256  1
  Te  Te91  1  0.75671059  0.07784935  0.40414140  1
  Te  Te92  1  0.75672001  0.06923067  0.76697396  1
  Te  Te93  1  0.75243849  0.43201858  0.09872221  1
  Te  Te94  1  0.75191219  0.41540438  0.40509772  1
  Te  Te95  1  0.74410104  0.43763369  0.75929042  1
  Te  Te96  1  0.75594916  0.74825482  0.09910644  1
  Te  Te97  1  0.73802181  0.76950105  0.41478540  1
  Te  Te98  1  0.74490574  0.74835797  0.74987542  1
  Te  Te99  1  0.08316799  0.24651691  0.24863000  1
  Te  Te100  1  0.11748353  0.23033048  0.60468609  1
  Te  Te101  1  0.07221839  0.25745767  0.90942654  1
  Te  Te102  1  0.09486723  0.58125385  0.25161263  1
  Te  Te103  1  0.09599284  0.62383339  0.59314635  1
  Te  Te104  1  0.08561678  0.59866549  0.90877523  1
  Te  Te105  1  0.07631412  0.93859760  0.25188236  1
  Te  Te106  1  0.09195296  0.88834029  0.60034578  1
  Te  Te107  1  0.03982288  0.90032849  0.91929660  1
  Te  Te108  1  0.39418648  0.23912550  0.25979513  1
  Te  Te109  1  0.40342649  0.24119273  0.59864663  1
  Te  Te110  1  0.41127670  0.22085273  0.91072589  1
  Te  Te111  1  0.42529980  0.58107042  0.25594055  1
  Te  Te112  1  0.41521207  0.58733193  0.60697491  1
  Te  Te113  1  0.40442739  0.59872971  0.91848813  1
  Te  Te114  1  0.43175439  0.92078289  0.24629282  1
  Te  Te115  1  0.39530810  0.90667228  0.57941212  1
  Te  Te116  1  0.44143839  0.94169208  0.91190625  1
  Te  Te117  1  0.76338492  0.23063959  0.24736248  1
  Te  Te118  1  0.74501225  0.26054270  0.56913898  1
  Te  Te119  1  0.75294454  0.24974380  0.91971241  1
  Te  Te120  1  0.72982178  0.64558638  0.23284297  1
  Te  Te121  1  0.74201983  0.61039840  0.58681030  1
  Te  Te122  1  0.76631754  0.57240811  0.92031913  1
  Te  Te123  1  0.73573454  0.91247793  0.22363634  1
  Te  Te124  1  0.74188492  0.90817441  0.57879679  1
  Te  Te125  1  0.74702785  0.91649037  0.93883030  1
  Te  Te126  1  0.25171560  0.23137386  0.09592661  1
  Te  Te127  1  0.24886420  0.24879103  0.41572183  1
  Te  Te128  1  0.29850083  0.21926263  0.73820462  1
  Te  Te129  1  0.23863767  0.59560231  0.09364467  1
  Te  Te130  1  0.23651263  0.58275055  0.43045947  1
  Te  Te131  1  0.24973871  0.59585227  0.75958863  1
  Te  Te132  1  0.22762827  0.91951160  0.07450094  1
  Te  Te133  1  0.26637014  0.90914184  0.41362307  1
  Te  Te134  1  0.24319359  0.90103107  0.74504719  1
  Te  Te135  1  0.58009011  0.26297826  0.07969715  1
  Te  Te136  1  0.58707642  0.24907505  0.41958882  1
  Te  Te137  1  0.57990694  0.22753562  0.73292117  1
  Te  Te138  1  0.59243083  0.59351287  0.08904173  1
  Te  Te139  1  0.59984231  0.60496833  0.40337893  1
  Te  Te140  1  0.60795614  0.54537891  0.73841170  1
  Te  Te141  1  0.50978331  0.92495339  0.04514490  1
  Te  Te142  1  0.58346246  0.91036517  0.43609871  1
  Te  Te143  1  0.56376510  0.93007941  0.75946251  1
  Te  Te144  1  0.92045992  0.23875372  0.05872428  1
  Te  Te145  1  0.91400943  0.21987147  0.39400443  1
  Te  Te146  1  0.92019903  0.24404563  0.74852884  1
  Te  Te147  1  0.89667353  0.58312054  0.07190647  1
  Te  Te148  1  0.90064089  0.57332746  0.41383080  1
  Te  Te149  1  0.93708387  0.60647910  0.73783323  1
  Te  Te150  1  0.95427585  0.92459610  0.05335978  1
  Te  Te151  1  0.93570698  0.89050313  0.42065689  1
  Te  Te152  1  0.90928105  0.93799465  0.77465673  1
  Te  Te153  1  0.23465505  0.06695385  0.23477962  1
  Te  Te154  1  0.24207292  0.07168288  0.59191289  1
  Te  Te155  1  0.24733117  0.06779356  0.90630118  1
  Te  Te156  1  0.25234015  0.42015576  0.26121642  1
  Te  Te157  1  0.26433997  0.40928813  0.59468466  1
  Te  Te158  1  0.24188662  0.41089912  0.91914893  1
  Te  Te159  1  0.24704794  0.74701356  0.24709447  1
  Te  Te160  1  0.20899528  0.73853475  0.54917664  1
  Te  Te161  1  0.22719969  0.77120016  0.92539750  1
  Te  Te162  1  0.58335258  0.06988671  0.22392510  1
  Te  Te163  1  0.55538722  0.08013017  0.59763777  1
  Te  Te164  1  0.59866355  0.05295368  0.93704948  1
  Te  Te165  1  0.59856216  0.43669959  0.23061043  1
  Te  Te166  1  0.57010954  0.43553615  0.58666249  1
  Te  Te167  1  0.58577124  0.42990123  0.89882455  1
  Te  Te168  1  0.60177252  0.75701392  0.24529588  1
  Te  Te169  1  0.59389475  0.74846920  0.59476388  1
  Te  Te170  1  0.57327757  0.75029940  0.91584545  1
  Te  Te171  1  0.92354506  0.06352407  0.25271476  1
  Te  Te172  1  0.91720962  0.08727913  0.58230885  1
  Te  Te173  1  0.87986734  0.07151988  0.94287975  1
  Te  Te174  1  0.91163605  0.41750684  0.25966611  1
  Te  Te175  1  0.92255392  0.41734451  0.58771131  1
  Te  Te176  1  0.91128159  0.42225301  0.93852475  1
  Te  Te177  1  0.90890876  0.73654006  0.24321163  1
  Te  Te178  1  0.92915781  0.76108175  0.59203299  1
  Te  Te179  1  0.94701810  0.77213470  0.89280078  1
