# generated using pymatgen
data_In2Te3
_symmetry_space_group_name_H-M   'P 1'
_cell_length_a   18.94034693
_cell_length_b   18.95293067
_cell_length_c   18.92709776
_cell_angle_alpha   90.02837260
_cell_angle_beta   90.07630978
_cell_angle_gamma   90.01050115
_symmetry_Int_Tables_number   1
_chemical_formula_structural   In2Te3
_chemical_formula_sum   'In72 Te108'
_cell_volume   6794.34950369
_cell_formula_units_Z   36
loop_
 _symmetry_equiv_pos_site_id
 _symmetry_equiv_pos_as_xyz
  1  'x, y, z'
loop_
 _atom_site_type_symbol
 _atom_site_label
 _atom_site_symmetry_multiplicity
 _atom_site_fract_x
 _atom_site_fract_y
 _atom_site_fract_z
 _atom_site_occupancy
  In  In0  1  0.82389905  0.00473983  0.49550557  1
  In  In1  1  0.12808764  0.34793535  0.14993143  1
  In  In2  1  0.84043689  0.50100536  0.32857368  1
  In  In3  1  0.33739795  0.13675162  0.14220354  1
  In  In4  1  0.32930753  0.65940414  0.65398200  1
  In  In5  1  0.48236494  0.51200977  0.67016801  1
  In  In6  1  0.52642046  0.68271942  0.14887231  1
  In  In7  1  0.13176508  0.82737989  0.66677641  1
  In  In8  1  0.14597823  0.65409938  0.80368578  1
  In  In9  1  0.15470939  -0.00527409  0.19206712  1
  In  In10  1  0.48336278  -0.02118188  0.15466288  1
  In  In11  1  0.14813757  0.00908286  0.83046036  1
  In  In12  1  0.52458421  0.35239156  0.49186064  1
  In  In13  1  -0.05183722  0.65467475  0.01036036  1
  In  In14  1  -0.00764443  0.14985040  0.15368871  1
  In  In15  1  0.18333671  0.66317540  0.49209875  1
  In  In16  1  0.68501135  0.50753185  0.79890820  1
  In  In17  1  -0.03687156  0.48101381  0.52887892  1
  In  In18  1  0.83531702  0.17616768  0.32542266  1
  In  In19  1  0.39138353  0.17718472  0.81162045  1
  In  In20  1  0.68426591  0.15483215  0.50875688  1
  In  In21  1  -0.01338043  0.32559852  0.35702775  1
  In  In22  1  0.33797310  0.83943286  0.85069701  1
  In  In23  1  0.33071050  -0.01331427  -0.02397437  1
  In  In24  1  0.35439866  0.67210292  0.36109393  1
  In  In25  1  0.68483820  0.65998766  0.33138699  1
  In  In26  1  0.01002800  0.68859277  0.67940963  1
  In  In27  1  0.67934304  0.36172557  0.00264466  1
  In  In28  1  0.31438886  0.35059989  -0.01385580  1
  In  In29  1  0.51030427  0.67136961  0.85562070  1
  In  In30  1  0.81595011  0.82725130  0.32847631  1
  In  In31  1  0.68028722  0.82530431  0.53318839  1
  In  In32  1  0.14083261  0.64798497  0.18651548  1
  In  In33  1  0.33939239  -0.02668165  0.33662322  1
  In  In34  1  0.60122355  0.17350470  -0.09146320  1
  In  In35  1  0.81316126  0.19258530  0.67811633  1
  In  In36  1  0.52573815  0.35234692  0.17084176  1
  In  In37  1  0.33523502  0.17419533  0.54839069  1
  In  In38  1  0.65679293  -0.00478872  0.67168161  1
  In  In39  1  0.34947990  0.85444876  0.19091182  1
  In  In40  1  0.16329767  0.32845239  0.52138618  1
  In  In41  1  -0.03012135  0.01451829  -0.01578301  1
  In  In42  1  -0.01484447  0.83343536  0.52439536  1
  In  In43  1  0.70142263  0.52082082  0.53046956  1
  In  In44  1  0.15025358  0.32969999  0.84065912  1
  In  In45  1  0.79763785  0.86362847  0.00272823  1
  In  In46  1  0.82030725  -0.00558128  0.18386095  1
  In  In47  1  0.17244947  0.19537846  -0.01597457  1
  In  In48  1  -0.01785847  0.48687476  0.84145374  1
  In  In49  1  -0.02487099  0.67297604  0.32391364  1
  In  In50  1  0.15839730  0.80781296  0.01129148  1
  In  In51  1  0.16984705  0.49239965  0.66159461  1
  In  In52  1  0.82569264  0.17589657  -0.03287726  1
  In  In53  1  0.17365624  0.81294858  0.32257111  1
  In  In54  1  0.66385674  0.16587935  0.16113099  1
  In  In55  1  0.66771809  0.35575653  0.33018616  1
  In  In56  1  0.51189797  -0.03634845  0.49863386  1
  In  In57  1  0.48943021  0.14035970  0.33810738  1
  In  In58  1  0.56073241  0.83486624  -0.01097838  1
  In  In59  1  0.15573068  0.17198443  0.36636829  1
  In  In60  1  0.15246542  0.16266776  0.68100410  1
  In  In61  1  0.34775868  0.34575215  0.67343320  1
  In  In62  1  0.51323740  0.83860191  0.66595126  1
  In  In63  1  0.31912731  0.50590108  0.18148546  1
  In  In64  1  0.52411676  0.49858223  0.32445143  1
  In  In65  1  0.84244969  0.67654420  0.83062803  1
  In  In66  1  0.33774422  0.66528345  0.03072926  1
  In  In67  1  -0.02908336  0.33736024  -0.01633531  1
  In  In68  1  0.33281896  0.33326953  0.30212179  1
  In  In69  1  0.52785677  0.50597647  0.00721524  1
  In  In70  1  -0.00380500  0.15380469  0.50193413  1
  In  In71  1  0.32825431  0.02095081  0.67205119  1
  Te  Te72  1  0.10991382  0.08901292  0.08009007  1
  Te  Te73  1  0.07059488  0.06383896  0.41218377  1
  Te  Te74  1  0.05026676  0.08890060  0.75585238  1
  Te  Te75  1  0.05923151  0.43242288  0.05409843  1
  Te  Te76  1  0.07282884  0.41931134  0.43999391  1
  Te  Te77  1  0.07053805  0.41134647  0.74033950  1
  Te  Te78  1  0.05683457  0.73282958  0.09229778  1
  Te  Te79  1  0.07155208  0.74628829  0.42805412  1
  Te  Te80  1  0.06005037  0.78090646  0.79953660  1
  Te  Te81  1  0.43546610  0.07712558  0.04694150  1
  Te  Te82  1  0.39984758  0.07875505  0.44235367  1
  Te  Te83  1  0.44515980  0.04946913  0.75776817  1
  Te  Te84  1  0.41707104  0.42590164  0.09215656  1
  Te  Te85  1  0.42157064  0.41455488  0.39754235  1
  Te  Te86  1  0.42092096  0.42460656  0.77157885  1
  Te  Te87  1  0.42799288  0.77921458  0.07377670  1
  Te  Te88  1  0.42670340  0.78866887  0.40177482  1
  Te  Te89  1  0.41388517  0.74592907  0.75655567  1
  Te  Te90  1  0.76238928  0.08726672  0.07874732  1
  Te  Te91  1  0.73956265  0.07751763  0.39048923  1
  Te  Te92  1  0.73033013  0.09332462  0.75914980  1
  Te  Te93  1  0.78636725  0.43580516  0.07074414  1
  Te  Te94  1  0.75831310  0.41723262  0.43239475  1
  Te  Te95  1  0.77795982  0.41104429  0.72955633  1
  Te  Te96  1  0.71534218  0.74726311  0.04675354  1
  Te  Te97  1  0.76259343  0.73630349  0.43630728  1
  Te  Te98  1  0.76434389  0.72304203  0.71243259  1
  Te  Te99  1  0.07891737  0.23942919  0.25379728  1
  Te  Te100  1  0.06019140  0.25342347  0.59949979  1
  Te  Te101  1  0.05061132  0.23395155  0.90364380  1
  Te  Te102  1  0.04814680  0.56261236  0.25972294  1
  Te  Te103  1  0.08296744  0.58869683  0.58242244  1
  Te  Te104  1  0.05734530  0.59862885  0.91271782  1
  Te  Te105  1  0.07346415  0.88692911  0.24433201  1
  Te  Te106  1  0.07760664  0.93826567  0.57871927  1
  Te  Te107  1  0.08698334  0.92666046  0.94242578  1
  Te  Te108  1  0.43311849  0.24093517  0.23252924  1
  Te  Te109  1  0.44722991  0.26269170  0.59186643  1
  Te  Te110  1  0.41054297  0.25193454  0.93843489  1
  Te  Te111  1  0.43683580  0.58827823  0.23664145  1
  Te  Te112  1  0.41727891  0.58881707  0.56203254  1
  Te  Te113  1  0.41649674  0.58014798  0.93309211  1
  Te  Te114  1  0.46218707  0.89294187  0.29004603  1
  Te  Te115  1  0.40290426  0.91327034  0.59081661  1
  Te  Te116  1  0.45129160  0.91709631  0.91194593  1
  Te  Te117  1  0.74937196  0.26551769  0.23775743  1
  Te  Te118  1  0.69884692  0.25804814  0.61004797  1
  Te  Te119  1  0.72433183  0.26185586  0.89564660  1
  Te  Te120  1  0.78414428  0.60455215  0.23160348  1
  Te  Te121  1  0.78621252  0.59618160  0.62859916  1
  Te  Te122  1  0.77377529  0.56534319  0.90470817  1
  Te  Te123  1  0.72341178  0.89235073  0.23048937  1
  Te  Te124  1  0.77421972  0.92040241  0.61065324  1
  Te  Te125  1  0.74045467  0.90737706  0.87109095  1
  Te  Te126  1  0.25175792  0.25852659  0.10412185  1
  Te  Te127  1  0.26777088  0.25824862  0.42432824  1
  Te  Te128  1  0.25173677  0.25382031  0.75245459  1
  Te  Te129  1  0.22809720  0.57386679  0.08105584  1
  Te  Te130  1  0.25189649  0.57648747  0.39635867  1
  Te  Te131  1  0.26161049  0.56850034  0.75556589  1
  Te  Te132  1  0.25084695  0.91371995  0.08631505  1
  Te  Te133  1  0.24067915  0.90248552  0.41668027  1
  Te  Te134  1  0.24572786  0.91510296  0.75564804  1
  Te  Te135  1  0.58223752  0.25482731  0.06842586  1
  Te  Te136  1  0.58489284  0.24446732  0.39903962  1
  Te  Te137  1  0.53631256  0.20240426  0.77898992  1
  Te  Te138  1  0.62242386  0.60332557  0.06690446  1
  Te  Te139  1  0.59856562  0.57885472  0.42704648  1
  Te  Te140  1  0.58295104  0.60453088  0.74034284  1
  Te  Te141  1  0.60668151  0.93297321  0.08785648  1
  Te  Te142  1  0.63083582  0.91828517  0.42851629  1
  Te  Te143  1  0.61994033  0.87982143  0.76244929  1
  Te  Te144  1  0.90108773  0.24529558  0.08435002  1
  Te  Te145  1  0.89055958  0.24946052  0.44583288  1
  Te  Te146  1  0.88634516  0.30060047  0.75249847  1
  Te  Te147  1  0.87260472  0.56403317  0.09949862  1
  Te  Te148  1  0.90905224  0.58507320  0.43589706  1
  Te  Te149  1  0.92014916  0.57740123  0.73620236  1
  Te  Te150  1  0.91563636  0.92224782  0.08852685  1
  Te  Te151  1  0.91062874  0.91005187  0.41602903  1
  Te  Te152  1  0.99941917  0.89433003  0.70812240  1
  Te  Te153  1  0.26000467  0.08806139  0.26350019  1
  Te  Te154  1  0.22179624  0.07965733  0.57468881  1
  Te  Te155  1  0.25418684  0.09683223  0.90076919  1
  Te  Te156  1  0.21747975  0.41950994  0.25524493  1
  Te  Te157  1  0.26988978  0.42559807  0.56964086  1
  Te  Te158  1  0.21918076  0.43463435  0.91679787  1
  Te  Te159  1  0.26640344  0.73279343  0.23016499  1
  Te  Te160  1  0.24689288  0.76471823  0.58360206  1
  Te  Te161  1  0.25014434  0.73168877  0.91546683  1
  Te  Te162  1  0.57899666  0.06888695  0.24071523  1
  Te  Te163  1  0.57160374  0.07942387  0.57675493  1
  Te  Te164  1  0.65761486  0.03725717  0.89259654  1
  Te  Te165  1  0.62594785  0.45376651  0.22150612  1
  Te  Te166  1  0.59414040  0.43405502  0.59727641  1
  Te  Te167  1  0.59143672  0.42640890  0.89604051  1
  Te  Te168  1  0.60928942  0.75638027  0.24687940  1
  Te  Te169  1  0.56805993  0.73940179  0.57403515  1
  Te  Te170  1  0.63755012  0.73022187  0.91278248  1
  Te  Te171  1  0.92633441  0.07094575  0.26418393  1
  Te  Te172  1  0.89823996  0.08894350  0.59732328  1
  Te  Te173  1  0.88979278  0.07540321  0.87913122  1
  Te  Te174  1  0.91825146  0.40164194  0.25287071  1
  Te  Te175  1  0.88716377  0.39236498  0.61874005  1
  Te  Te176  1  0.86715767  0.43050821  0.92291761  1
  Te  Te177  1  0.88622865  0.74268262  0.22763510  1
  Te  Te178  1  0.89276145  0.74887717  0.60613280  1
  Te  Te179  1  0.90280111  0.77551144  0.92916815  1
