# generated using pymatgen
data_In2Te3
_symmetry_space_group_name_H-M   'P 1'
_cell_length_a   18.95640912
_cell_length_b   18.99343698
_cell_length_c   18.96669745
_cell_angle_alpha   89.89085974
_cell_angle_beta   90.13028597
_cell_angle_gamma   90.27647635
_symmetry_Int_Tables_number   1
_chemical_formula_structural   In2Te3
_chemical_formula_sum   'In72 Te108'
_cell_volume   6828.79997615
_cell_formula_units_Z   36
loop_
 _symmetry_equiv_pos_site_id
 _symmetry_equiv_pos_as_xyz
  1  'x, y, z'
loop_
 _atom_site_type_symbol
 _atom_site_label
 _atom_site_symmetry_multiplicity
 _atom_site_fract_x
 _atom_site_fract_y
 _atom_site_fract_z
 _atom_site_occupancy
  In  In0  1  0.81475326  0.49566512  0.66003865  1
  In  In1  1  0.66173726  0.64580703  0.35663912  1
  In  In2  1  0.33475321  -0.01134412  0.00634522  1
  In  In3  1  0.33486086  0.16796933  0.51481449  1
  In  In4  1  0.49344850  0.52170254  0.35217566  1
  In  In5  1  0.53542823  0.15468440  0.32157089  1
  In  In6  1  0.67156825  0.87023344  0.50688183  1
  In  In7  1  0.16897435  0.64498727  0.85556483  1
  In  In8  1  0.82423717  0.49677132  0.32697090  1
  In  In9  1  0.34117925  0.67701771  0.03080710  1
  In  In10  1  0.15174332  0.82698155  0.35339850  1
  In  In11  1  0.01168189  0.13708923  0.16717905  1
  In  In12  1  0.29975377  0.62157512  0.51954195  1
  In  In13  1  0.31787694  0.33325518  0.00438240  1
  In  In14  1  0.68127272  0.30402318  0.67247631  1
  In  In15  1  0.00176706  0.82275118  0.79591449  1
  In  In16  1  0.34413212  0.16553234  0.15443384  1
  In  In17  1  0.13353005  0.63432049  0.20470986  1
  In  In18  1  -0.01721543  0.65042656  0.66428185  1
  In  In19  1  0.15526128  0.33938565  0.15922001  1
  In  In20  1  0.65041334  0.69654965  0.66360156  1
  In  In21  1  0.33372261  0.31290524  0.32624711  1
  In  In22  1  0.34150797  -0.01924980  0.31271963  1
  In  In23  1  0.69263930  0.14558538  0.13617518  1
  In  In24  1  0.68670564  0.68234922  -0.01206013  1
  In  In25  1  0.52103701  0.16846434  0.66829321  1
  In  In26  1  0.47931663  0.68186297  0.83851238  1
  In  In27  1  0.49868249  0.68842574  0.15964594  1
  In  In28  1  0.33074469  0.86268206  0.80878685  1
  In  In29  1  0.33026566  0.82693835  0.48450065  1
  In  In30  1  0.85164975  0.69859778  0.51607581  1
  In  In31  1  0.50305769  0.33070820  0.81357333  1
  In  In32  1  0.15112935  0.31344917  0.84904156  1
  In  In33  1  0.50321503  0.86407445  0.68403066  1
  In  In34  1  -0.00779262  0.85881668  0.16882574  1
  In  In35  1  0.82336929  0.65596967  0.81369588  1
  In  In36  1  0.67996257  0.84327714  0.17274789  1
  In  In37  1  0.30593689  0.50399749  0.15646186  1
  In  In38  1  0.85972275  0.86100983  -0.01651988  1
  In  In39  1  0.85031074  0.84086821  0.64148284  1
  In  In40  1  -0.00275916  0.31841962  0.01214279  1
  In  In41  1  -0.03300257  0.49548903  0.49491073  1
  In  In42  1  0.66534584  0.33325059  0.35337617  1
  In  In43  1  0.87883731  0.67269775  0.16708846  1
  In  In44  1  0.31492331  0.68331237  0.33051006  1
  In  In45  1  -0.00657486  -0.01212358  0.00921570  1
  In  In46  1  0.31342481  0.01234579  0.69338585  1
  In  In47  1  0.69341893  0.30658980  -0.01031964  1
  In  In48  1  -0.02449184  0.03154958  0.64987573  1
  In  In49  1  0.00644234  0.64591906  -0.00349255  1
  In  In50  1  0.83635952  0.32699279  0.46695284  1
  In  In51  1  0.18274493  0.83495812  0.00993091  1
  In  In52  1  0.83324388  0.85010853  0.32153871  1
  In  In53  1  0.83341997  0.06095320  0.83915395  1
  In  In54  1  0.16981377  0.00458027  0.84475085  1
  In  In55  1  0.83702043  0.31833329  0.16571239  1
  In  In56  1  0.31618393  0.46516721  0.83332931  1
  In  In57  1  -0.01332611  0.01751712  0.34447879  1
  In  In58  1  0.12196729  0.33748361  0.50059823  1
  In  In59  1  0.69110319  0.12831336  0.47561742  1
  In  In60  1  0.49905479  0.00315039  0.49876105  1
  In  In61  1  0.14363989  0.15774102  0.33699027  1
  In  In62  1  0.67519876  0.48349797  0.16977792  1
  In  In63  1  0.15615251  0.48058291  0.68093756  1
  In  In64  1  0.67415528  0.50962147  0.83122174  1
  In  In65  1  0.50864497  0.81483502  0.01538170  1
  In  In66  1  0.16361930  0.17931086  0.66782446  1
  In  In67  1  0.52328397  0.37296102  0.51322876  1
  In  In68  1  0.53568865  0.00883516  0.83621055  1
  In  In69  1  0.50395836  0.16625951  0.00303897  1
  In  In70  1  0.31771382  0.34378815  0.67963971  1
  In  In71  1  0.49405600  0.48902555  0.01373244  1
  Te  Te72  1  0.10264894  0.05244420  0.08700687  1
  Te  Te73  1  0.07239702  0.08806550  0.44763425  1
  Te  Te74  1  0.07948419  0.08501075  0.75354546  1
  Te  Te75  1  0.06153547  0.42830023  0.08931347  1
  Te  Te76  1  0.05759349  0.42435537  0.39638772  1
  Te  Te77  1  0.06951729  0.37959222  0.74489317  1
  Te  Te78  1  0.06635442  0.76289377  0.07637494  1
  Te  Te79  1  0.10878519  0.73311339  0.45598841  1
  Te  Te80  1  0.09619004  0.71800979  0.74323704  1
  Te  Te81  1  0.43573750  0.06264099  0.09333777  1
  Te  Te82  1  0.41314201  0.09393020  0.40858333  1
  Te  Te83  1  0.42831057  0.08757491  0.75780403  1
  Te  Te84  1  0.40846847  0.40344068  0.10396067  1
  Te  Te85  1  0.41277522  0.41043846  0.41783882  1
  Te  Te86  1  0.42764931  0.43594596  0.73485781  1
  Te  Te87  1  0.39109425  0.79308643  0.11838845  1
  Te  Te88  1  0.42278046  0.77629759  0.37649909  1
  Te  Te89  1  0.40391587  0.75419742  0.72911720  1
  Te  Te90  1  0.76829774  0.04547451  0.05703655  1
  Te  Te91  1  0.80486803  0.12134552  0.38010592  1
  Te  Te92  1  0.76256969  0.10007266  0.71503875  1
  Te  Te93  1  0.76459312  0.41503460  0.07115209  1
  Te  Te94  1  0.73426276  0.44037785  0.43450516  1
  Te  Te95  1  0.75651086  0.40241353  0.76572904  1
  Te  Te96  1  0.78127215  0.75874463  0.07963412  1
  Te  Te97  1  0.74451712  0.75735840  0.41982186  1
  Te  Te98  1  0.75724264  0.77096172  0.74199911  1
  Te  Te99  1  0.06720509  0.25308285  0.24968323  1
  Te  Te100  1  0.05447256  0.26192919  0.60849722  1
  Te  Te101  1  0.06730540  0.21647167  0.92506789  1
  Te  Te102  1  0.07034583  0.54679241  0.29883084  1
  Te  Te103  1  0.07261534  0.56203800  0.58077659  1
  Te  Te104  1  0.06203354  0.55493784  0.89664803  1
  Te  Te105  1  0.08299310  0.93222949  0.26430315  1
  Te  Te106  1  0.08173148  0.93162829  0.63349310  1
  Te  Te107  1  0.07889993  0.89542001  0.90812531  1
  Te  Te108  1  0.43942288  0.24460269  0.24339496  1
  Te  Te109  1  0.42304130  0.26162052  0.59481093  1
  Te  Te110  1  0.41748571  0.26005638  0.91782051  1
  Te  Te111  1  0.41496317  0.58449886  0.23325536  1
  Te  Te112  1  0.43548472  0.58762814  0.55098424  1
  Te  Te113  1  0.40336373  0.57593428  0.92805123  1
  Te  Te114  1  0.42534469  0.87962557  0.25301288  1
  Te  Te115  1  0.39678971  0.93107939  0.58606812  1
  Te  Te116  1  0.43308790  0.91010166  0.91130623  1
  Te  Te117  1  0.73059449  0.24843525  0.24881381  1
  Te  Te118  1  0.75734694  0.23547537  0.56282368  1
  Te  Te119  1  0.79676826  0.24033500  0.90776692  1
  Te  Te120  1  0.74948324  0.60110599  0.23288429  1
  Te  Te121  1  0.74956124  0.61010969  0.58688685  1
  Te  Te122  1  0.77116876  0.57122393  0.93070876  1
  Te  Te123  1  0.72482904  0.94038021  0.27702005  1
  Te  Te124  1  0.79398644  0.94381645  0.54878669  1
  Te  Te125  1  0.76129668  0.95457514  0.92243965  1
  Te  Te126  1  0.23127517  0.23498856  0.07966664  1
  Te  Te127  1  0.23751734  0.25043492  0.42894669  1
  Te  Te128  1  0.25944498  0.23960238  0.77075184  1
  Te  Te129  1  0.21940893  0.59921509  0.07882434  1
  Te  Te130  1  0.23971047  0.57445310  0.39568006  1
  Te  Te131  1  0.25617623  0.57424377  0.74892458  1
  Te  Te132  1  0.23163840  0.93999135  0.10157063  1
  Te  Te133  1  0.24392538  0.93151983  0.41788387  1
  Te  Te134  1  0.20819565  0.90126450  0.72122042  1
  Te  Te135  1  0.59157962  0.25722914  0.08886861  1
  Te  Te136  1  0.57754382  0.24324495  0.44155461  1
  Te  Te137  1  0.60629036  0.22636979  0.78053761  1
  Te  Te138  1  0.58869399  0.59362091  0.07233147  1
  Te  Te139  1  0.56377996  0.59745493  0.46076987  1
  Te  Te140  1  0.57754550  0.59950066  0.75605117  1
  Te  Te141  1  0.60286772  0.91183465  0.06958560  1
  Te  Te142  1  0.59207368  0.94042174  0.40359073  1
  Te  Te143  1  0.61801372  0.93246858  0.74224188  1
  Te  Te144  1  0.91020778  0.21555853  0.08485432  1
  Te  Te145  1  0.92321017  0.22066754  0.41222069  1
  Te  Te146  1  0.86304090  0.19514226  0.76286849  1
  Te  Te147  1  0.93707965  0.55973590  0.09591052  1
  Te  Te148  1  0.90113695  0.60240982  0.41142749  1
  Te  Te149  1  0.91714836  0.55098610  0.75873868  1
  Te  Te150  1  0.87986208  0.95018969  0.11362315  1
  Te  Te151  1  0.90989234  0.92004080  0.42795097  1
  Te  Te152  1  0.90731236  0.93093115  0.75332291  1
  Te  Te153  1  0.25623544  0.09446253  0.25685166  1
  Te  Te154  1  0.23388297  0.07772378  0.58044534  1
  Te  Te155  1  0.27086039  0.08302776  0.91460318  1
  Te  Te156  1  0.24141335  0.41338127  0.26035877  1
  Te  Te157  1  0.23923199  0.41159171  0.57193142  1
  Te  Te158  1  0.21697384  0.42269165  0.93719516  1
  Te  Te159  1  0.21920751  0.75367036  0.23850693  1
  Te  Te160  1  0.22277499  0.74691166  0.55586008  1
  Te  Te161  1  0.27073021  0.75723416  0.91173805  1
  Te  Te162  1  0.60370703  0.06685222  0.22772868  1
  Te  Te163  1  0.60235945  0.07050682  0.58827900  1
  Te  Te164  1  0.60894613  0.09689919  0.92787916  1
  Te  Te165  1  0.57783825  0.42373298  0.26534380  1
  Te  Te166  1  0.60806656  0.42240531  0.61997846  1
  Te  Te167  1  0.58649285  0.41300057  0.92124270  1
  Te  Te168  1  0.59774588  0.74498895  0.25874089  1
  Te  Te169  1  0.56562747  0.78143914  0.57186617  1
  Te  Te170  1  0.59436824  0.76267893  0.89939977  1
  Te  Te171  1  0.89505811  0.09144872  0.25186298  1
  Te  Te172  1  0.94490091  0.12867788  0.53951539  1
  Te  Te173  1  0.95688609  0.09915325  0.91746004  1
  Te  Te174  1  0.91127430  0.39935916  0.26363422  1
  Te  Te175  1  0.90085439  0.39567221  0.58815402  1
  Te  Te176  1  0.89739027  0.35207938  0.90917768  1
  Te  Te177  1  0.94485058  0.75639272  0.27255144  1
  Te  Te178  1  0.97018382  0.77439896  0.57328934  1
  Te  Te179  1  0.91783042  0.73892641  0.90241596  1
